          AutoDock 4.2 Release 4.2.6   
         (C) 1989-2012 The Scripps Research Institute
        AutoDock comes with ABSOLUTELY NO WARRANTY.
        AutoDock is free software, and you are welcome
        to redistribute it under certain conditions;
        for details type 'autodock4 -C'

                     main.cc  $Revision: 1.213 $

                   Compiled on Feb 20 2022 at 09:48:33


This file was created at:			5:06 21" p.m., 11/03/2024
                   on host:		"ThinkStation-P620"
Current Working Directory = "/home/antonio/Documenti/buccheri/IDROSSAMICO HDAC/HDAC 4/DP/Ligand_1"

      ________________________________________________________________

                   SETTING UP DEFAULT PARAMETER LIBRARY
      ________________________________________________________________


Random number generator was seeded with values 24270, 1730649981.
Docking parameter file (DPF) used for this docking:		ligand_dock.biased.dpf
DPF> autodock_parameter_version 4.2       # used by autodock to validate parameter set

	Autodock parameter version 4.2.
DPF> outlev 1                             # diagnostic output level

Output Level = 1  ADT-COMPATIBLE OUTPUT DURING DOCKING.
DPF> intelec                              # calculate internal electrostatics

Electrostatic energies will be calculated for all non-bonds between moving atoms.
DPF> seed pid time                        # seeds for random generator

Random number generator was seeded with values 24270, 1730649981.
DPF> ligand_types A C OA N S HD           # atoms types in ligand

DPF> fld receptor.maps.fld                # grid_data_file

Opening Grid Map Dimensions file:		receptor.maps.fld
Grid Point Spacing =				0.375 Angstroms

Even Number of User-specified Grid Points =	70 x-points
						70 y-points
						70 z-points

Coordinates of Central Grid Point of Maps =	(19.141, -8.645, -3.505)
Macromolecule file used to create Grid Maps =	receptor.pdbqt
Grid Parameter file used to create Grid Maps =	receptor.gpf
Minimum coordinates in grid = (6.016, -21.770, -16.630)
Maximum coordinates in grid = (32.266, 4.480, 9.620)

DPF> map receptor.A.map                   # atom-specific affinity map

DPF> map receptor.C.map                   # atom-specific affinity map

DPF> map receptor.OA.biased.map

DPF> map receptor.N.map                   # atom-specific affinity map

DPF> map receptor.S.map                   # atom-specific affinity map

DPF> map receptor.HD.map                  # atom-specific affinity map

DPF> elecmap receptor.e.map               # electrostatics map

DPF> desolvmap receptor.d.map             # desolvation map

DPF> move ligand.pdbqt                    # small molecule

1,4-interactions will be _ignored_ in the non-bonded internal energy calculation.

Ligand PDBQT file = "ligand.pdbqt"

INPUT LIGAND PDBQT FILE:
________________________

INPUT-LIGAND-PDBQT: REMARK  Name = 
INPUT-LIGAND-PDBQT: REMARK  5 active torsions:
INPUT-LIGAND-PDBQT: REMARK  status: ('A' for Active; 'I' for Inactive)
INPUT-LIGAND-PDBQT: REMARK    1  A    between atoms: S_2  and  N_3
INPUT-LIGAND-PDBQT: REMARK    2  A    between atoms: S_2  and  C_10
INPUT-LIGAND-PDBQT: REMARK    3  A    between atoms: N_3  and  C_4
INPUT-LIGAND-PDBQT: REMARK    4  A    between atoms: C_12  and  C_13
INPUT-LIGAND-PDBQT: REMARK    5  A    between atoms: C_14  and  C_15
INPUT-LIGAND-PDBQT: REMARK                            x       y       z     vdW  Elec       q    Type
INPUT-LIGAND-PDBQT: REMARK                         _______ _______ _______ _____ _____    ______ ____
INPUT-LIGAND-PDBQT: ROOT
INPUT-LIGAND-PDBQT: ATOM      1  C   UNL     1      -0.320  -2.102  -0.266  0.00  0.00    +0.000 A 
INPUT-LIGAND-PDBQT: ATOM      2  C   UNL     1       0.566  -1.028  -0.431  0.00  0.00    +0.000 A 
INPUT-LIGAND-PDBQT: ATOM      3  C   UNL     1       1.750  -0.952   0.332  0.00  0.00    +0.000 A 
INPUT-LIGAND-PDBQT: ATOM      4  C   UNL     1       2.017  -1.962   1.270  0.00  0.00    +0.000 A 
INPUT-LIGAND-PDBQT: ATOM      5  C   UNL     1       1.139  -3.038   1.427  0.00  0.00    +0.000 A 
INPUT-LIGAND-PDBQT: ATOM      6  C   UNL     1      -0.024  -3.111   0.659  0.00  0.00    +0.000 A 
INPUT-LIGAND-PDBQT: ENDROOT
INPUT-LIGAND-PDBQT: BRANCH   1   8
INPUT-LIGAND-PDBQT: ATOM      7  O   UNL     1      -2.851  -2.981  -0.494  0.00  0.00    +0.000 OA
INPUT-LIGAND-PDBQT: ATOM      8  S   UNL     1      -1.806  -2.172  -1.210  0.00  0.00    +0.000 S 
INPUT-LIGAND-PDBQT: ATOM      9  O   UNL     1      -1.506  -2.818  -2.532  0.00  0.00    +0.000 OA
INPUT-LIGAND-PDBQT: BRANCH   8  10
INPUT-LIGAND-PDBQT: ATOM     10  N   UNL     1      -2.418  -0.570  -1.482  0.00  0.00    +0.000 N 
INPUT-LIGAND-PDBQT: ATOM     11  H   UNL     1      -2.620  -0.304  -2.408  0.00  0.00    +0.000 HD
INPUT-LIGAND-PDBQT: BRANCH  10  12
INPUT-LIGAND-PDBQT: ATOM     12  C   UNL     1      -2.647   0.391  -0.436  0.00  0.00    +0.000 A 
INPUT-LIGAND-PDBQT: ATOM     13  C   UNL     1      -2.627   0.029   0.925  0.00  0.00    +0.000 A 
INPUT-LIGAND-PDBQT: ATOM     14  C   UNL     1      -2.844   0.993   1.915  0.00  0.00    +0.000 A 
INPUT-LIGAND-PDBQT: ATOM     15  C   UNL     1      -3.089   2.321   1.560  0.00  0.00    +0.000 A 
INPUT-LIGAND-PDBQT: ATOM     16  C   UNL     1      -3.120   2.688   0.213  0.00  0.00    +0.000 A 
INPUT-LIGAND-PDBQT: ATOM     17  C   UNL     1      -2.903   1.729  -0.780  0.00  0.00    +0.000 A 
INPUT-LIGAND-PDBQT: ENDBRANCH  10  12
INPUT-LIGAND-PDBQT: ENDBRANCH   8  10
INPUT-LIGAND-PDBQT: ENDBRANCH   1   8
INPUT-LIGAND-PDBQT: BRANCH   3  18
INPUT-LIGAND-PDBQT: ATOM     18  C   UNL     1       2.707   0.176   0.213  0.00  0.00    +0.000 C 
INPUT-LIGAND-PDBQT: ATOM     19  C   UNL     1       2.800   0.963  -0.870  0.00  0.00    +0.000 C 
INPUT-LIGAND-PDBQT: BRANCH  19  20
INPUT-LIGAND-PDBQT: ATOM     20  C   UNL     1       3.754   2.086  -0.980  0.00  0.00    +0.000 C 
INPUT-LIGAND-PDBQT: ATOM     21  N   UNL     1       4.898   2.207  -0.126  0.00  0.00    +0.000 N 
INPUT-LIGAND-PDBQT: ATOM     22  O   UNL     1       5.683   3.307  -0.196  0.00  0.00    +0.000 OA
INPUT-LIGAND-PDBQT: ATOM     23  O   UNL     1       3.562   2.951  -1.876  0.00  0.00    +0.000 OA
INPUT-LIGAND-PDBQT: ATOM     24  H   UNL     1       5.113   1.489   0.513  0.00  0.00    +0.000 HD
INPUT-LIGAND-PDBQT: ENDBRANCH  19  20
INPUT-LIGAND-PDBQT: ENDBRANCH   3  18
INPUT-LIGAND-PDBQT: TORSDOF 5
________________________________________________________________________________

Total charge on ligand                               =	+0.000 e
REMARK  Name = 
REMARK  5 active torsions:
REMARK  status: ('A' for Active; 'I' for Inactive)
REMARK    1  A    between atoms: S_2  and  N_3
REMARK    2  A    between atoms: S_2  and  C_10
REMARK    3  A    between atoms: N_3  and  C_4
REMARK    4  A    between atoms: C_12  and  C_13
REMARK    5  A    between atoms: C_14  and  C_15
REMARK                            x       y       z     vdW  Elec       q    Type
REMARK                         _______ _______ _______ _____ _____    ______ ____


Number of Rotatable Bonds in Small Molecule =	5 torsions
Number of atoms in ligand:  24

Number of non-hydrogen atoms in ligand:  22

Number of vibrational degrees of freedom of ligand:  66


Number of torsional degrees of freedom = 5
Estimated loss of torsional free energy upon binding = +1.4915 kcal/mol


DPF> about 0.217 0.012 -0.211            # small molecule center

Small molecule center of rotation =	(+0.217, +0.012, -0.211)

DPF> tran0 random                         # initial coordinates/A or random

Initial translation =			(29.641, -8.053, -10.633) Angstroms
DPF> quaternion0 random                   # initial orientation

Each run will begin with a new, random initial orientation.
Initial quaternion,  (x,y,z,w) =	( -0.470, 0.190, -0.039, 0.861 ),
DPF> dihe0 random                         # initial dihedrals (relative) or random

DPF> torsdof 5                            # torsional degrees of freedom

Number of torsional degrees of freedom = 5
Free energy coefficient for torsional degrees of freedom = 0.2983, the factory default value.

Estimated loss of torsional free energy upon binding = +1.4915 kcal/mol

DPF> rmstol 2.0                           # cluster_tolerance/A

Maximum RMS tolerance for conformational cluster analysis = 2.00 Angstroms
DPF> extnrg 1000.0                        # external grid energy

External grid energy (beyond grid map walls) = 1000.00

DPF> e0max 0.0 10000                      # max initial energy; max number of retries

Using user-specified maximum number of retries for simanneal initialization, 10000 retries.
If the simanneal initial energy is greater than e0max, 0.000,
then a new, random initial state will be created.

DPF> ga_pop_size 150                      # number of individuals in population

A population of 150 individuals will be used
DPF> ga_num_evals 2500000                 # maximum number of energy evaluations

There will be at most 2500000 function evaluations used.
DPF> ga_num_generations 27000             # maximum number of generations

The GA will run for at most 27000 generations.
DPF> ga_elitism 1                         # number of top individuals to survive to next generation

The 1 best will be preserved each GA generation.
DPF> ga_mutation_rate 0.02                # rate of gene mutation

The mutation rate is 0.020000.
DPF> ga_crossover_rate 0.8                # rate of crossover

The crossover rate is 0.800000.
DPF> ga_window_size 10                    # 

The GA's selection window is 10 generations.
DPF> ga_cauchy_alpha 0.0                  # Alpha parameter of Cauchy distribution

The alpha parameter (for the Cauchy distribution) is being set to 0.000000.
DPF> ga_cauchy_beta 1.0                   # Beta parameter Cauchy distribution

The beta parameter (for the Cauchy distribution) is being set to 1.000000.
DPF> set_ga                               # set the above parameters for GA or LGA

DPF> sw_max_its 300                       # iterations of Solis & Wets local search

Solis & Wets algorithms will perform at most 300 iterations.
DPF> sw_max_succ 4                        # consecutive successes before changing rho

Solis & Wets algorithms expand rho every 4 in a row successes.
DPF> sw_max_fail 4                        # consecutive failures before changing rho

Solis & Wets algorithms contract rho every 4 in a row failures.
DPF> sw_rho 1.0                           # size of local search space to sample

rho is set to 1.000000.
DPF> sw_lb_rho 0.01                       # lower bound on rho

rho will never get smaller than 0.010000.
DPF> ls_search_freq 0.06                  # probability of performing local search on individual

Local search will be performed with frequency 0.060000.
DPF> set_psw1                             # set the above pseudo-Solis & Wets parameters

Creating a new Local Search object using the pseudo-Solis-Wets algorithm (pSW1) with the current settings.

DPF> unbound_model bound                  # state of unbound ligand

DPF> ga_run 100

centering ligand on specified point: 0.217 0.012 -0.211
Furthest true ligand atom from "about" center is 6.382 Angstroms (maxrad).
Number of requested GA dockings = 100 runs
Unbound model to be used is 'same as bound' [AutoDock 4.2 default].

	BEGINNING GENETIC ALGORITHM DOCKING 1 of 100
Run: 1 Seed: 1842755869 637973567 [ Run 1 of 100 GA/GALS ]
Beginning LAMARCKIAN GENETIC ALGORITHM (LGA), with a maximum of 2500000 energy evaluations.

Final-Value: -13.146


	FINAL GENETIC ALGORITHM DOCKED STATE
	_______________________________________________


Detailed state:  trans 18.412 -10.727 -0.926 quatxyzw 0.622158 -0.449042 -0.349885 0.537458 center 0.217 0.012 -0.211 ntor 5 -29.6354 159.2954 -117.6110 140.3124 -37.8976
State:	 18.412 -10.727  -0.926   0.738 -0.532 -0.415 114.978    -29.64  159.30 -117.61  140.31  -37.90

DOCKED: MODEL        1
DOCKED: USER    Run = 1
DOCKED: USER    DPF = ligand_dock.biased.dpf
DOCKED: USER  
DOCKED: USER    Estimated Free Energy of Binding    =  -10.54 kcal/mol  [=(1)+(2)+(3)-(4)]
DOCKED: USER    Estimated Inhibition Constant, Ki   =   18.90 nM (nanomolar)  [Temperature = 298.15 K]
DOCKED: USER    
DOCKED: USER    (1) Final Intermolecular Energy     =  -12.03 kcal/mol
DOCKED: USER        vdW + Hbond + desolv Energy     =  -12.03 kcal/mol
DOCKED: USER        Electrostatic Energy            =   +0.00 kcal/mol
DOCKED: USER    (2) Final Total Internal Energy     =   -1.12 kcal/mol
DOCKED: USER    (3) Torsional Free Energy           =   +1.49 kcal/mol
DOCKED: USER    (4) Unbound System's Energy  [=(2)] =   -1.12 kcal/mol
DOCKED: USER    
DOCKED: USER    
DOCKED: USER    NEWDPF move ligand.pdbqt
DOCKED: USER    NEWDPF about 0.217000 0.012000 -0.211000
DOCKED: USER    NEWDPF tran0 18.411544 -10.727369 -0.926061
DOCKED: USER    NEWDPF quaternion0 0.622158 -0.449042 -0.349885 0.537458
DOCKED: USER    NEWDPF axisangle0 0.737774 -0.532488 -0.414905 114.978477
DOCKED: USER    NEWDPF quat0 0.737774 -0.532488 -0.414905 114.978477
DOCKED: USER    NEWDPF dihe0 -29.64 159.30 -117.61 140.31 -37.90 
DOCKED: USER  keepresnum = 1 
DOCKED: USER  
DOCKED: REMARK  Name = 
DOCKED: REMARK  5 active torsions:
DOCKED: REMARK  status: ('A' for Active; 'I' for Inactive)
DOCKED: REMARK    1  A    between atoms: S_2  and  N_3
DOCKED: REMARK    2  A    between atoms: S_2  and  C_10
DOCKED: REMARK    3  A    between atoms: N_3  and  C_4
DOCKED: REMARK    4  A    between atoms: C_12  and  C_13
DOCKED: REMARK    5  A    between atoms: C_14  and  C_15
DOCKED: REMARK                            x       y       z     vdW  Elec       q    Type
DOCKED: REMARK                         _______ _______ _______ _____ _____    ______ ____
DOCKED: USER                              x       y       z     vdW  Elec       q    Type
DOCKED: USER                           _______ _______ _______ _____ _____    ______ ____
DOCKED: ROOT
DOCKED: ATOM      1  C   UNL     1      20.196 -10.643   0.326 -0.57 -0.00    +0.000 A 
DOCKED: ATOM      2  C   UNL     1      19.496 -10.988  -0.839 -0.44 -0.00    +0.000 A 
DOCKED: ATOM      3  C   UNL     1      19.878 -10.455  -2.088 -0.43 -0.00    +0.000 A 
DOCKED: ATOM      4  C   UNL     1      20.960  -9.563  -2.141 -0.50 -0.00    +0.000 A 
DOCKED: ATOM      5  C   UNL     1      21.665  -9.228  -0.982 -0.30 -0.00    +0.000 A 
DOCKED: ATOM      6  C   UNL     1      21.287  -9.769   0.248 -0.57 -0.00    +0.000 A 
DOCKED: ENDROOT
DOCKED: BRANCH   1   8
DOCKED: ATOM      7  O   UNL     1      20.745 -11.047   2.927 -1.33 -0.00    +0.000 OA
DOCKED: ATOM      8  S   UNL     1      19.694 -11.298   1.883 -0.88 -0.00    +0.000 S 
DOCKED: ATOM      9  O   UNL     1      19.490 -12.779   1.738 -1.47 -0.00    +0.000 OA
DOCKED: BRANCH   8  10
DOCKED: ATOM     10  N   UNL     1      18.205 -10.563   2.389 -0.49 -0.00    +0.000 N 
DOCKED: ATOM     11  H   UNL     1      18.256  -9.761   2.958 -0.05 -0.00    +0.000 HD
DOCKED: BRANCH  10  12
DOCKED: ATOM     12  C   UNL     1      16.902 -11.055   2.027 -0.40 +0.00    +0.000 A 
DOCKED: ATOM     13  C   UNL     1      15.796 -10.938   2.891 -0.45 +0.00    +0.000 A 
DOCKED: ATOM     14  C   UNL     1      14.542 -11.419   2.501 -0.43 +0.00    +0.000 A 
DOCKED: ATOM     15  C   UNL     1      14.379 -12.025   1.253 -0.43 +0.00    +0.000 A 
DOCKED: ATOM     16  C   UNL     1      15.472 -12.153   0.393 -0.44 +0.00    +0.000 A 
DOCKED: ATOM     17  C   UNL     1      16.727 -11.674   0.778 -0.40 +0.00    +0.000 A 
DOCKED: ENDBRANCH  10  12
DOCKED: ENDBRANCH   8  10
DOCKED: ENDBRANCH   1   8
DOCKED: BRANCH   3  18
DOCKED: ATOM     18  C   UNL     1      19.154 -10.769  -3.345 -0.40 -0.00    +0.000 C 
DOCKED: ATOM     19  C   UNL     1      19.764 -10.982  -4.522 -0.46 -0.00    +0.000 C 
DOCKED: BRANCH  19  20
DOCKED: ATOM     20  C   UNL     1      19.036 -11.296  -5.769 -0.42 -0.00    +0.000 C 
DOCKED: ATOM     21  N   UNL     1      17.645 -11.639  -5.781 -0.33 -0.00    +0.000 N 
DOCKED: ATOM     22  O   UNL     1      17.050 -12.020  -6.935 -0.46 -0.00    +0.000 OA
DOCKED: ATOM     23  O   UNL     1      19.663 -11.234  -6.861 -0.37 -0.00    +0.000 OA
DOCKED: ATOM     24  H   UNL     1      17.122 -11.597  -4.947 -0.02 -0.00    +0.000 HD
DOCKED: ENDBRANCH  19  20
DOCKED: ENDBRANCH   3  18
DOCKED: TORSDOF 5
DOCKED: TER
DOCKED: ENDMDL
________________________________________________________________________________


	BEGINNING GENETIC ALGORITHM DOCKING 2 of 100
Run: 2 Seed: 1932699897 1122202986 [ Run 2 of 100 GA/GALS ]
Beginning LAMARCKIAN GENETIC ALGORITHM (LGA), with a maximum of 2500000 energy evaluations.

Final-Value: -13.808


	FINAL GENETIC ALGORITHM DOCKED STATE
	_______________________________________________


Detailed state:  trans 22.098 -11.535 -2.630 quatxyzw 0.456030 0.364410 0.807732 0.082525 center 0.217 0.012 -0.211 ntor 5 109.7805 49.1699 -117.3038 -158.2245 -102.7388
State:	 22.098 -11.535  -2.630   0.458  0.366  0.810 170.533    109.78   49.17 -117.30 -158.22 -102.74

DOCKED: MODEL        2
DOCKED: USER    Run = 2
DOCKED: USER    DPF = ligand_dock.biased.dpf
DOCKED: USER  
DOCKED: USER    Estimated Free Energy of Binding    =  -11.41 kcal/mol  [=(1)+(2)+(3)-(4)]
DOCKED: USER    Estimated Inhibition Constant, Ki   =    4.32 nM (nanomolar)  [Temperature = 298.15 K]
DOCKED: USER    
DOCKED: USER    (1) Final Intermolecular Energy     =  -12.90 kcal/mol
DOCKED: USER        vdW + Hbond + desolv Energy     =  -12.90 kcal/mol
DOCKED: USER        Electrostatic Energy            =   +0.00 kcal/mol
DOCKED: USER    (2) Final Total Internal Energy     =   -0.91 kcal/mol
DOCKED: USER    (3) Torsional Free Energy           =   +1.49 kcal/mol
DOCKED: USER    (4) Unbound System's Energy  [=(2)] =   -0.91 kcal/mol
DOCKED: USER    
DOCKED: USER    
DOCKED: USER    NEWDPF move ligand.pdbqt
DOCKED: USER    NEWDPF about 0.217000 0.012000 -0.211000
DOCKED: USER    NEWDPF tran0 22.098307 -11.534702 -2.629748
DOCKED: USER    NEWDPF quaternion0 0.456030 0.364410 0.807732 0.082525
DOCKED: USER    NEWDPF axisangle0 0.457591 0.365657 0.810497 170.532588
DOCKED: USER    NEWDPF quat0 0.457591 0.365657 0.810497 170.532588
DOCKED: USER    NEWDPF dihe0 109.78 49.17 -117.30 -158.22 -102.74 
DOCKED: USER  keepresnum = 1 
DOCKED: USER  
DOCKED: REMARK  Name = 
DOCKED: REMARK  5 active torsions:
DOCKED: REMARK  status: ('A' for Active; 'I' for Inactive)
DOCKED: REMARK    1  A    between atoms: S_2  and  N_3
DOCKED: REMARK    2  A    between atoms: S_2  and  C_10
DOCKED: REMARK    3  A    between atoms: N_3  and  C_4
DOCKED: REMARK    4  A    between atoms: C_12  and  C_13
DOCKED: REMARK    5  A    between atoms: C_14  and  C_15
DOCKED: REMARK                            x       y       z     vdW  Elec       q    Type
DOCKED: REMARK                         _______ _______ _______ _____ _____    ______ ____
DOCKED: USER                              x       y       z     vdW  Elec       q    Type
DOCKED: USER                           _______ _______ _______ _____ _____    ______ ____
DOCKED: ROOT
DOCKED: ATOM      1  C   UNL     1      21.383 -10.154  -4.161 -0.43 -0.00    +0.000 A 
DOCKED: ATOM      2  C   UNL     1      21.266 -10.862  -2.956 -0.35 -0.00    +0.000 A 
DOCKED: ATOM      3  C   UNL     1      21.142 -10.174  -1.730 -0.55 -0.00    +0.000 A 
DOCKED: ATOM      4  C   UNL     1      21.154  -8.770  -1.737 -0.48 -0.00    +0.000 A 
DOCKED: ATOM      5  C   UNL     1      21.260  -8.065  -2.939 -0.39 -0.00    +0.000 A 
DOCKED: ATOM      6  C   UNL     1      21.370  -8.754  -4.148 -0.33 -0.00    +0.000 A 
DOCKED: ENDROOT
DOCKED: BRANCH   1   8
DOCKED: ATOM      7  O   UNL     1      20.260 -11.041  -6.437 -0.37 -0.00    +0.000 OA
DOCKED: ATOM      8  S   UNL     1      21.559 -11.026  -5.681 -0.61 -0.00    +0.000 S 
DOCKED: ATOM      9  O   UNL     1      21.968 -12.440  -5.381 -0.83 -0.00    +0.000 OA
DOCKED: BRANCH   8  10
DOCKED: ATOM     10  N   UNL     1      22.778 -10.275  -6.664 -0.32 -0.00    +0.000 N 
DOCKED: ATOM     11  H   UNL     1      22.906  -9.303  -6.578 -0.01 -0.00    +0.000 HD
DOCKED: BRANCH  10  12
DOCKED: ATOM     12  C   UNL     1      23.612 -10.988  -7.595 -0.37 -0.00    +0.000 A 
DOCKED: ATOM     13  C   UNL     1      23.120 -12.062  -8.363 -0.38 -0.00    +0.000 A 
DOCKED: ATOM     14  C   UNL     1      23.958 -12.725  -9.266 -0.38 -0.00    +0.000 A 
DOCKED: ATOM     15  C   UNL     1      25.290 -12.331  -9.408 -0.34 -0.00    +0.000 A 
DOCKED: ATOM     16  C   UNL     1      25.788 -11.274  -8.644 -0.37 -0.00    +0.000 A 
DOCKED: ATOM     17  C   UNL     1      24.956 -10.607  -7.741 -0.32 -0.00    +0.000 A 
DOCKED: ENDBRANCH  10  12
DOCKED: ENDBRANCH   8  10
DOCKED: ENDBRANCH   1   8
DOCKED: BRANCH   3  18
DOCKED: ATOM     18  C   UNL     1      21.041 -10.876  -0.426 -0.61 -0.00    +0.000 C 
DOCKED: ATOM     19  C   UNL     1      20.226 -10.489   0.567 -0.65 -0.00    +0.000 C 
DOCKED: BRANCH  19  20
DOCKED: ATOM     20  C   UNL     1      20.129 -11.194   1.861 -0.74 -0.00    +0.000 C 
DOCKED: ATOM     21  N   UNL     1      20.267 -10.516   3.116 -0.69 -0.00    +0.000 N 
DOCKED: ATOM     22  O   UNL     1      20.275 -11.222   4.271 -1.06 -0.00    +0.000 OA
DOCKED: ATOM     23  O   UNL     1      19.891 -12.432   1.854 -1.78 -0.00    +0.000 OA
DOCKED: ATOM     24  H   UNL     1      20.356  -9.536   3.138 -0.58 -0.00    +0.000 HD
DOCKED: ENDBRANCH  19  20
DOCKED: ENDBRANCH   3  18
DOCKED: TORSDOF 5
DOCKED: TER
DOCKED: ENDMDL
________________________________________________________________________________


	BEGINNING GENETIC ALGORITHM DOCKING 3 of 100
Run: 3 Seed: 490614157 1741814331 [ Run 3 of 100 GA/GALS ]
Beginning LAMARCKIAN GENETIC ALGORITHM (LGA), with a maximum of 2500000 energy evaluations.

Final-Value: -13.552


	FINAL GENETIC ALGORITHM DOCKED STATE
	_______________________________________________


Detailed state:  trans 21.466 -11.424 -2.596 quatxyzw -0.478626 -0.268718 -0.835720 -0.016730 center 0.217 0.012 -0.211 ntor 5 175.8908 132.4914 -171.3176 123.2697 72.8644
State:	 21.466 -11.424  -2.596  -0.479 -0.269 -0.836 -178.083    175.89  132.49 -171.32  123.27   72.86

DOCKED: MODEL        3
DOCKED: USER    Run = 3
DOCKED: USER    DPF = ligand_dock.biased.dpf
DOCKED: USER  
DOCKED: USER    Estimated Free Energy of Binding    =  -10.92 kcal/mol  [=(1)+(2)+(3)-(4)]
DOCKED: USER    Estimated Inhibition Constant, Ki   =    9.96 nM (nanomolar)  [Temperature = 298.15 K]
DOCKED: USER    
DOCKED: USER    (1) Final Intermolecular Energy     =  -12.41 kcal/mol
DOCKED: USER        vdW + Hbond + desolv Energy     =  -12.41 kcal/mol
DOCKED: USER        Electrostatic Energy            =   +0.00 kcal/mol
DOCKED: USER    (2) Final Total Internal Energy     =   -1.14 kcal/mol
DOCKED: USER    (3) Torsional Free Energy           =   +1.49 kcal/mol
DOCKED: USER    (4) Unbound System's Energy  [=(2)] =   -1.14 kcal/mol
DOCKED: USER    
DOCKED: USER    
DOCKED: USER    NEWDPF move ligand.pdbqt
DOCKED: USER    NEWDPF about 0.217000 0.012000 -0.211000
DOCKED: USER    NEWDPF tran0 21.465646 -11.424323 -2.595586
DOCKED: USER    NEWDPF quaternion0 -0.478626 -0.268718 -0.835720 -0.016730
DOCKED: USER    NEWDPF axisangle0 -0.478693 -0.268756 -0.835837 -178.082778
DOCKED: USER    NEWDPF quat0 -0.478693 -0.268756 -0.835837 -178.082778
DOCKED: USER    NEWDPF dihe0 175.89 132.49 -171.32 123.27 72.86 
DOCKED: USER  keepresnum = 1 
DOCKED: USER  
DOCKED: REMARK  Name = 
DOCKED: REMARK  5 active torsions:
DOCKED: REMARK  status: ('A' for Active; 'I' for Inactive)
DOCKED: REMARK    1  A    between atoms: S_2  and  N_3
DOCKED: REMARK    2  A    between atoms: S_2  and  C_10
DOCKED: REMARK    3  A    between atoms: N_3  and  C_4
DOCKED: REMARK    4  A    between atoms: C_12  and  C_13
DOCKED: REMARK    5  A    between atoms: C_14  and  C_15
DOCKED: REMARK                            x       y       z     vdW  Elec       q    Type
DOCKED: REMARK                         _______ _______ _______ _____ _____    ______ ____
DOCKED: USER                              x       y       z     vdW  Elec       q    Type
DOCKED: USER                           _______ _______ _______ _____ _____    ______ ____
DOCKED: ROOT
DOCKED: ATOM      1  C   UNL     1      21.110  -9.766  -3.968 -0.40 -0.00    +0.000 A 
DOCKED: ATOM      2  C   UNL     1      20.806 -10.557  -2.851 -0.46 -0.00    +0.000 A 
DOCKED: ATOM      3  C   UNL     1      20.790  -9.996  -1.557 -0.54 -0.00    +0.000 A 
DOCKED: ATOM      4  C   UNL     1      21.100  -8.635  -1.406 -0.47 -0.00    +0.000 A 
DOCKED: ATOM      5  C   UNL     1      21.392  -7.843  -2.520 -0.41 -0.00    +0.000 A 
DOCKED: ATOM      6  C   UNL     1      21.394  -8.405  -3.797 -0.33 -0.00    +0.000 A 
DOCKED: ENDROOT
DOCKED: BRANCH   1   8
DOCKED: ATOM      7  O   UNL     1      22.462 -11.174  -5.817 -0.51 -0.00    +0.000 OA
DOCKED: ATOM      8  S   UNL     1      21.148 -10.485  -5.575 -0.52 -0.00    +0.000 S 
DOCKED: ATOM      9  O   UNL     1      20.970  -9.397  -6.594 -0.20 -0.00    +0.000 OA
DOCKED: BRANCH   8  10
DOCKED: ATOM     10  N   UNL     1      19.863 -11.642  -5.743 -0.42 -0.00    +0.000 N 
DOCKED: ATOM     11  H   UNL     1      20.102 -12.596  -5.779 -0.55 -0.00    +0.000 HD
DOCKED: BRANCH  10  12
DOCKED: ATOM     12  C   UNL     1      18.471 -11.289  -5.833 -0.34 -0.00    +0.000 A 
DOCKED: ATOM     13  C   UNL     1      17.686 -11.634  -6.951 -0.32 -0.00    +0.000 A 
DOCKED: ATOM     14  C   UNL     1      16.333 -11.282  -6.998 -0.30 -0.00    +0.000 A 
DOCKED: ATOM     15  C   UNL     1      15.752 -10.580  -5.940 -0.20 -0.00    +0.000 A 
DOCKED: ATOM     16  C   UNL     1      16.525 -10.226  -4.832 -0.21 -0.00    +0.000 A 
DOCKED: ATOM     17  C   UNL     1      17.877 -10.575  -4.779 -0.24 -0.00    +0.000 A 
DOCKED: ENDBRANCH  10  12
DOCKED: ENDBRANCH   8  10
DOCKED: ENDBRANCH   1   8
DOCKED: BRANCH   3  18
DOCKED: ATOM     18  C   UNL     1      20.500 -10.796  -0.342 -0.63 -0.00    +0.000 C 
DOCKED: ATOM     19  C   UNL     1      20.741 -10.369   0.907 -0.63 -0.00    +0.000 C 
DOCKED: BRANCH  19  20
DOCKED: ATOM     20  C   UNL     1      20.447 -11.171   2.113 -0.73 -0.00    +0.000 C 
DOCKED: ATOM     21  N   UNL     1      20.436 -10.603   3.428 -0.68 -0.00    +0.000 N 
DOCKED: ATOM     22  O   UNL     1      20.264 -11.399   4.509 -0.90 -0.00    +0.000 OA
DOCKED: ATOM     23  O   UNL     1      20.171 -12.392   1.969 -1.84 -0.00    +0.000 OA
DOCKED: ATOM     24  H   UNL     1      20.554  -9.632   3.546 -0.56 -0.00    +0.000 HD
DOCKED: ENDBRANCH  19  20
DOCKED: ENDBRANCH   3  18
DOCKED: TORSDOF 5
DOCKED: TER
DOCKED: ENDMDL
________________________________________________________________________________


	BEGINNING GENETIC ALGORITHM DOCKING 4 of 100
Run: 4 Seed: 1596118149 2132208329 [ Run 4 of 100 GA/GALS ]
Beginning LAMARCKIAN GENETIC ALGORITHM (LGA), with a maximum of 2500000 energy evaluations.

Final-Value: -12.811


	FINAL GENETIC ALGORITHM DOCKED STATE
	_______________________________________________


Detailed state:  trans 22.486 -10.111 -3.980 quatxyzw -0.091525 -0.719169 -0.521875 -0.449517 center 0.217 0.012 -0.211 ntor 5 -150.4101 -137.1484 -113.0801 -145.7485 -36.6827
State:	 22.486 -10.111  -3.980  -0.102 -0.805 -0.584 -126.575   -150.41 -137.15 -113.08 -145.75  -36.68

DOCKED: MODEL        4
DOCKED: USER    Run = 4
DOCKED: USER    DPF = ligand_dock.biased.dpf
DOCKED: USER  
DOCKED: USER    Estimated Free Energy of Binding    =  -10.41 kcal/mol  [=(1)+(2)+(3)-(4)]
DOCKED: USER    Estimated Inhibition Constant, Ki   =   23.33 nM (nanomolar)  [Temperature = 298.15 K]
DOCKED: USER    
DOCKED: USER    (1) Final Intermolecular Energy     =  -11.90 kcal/mol
DOCKED: USER        vdW + Hbond + desolv Energy     =  -11.90 kcal/mol
DOCKED: USER        Electrostatic Energy            =   +0.00 kcal/mol
DOCKED: USER    (2) Final Total Internal Energy     =   -0.91 kcal/mol
DOCKED: USER    (3) Torsional Free Energy           =   +1.49 kcal/mol
DOCKED: USER    (4) Unbound System's Energy  [=(2)] =   -0.91 kcal/mol
DOCKED: USER    
DOCKED: USER    
DOCKED: USER    NEWDPF move ligand.pdbqt
DOCKED: USER    NEWDPF about 0.217000 0.012000 -0.211000
DOCKED: USER    NEWDPF tran0 22.485999 -10.111359 -3.980225
DOCKED: USER    NEWDPF quaternion0 -0.091525 -0.719169 -0.521875 -0.449517
DOCKED: USER    NEWDPF axisangle0 -0.102460 -0.805096 -0.584228 -126.574598
DOCKED: USER    NEWDPF quat0 -0.102460 -0.805096 -0.584228 -126.574598
DOCKED: USER    NEWDPF dihe0 -150.41 -137.15 -113.08 -145.75 -36.68 
DOCKED: USER  keepresnum = 1 
DOCKED: USER  
DOCKED: REMARK  Name = 
DOCKED: REMARK  5 active torsions:
DOCKED: REMARK  status: ('A' for Active; 'I' for Inactive)
DOCKED: REMARK    1  A    between atoms: S_2  and  N_3
DOCKED: REMARK    2  A    between atoms: S_2  and  C_10
DOCKED: REMARK    3  A    between atoms: N_3  and  C_4
DOCKED: REMARK    4  A    between atoms: C_12  and  C_13
DOCKED: REMARK    5  A    between atoms: C_14  and  C_15
DOCKED: REMARK                            x       y       z     vdW  Elec       q    Type
DOCKED: REMARK                         _______ _______ _______ _____ _____    ______ ____
DOCKED: USER                              x       y       z     vdW  Elec       q    Type
DOCKED: USER                           _______ _______ _______ _____ _____    ______ ____
DOCKED: ROOT
DOCKED: ATOM      1  C   UNL     1      21.557 -10.903  -5.789 -0.43 -0.00    +0.000 A 
DOCKED: ATOM      2  C   UNL     1      21.780 -10.868  -4.405 -0.43 -0.00    +0.000 A 
DOCKED: ATOM      3  C   UNL     1      20.720 -10.599  -3.515 -0.45 -0.00    +0.000 A 
DOCKED: ATOM      4  C   UNL     1      19.441 -10.351  -4.040 -0.34 -0.00    +0.000 A 
DOCKED: ATOM      5  C   UNL     1      19.217 -10.396  -5.418 -0.29 -0.00    +0.000 A 
DOCKED: ATOM      6  C   UNL     1      20.270 -10.675  -6.291 -0.31 -0.00    +0.000 A 
DOCKED: ENDROOT
DOCKED: BRANCH   1   8
DOCKED: ATOM      7  O   UNL     1      22.388 -11.477  -8.281 -0.37 -0.00    +0.000 OA
DOCKED: ATOM      8  S   UNL     1      22.896 -11.218  -6.890 -0.58 -0.00    +0.000 S 
DOCKED: ATOM      9  O   UNL     1      23.641 -12.429  -6.407 -1.14 -0.00    +0.000 OA
DOCKED: BRANCH   8  10
DOCKED: ATOM     10  N   UNL     1      23.975  -9.858  -6.925 -0.23 -0.00    +0.000 N 
DOCKED: ATOM     11  H   UNL     1      23.639  -8.994  -6.596 -0.02 -0.00    +0.000 HD
DOCKED: BRANCH  10  12
DOCKED: ATOM     12  C   UNL     1      25.329  -9.919  -7.407 -0.23 -0.00    +0.000 A 
DOCKED: ATOM     13  C   UNL     1      26.343  -9.092  -6.886 -0.30 -0.00    +0.000 A 
DOCKED: ATOM     14  C   UNL     1      27.651  -9.186  -7.372 -0.38 -0.00    +0.000 A 
DOCKED: ATOM     15  C   UNL     1      27.960 -10.098  -8.383 -0.38 -0.00    +0.000 A 
DOCKED: ATOM     16  C   UNL     1      26.960 -10.917  -8.913 -0.34 -0.00    +0.000 A 
DOCKED: ATOM     17  C   UNL     1      25.651 -10.827  -8.430 -0.35 -0.00    +0.000 A 
DOCKED: ENDBRANCH  10  12
DOCKED: ENDBRANCH   8  10
DOCKED: ENDBRANCH   1   8
DOCKED: BRANCH   3  18
DOCKED: ATOM     18  C   UNL     1      20.909 -10.527  -2.045 -0.56 -0.00    +0.000 C 
DOCKED: ATOM     19  C   UNL     1      20.077 -11.095  -1.158 -0.29 -0.00    +0.000 C 
DOCKED: BRANCH  19  20
DOCKED: ATOM     20  C   UNL     1      20.274 -11.020   0.305 -0.66 -0.00    +0.000 C 
DOCKED: ATOM     21  N   UNL     1      20.181 -12.173   1.151 -0.65 -0.00    +0.000 N 
DOCKED: ATOM     22  O   UNL     1      20.265 -12.036   2.495 -1.99 -0.00    +0.000 OA
DOCKED: ATOM     23  O   UNL     1      20.558  -9.904   0.816 -0.65 -0.00    +0.000 OA
DOCKED: ATOM     24  H   UNL     1      20.056 -13.066   0.754 -0.52 -0.00    +0.000 HD
DOCKED: ENDBRANCH  19  20
DOCKED: ENDBRANCH   3  18
DOCKED: TORSDOF 5
DOCKED: TER
DOCKED: ENDMDL
________________________________________________________________________________


	BEGINNING GENETIC ALGORITHM DOCKING 5 of 100
Run: 5 Seed: 484818665 434919172 [ Run 5 of 100 GA/GALS ]
Beginning LAMARCKIAN GENETIC ALGORITHM (LGA), with a maximum of 2500000 energy evaluations.

Final-Value: -13.363


	FINAL GENETIC ALGORITHM DOCKED STATE
	_______________________________________________


Detailed state:  trans 21.094 -11.747 -1.305 quatxyzw 0.751543 0.441766 -0.470842 -0.135403 center 0.217 0.012 -0.211 ntor 5 89.0824 179.9809 179.9761 129.5104 177.1970
State:	 21.094 -11.747  -1.305   0.759  0.446 -0.475 -164.436     89.08  179.98  179.98  129.51  177.20

DOCKED: MODEL        5
DOCKED: USER    Run = 5
DOCKED: USER    DPF = ligand_dock.biased.dpf
DOCKED: USER  
DOCKED: USER    Estimated Free Energy of Binding    =  -10.91 kcal/mol  [=(1)+(2)+(3)-(4)]
DOCKED: USER    Estimated Inhibition Constant, Ki   =   10.11 nM (nanomolar)  [Temperature = 298.15 K]
DOCKED: USER    
DOCKED: USER    (1) Final Intermolecular Energy     =  -12.40 kcal/mol
DOCKED: USER        vdW + Hbond + desolv Energy     =  -12.40 kcal/mol
DOCKED: USER        Electrostatic Energy            =   +0.00 kcal/mol
DOCKED: USER    (2) Final Total Internal Energy     =   -0.96 kcal/mol
DOCKED: USER    (3) Torsional Free Energy           =   +1.49 kcal/mol
DOCKED: USER    (4) Unbound System's Energy  [=(2)] =   -0.96 kcal/mol
DOCKED: USER    
DOCKED: USER    
DOCKED: USER    NEWDPF move ligand.pdbqt
DOCKED: USER    NEWDPF about 0.217000 0.012000 -0.211000
DOCKED: USER    NEWDPF tran0 21.094362 -11.747287 -1.305358
DOCKED: USER    NEWDPF quaternion0 0.751543 0.441766 -0.470842 -0.135403
DOCKED: USER    NEWDPF axisangle0 0.758529 0.445872 -0.475218 -164.436158
DOCKED: USER    NEWDPF quat0 0.758529 0.445872 -0.475218 -164.436158
DOCKED: USER    NEWDPF dihe0 89.08 179.98 179.98 129.51 177.20 
DOCKED: USER  keepresnum = 1 
DOCKED: USER  
DOCKED: REMARK  Name = 
DOCKED: REMARK  5 active torsions:
DOCKED: REMARK  status: ('A' for Active; 'I' for Inactive)
DOCKED: REMARK    1  A    between atoms: S_2  and  N_3
DOCKED: REMARK    2  A    between atoms: S_2  and  C_10
DOCKED: REMARK    3  A    between atoms: N_3  and  C_4
DOCKED: REMARK    4  A    between atoms: C_12  and  C_13
DOCKED: REMARK    5  A    between atoms: C_14  and  C_15
DOCKED: REMARK                            x       y       z     vdW  Elec       q    Type
DOCKED: REMARK                         _______ _______ _______ _____ _____    ______ ____
DOCKED: USER                              x       y       z     vdW  Elec       q    Type
DOCKED: USER                           _______ _______ _______ _____ _____    ______ ____
DOCKED: ROOT
DOCKED: ATOM      1  C   UNL     1      19.364 -10.790  -0.383 -0.46 -0.00    +0.000 A 
DOCKED: ATOM      2  C   UNL     1      20.459 -10.828  -1.259 -0.42 -0.00    +0.000 A 
DOCKED: ATOM      3  C   UNL     1      20.267 -10.709  -2.651 -0.41 -0.00    +0.000 A 
DOCKED: ATOM      4  C   UNL     1      18.960 -10.568  -3.145 -0.34 -0.00    +0.000 A 
DOCKED: ATOM      5  C   UNL     1      17.870 -10.520  -2.272 -0.23 -0.00    +0.000 A 
DOCKED: ATOM      6  C   UNL     1      18.071 -10.626  -0.895 -0.25 -0.00    +0.000 A 
DOCKED: ENDROOT
DOCKED: BRANCH   1   8
DOCKED: ATOM      7  O   UNL     1      21.025 -10.590   1.722 -0.75 -0.00    +0.000 OA
DOCKED: ATOM      8  S   UNL     1      19.617 -10.962   1.352 -0.81 -0.00    +0.000 S 
DOCKED: ATOM      9  O   UNL     1      19.371 -12.394   1.734 -1.53 -0.00    +0.000 OA
DOCKED: BRANCH   8  10
DOCKED: ATOM     10  N   UNL     1      18.514  -9.941   2.221 -0.49 -0.00    +0.000 N 
DOCKED: ATOM     11  H   UNL     1      18.863  -9.103   2.601 -0.34 -0.00    +0.000 HD
DOCKED: BRANCH  10  12
DOCKED: ATOM     12  C   UNL     1      17.122 -10.246   2.419 -0.41 +0.00    +0.000 A 
DOCKED: ATOM     13  C   UNL     1      16.325  -9.528   3.331 -0.35 +0.00    +0.000 A 
DOCKED: ATOM     14  C   UNL     1      14.972  -9.847   3.490 -0.37 +0.00    +0.000 A 
DOCKED: ATOM     15  C   UNL     1      14.404 -10.885   2.749 -0.38 +0.00    +0.000 A 
DOCKED: ATOM     16  C   UNL     1      15.189 -11.610   1.849 -0.42 +0.00    +0.000 A 
DOCKED: ATOM     17  C   UNL     1      16.540 -11.295   1.686 -0.39 +0.00    +0.000 A 
DOCKED: ENDBRANCH  10  12
DOCKED: ENDBRANCH   8  10
DOCKED: ENDBRANCH   1   8
DOCKED: BRANCH   3  18
DOCKED: ATOM     18  C   UNL     1      21.389 -10.768  -3.621 -0.50 -0.00    +0.000 C 
DOCKED: ATOM     19  C   UNL     1      21.240 -11.098  -4.913 -0.53 -0.00    +0.000 C 
DOCKED: BRANCH  19  20
DOCKED: ATOM     20  C   UNL     1      22.362 -11.152  -5.873 -0.41 -0.00    +0.000 C 
DOCKED: ATOM     21  N   UNL     1      22.892 -12.389  -6.364 -0.60 -0.00    +0.000 N 
DOCKED: ATOM     22  O   UNL     1      23.987 -12.390  -7.159 -1.15 +0.00    +0.000 OA
DOCKED: ATOM     23  O   UNL     1      22.848 -10.067  -6.290 -0.35 -0.00    +0.000 OA
DOCKED: ATOM     24  H   UNL     1      22.460 -13.241  -6.121 -0.48 -0.00    +0.000 HD
DOCKED: ENDBRANCH  19  20
DOCKED: ENDBRANCH   3  18
DOCKED: TORSDOF 5
DOCKED: TER
DOCKED: ENDMDL
________________________________________________________________________________


	BEGINNING GENETIC ALGORITHM DOCKING 6 of 100
Run: 6 Seed: 2121702904 934460560 [ Run 6 of 100 GA/GALS ]
Beginning LAMARCKIAN GENETIC ALGORITHM (LGA), with a maximum of 2500000 energy evaluations.

Final-Value: -13.105


	FINAL GENETIC ALGORITHM DOCKED STATE
	_______________________________________________


Detailed state:  trans 18.149 -10.707 -1.038 quatxyzw -0.583248 0.476730 0.389876 -0.529667 center 0.217 0.012 -0.211 ntor 5 -21.5774 135.0529 -110.0961 -12.5157 46.9691
State:	 18.149 -10.707  -1.038  -0.688  0.562  0.460 -116.034    -21.58  135.05 -110.10  -12.52   46.97

DOCKED: MODEL        6
DOCKED: USER    Run = 6
DOCKED: USER    DPF = ligand_dock.biased.dpf
DOCKED: USER  
DOCKED: USER    Estimated Free Energy of Binding    =  -10.34 kcal/mol  [=(1)+(2)+(3)-(4)]
DOCKED: USER    Estimated Inhibition Constant, Ki   =   26.17 nM (nanomolar)  [Temperature = 298.15 K]
DOCKED: USER    
DOCKED: USER    (1) Final Intermolecular Energy     =  -11.84 kcal/mol
DOCKED: USER        vdW + Hbond + desolv Energy     =  -11.84 kcal/mol
DOCKED: USER        Electrostatic Energy            =   +0.00 kcal/mol
DOCKED: USER    (2) Final Total Internal Energy     =   -1.27 kcal/mol
DOCKED: USER    (3) Torsional Free Energy           =   +1.49 kcal/mol
DOCKED: USER    (4) Unbound System's Energy  [=(2)] =   -1.27 kcal/mol
DOCKED: USER    
DOCKED: USER    
DOCKED: USER    NEWDPF move ligand.pdbqt
DOCKED: USER    NEWDPF about 0.217000 0.012000 -0.211000
DOCKED: USER    NEWDPF tran0 18.148801 -10.707257 -1.038009
DOCKED: USER    NEWDPF quaternion0 -0.583248 0.476730 0.389876 -0.529667
DOCKED: USER    NEWDPF axisangle0 -0.687626 0.562045 0.459648 -116.034017
DOCKED: USER    NEWDPF quat0 -0.687626 0.562045 0.459648 -116.034017
DOCKED: USER    NEWDPF dihe0 -21.58 135.05 -110.10 -12.52 46.97 
DOCKED: USER  keepresnum = 1 
DOCKED: USER  
DOCKED: REMARK  Name = 
DOCKED: REMARK  5 active torsions:
DOCKED: REMARK  status: ('A' for Active; 'I' for Inactive)
DOCKED: REMARK    1  A    between atoms: S_2  and  N_3
DOCKED: REMARK    2  A    between atoms: S_2  and  C_10
DOCKED: REMARK    3  A    between atoms: N_3  and  C_4
DOCKED: REMARK    4  A    between atoms: C_12  and  C_13
DOCKED: REMARK    5  A    between atoms: C_14  and  C_15
DOCKED: REMARK                            x       y       z     vdW  Elec       q    Type
DOCKED: REMARK                         _______ _______ _______ _____ _____    ______ ____
DOCKED: USER                              x       y       z     vdW  Elec       q    Type
DOCKED: USER                           _______ _______ _______ _____ _____    ______ ____
DOCKED: ROOT
DOCKED: ATOM      1  C   UNL     1      20.065 -10.718   0.005 -0.55 -0.00    +0.000 A 
DOCKED: ATOM      2  C   UNL     1      19.230 -10.991  -1.087 -0.41 -0.00    +0.000 A 
DOCKED: ATOM      3  C   UNL     1      19.480 -10.404  -2.345 -0.38 -0.00    +0.000 A 
DOCKED: ATOM      4  C   UNL     1      20.571  -9.530  -2.480 -0.44 -0.00    +0.000 A 
DOCKED: ATOM      5  C   UNL     1      21.409  -9.266  -1.393 -0.50 -0.00    +0.000 A 
DOCKED: ATOM      6  C   UNL     1      21.161  -9.861  -0.155 -0.62 -0.00    +0.000 A 
DOCKED: ENDROOT
DOCKED: BRANCH   1   8
DOCKED: ATOM      7  O   UNL     1      19.199 -10.407   2.532 -0.71 -0.00    +0.000 OA
DOCKED: ATOM      8  S   UNL     1      19.727 -11.441   1.576 -0.88 -0.00    +0.000 S 
DOCKED: ATOM      9  O   UNL     1      21.001 -12.013   2.126 -1.73 -0.00    +0.000 OA
DOCKED: BRANCH   8  10
DOCKED: ATOM     10  N   UNL     1      18.554 -12.710   1.410 -0.49 -0.00    +0.000 N 
DOCKED: ATOM     11  H   UNL     1      18.838 -13.630   1.613 -0.44 -0.00    +0.000 HD
DOCKED: BRANCH  10  12
DOCKED: ATOM     12  C   UNL     1      17.193 -12.497   0.994 -0.40 +0.00    +0.000 A 
DOCKED: ATOM     13  C   UNL     1      16.646 -13.153  -0.125 -0.46 +0.00    +0.000 A 
DOCKED: ATOM     14  C   UNL     1      15.315 -12.929  -0.494 -0.49 +0.00    +0.000 A 
DOCKED: ATOM     15  C   UNL     1      14.521 -12.048   0.243 -0.42 +0.00    +0.000 A 
DOCKED: ATOM     16  C   UNL     1      15.058 -11.386   1.349 -0.37 +0.00    +0.000 A 
DOCKED: ATOM     17  C   UNL     1      16.386 -11.606   1.722 -0.39 +0.00    +0.000 A 
DOCKED: ENDBRANCH  10  12
DOCKED: ENDBRANCH   8  10
DOCKED: ENDBRANCH   1   8
DOCKED: BRANCH   3  18
DOCKED: ATOM     18  C   UNL     1      18.612 -10.641  -3.525 -0.30 -0.00    +0.000 C 
DOCKED: ATOM     19  C   UNL     1      19.080 -10.951  -4.744 -0.41 -0.00    +0.000 C 
DOCKED: BRANCH  19  20
DOCKED: ATOM     20  C   UNL     1      18.209 -11.188  -5.914 -0.38 -0.00    +0.000 C 
DOCKED: ATOM     21  N   UNL     1      16.780 -11.180  -5.820 -0.29 -0.00    +0.000 N 
DOCKED: ATOM     22  O   UNL     1      16.028 -11.506  -6.897 -0.33 -0.00    +0.000 OA
DOCKED: ATOM     23  O   UNL     1      18.750 -11.378  -7.036 -0.41 -0.00    +0.000 OA
DOCKED: ATOM     24  H   UNL     1      16.344 -10.938  -4.971 -0.01 -0.00    +0.000 HD
DOCKED: ENDBRANCH  19  20
DOCKED: ENDBRANCH   3  18
DOCKED: TORSDOF 5
DOCKED: TER
DOCKED: ENDMDL
________________________________________________________________________________


	BEGINNING GENETIC ALGORITHM DOCKING 7 of 100
Run: 7 Seed: 1204782302 544145308 [ Run 7 of 100 GA/GALS ]
Beginning LAMARCKIAN GENETIC ALGORITHM (LGA), with a maximum of 2500000 energy evaluations.

Final-Value: -13.333


	FINAL GENETIC ALGORITHM DOCKED STATE
	_______________________________________________


Detailed state:  trans 21.961 -10.925 -2.434 quatxyzw 0.465504 0.426819 0.775282 0.008327 center 0.217 0.012 -0.211 ntor 5 -13.0680 43.7615 0.9873 3.4325 147.1393
State:	 21.961 -10.925  -2.434   0.466  0.427  0.775 179.046    -13.07   43.76    0.99    3.43  147.14

DOCKED: MODEL        7
DOCKED: USER    Run = 7
DOCKED: USER    DPF = ligand_dock.biased.dpf
DOCKED: USER  
DOCKED: USER    Estimated Free Energy of Binding    =  -10.64 kcal/mol  [=(1)+(2)+(3)-(4)]
DOCKED: USER    Estimated Inhibition Constant, Ki   =   15.96 nM (nanomolar)  [Temperature = 298.15 K]
DOCKED: USER    
DOCKED: USER    (1) Final Intermolecular Energy     =  -12.13 kcal/mol
DOCKED: USER        vdW + Hbond + desolv Energy     =  -12.13 kcal/mol
DOCKED: USER        Electrostatic Energy            =   +0.00 kcal/mol
DOCKED: USER    (2) Final Total Internal Energy     =   -1.20 kcal/mol
DOCKED: USER    (3) Torsional Free Energy           =   +1.49 kcal/mol
DOCKED: USER    (4) Unbound System's Energy  [=(2)] =   -1.20 kcal/mol
DOCKED: USER    
DOCKED: USER    
DOCKED: USER    NEWDPF move ligand.pdbqt
DOCKED: USER    NEWDPF about 0.217000 0.012000 -0.211000
DOCKED: USER    NEWDPF tran0 21.960989 -10.925322 -2.433787
DOCKED: USER    NEWDPF quaternion0 0.465504 0.426819 0.775282 0.008327
DOCKED: USER    NEWDPF axisangle0 0.465520 0.426834 0.775309 179.045797
DOCKED: USER    NEWDPF quat0 0.465520 0.426834 0.775309 179.045797
DOCKED: USER    NEWDPF dihe0 -13.07 43.76 0.99 3.43 147.14 
DOCKED: USER  keepresnum = 1 
DOCKED: USER  
DOCKED: REMARK  Name = 
DOCKED: REMARK  5 active torsions:
DOCKED: REMARK  status: ('A' for Active; 'I' for Inactive)
DOCKED: REMARK    1  A    between atoms: S_2  and  N_3
DOCKED: REMARK    2  A    between atoms: S_2  and  C_10
DOCKED: REMARK    3  A    between atoms: N_3  and  C_4
DOCKED: REMARK    4  A    between atoms: C_12  and  C_13
DOCKED: REMARK    5  A    between atoms: C_14  and  C_15
DOCKED: REMARK                            x       y       z     vdW  Elec       q    Type
DOCKED: REMARK                         _______ _______ _______ _____ _____    ______ ____
DOCKED: USER                              x       y       z     vdW  Elec       q    Type
DOCKED: USER                           _______ _______ _______ _____ _____    ______ ____
DOCKED: ROOT
DOCKED: ATOM      1  C   UNL     1      21.359  -9.825  -4.219 -0.39 -0.00    +0.000 A 
DOCKED: ATOM      2  C   UNL     1      21.179 -10.278  -2.904 -0.48 -0.00    +0.000 A 
DOCKED: ATOM      3  C   UNL     1      21.085  -9.360  -1.837 -0.52 -0.00    +0.000 A 
DOCKED: ATOM      4  C   UNL     1      21.190  -7.987  -2.113 -0.42 -0.00    +0.000 A 
DOCKED: ATOM      5  C   UNL     1      21.358  -7.536  -3.425 -0.34 -0.00    +0.000 A 
DOCKED: ATOM      6  C   UNL     1      21.438  -8.451  -4.476 -0.29 -0.00    +0.000 A 
DOCKED: ENDROOT
DOCKED: BRANCH   1   8
DOCKED: ATOM      7  O   UNL     1      21.575 -12.387  -5.006 -0.63 -0.00    +0.000 OA
DOCKED: ATOM      8  S   UNL     1      21.497 -10.984  -5.539 -0.62 -0.00    +0.000 S 
DOCKED: ATOM      9  O   UNL     1      22.748 -10.683  -6.314 -0.41 -0.00    +0.000 OA
DOCKED: BRANCH   8  10
DOCKED: ATOM     10  N   UNL     1      20.125 -10.855  -6.595 -0.32 -0.00    +0.000 N 
DOCKED: ATOM     11  H   UNL     1      20.292 -10.787  -7.563 -0.05 -0.00    +0.000 HD
DOCKED: BRANCH  10  12
DOCKED: ATOM     12  C   UNL     1      18.760 -10.840  -6.141 -0.32 -0.00    +0.000 A 
DOCKED: ATOM     13  C   UNL     1      18.395 -10.290  -4.896 -0.26 -0.00    +0.000 A 
DOCKED: ATOM     14  C   UNL     1      17.056 -10.284  -4.492 -0.21 -0.00    +0.000 A 
DOCKED: ATOM     15  C   UNL     1      16.071 -10.830  -5.318 -0.22 -0.00    +0.000 A 
DOCKED: ATOM     16  C   UNL     1      16.424 -11.386  -6.549 -0.30 -0.00    +0.000 A 
DOCKED: ATOM     17  C   UNL     1      17.760 -11.394  -6.958 -0.33 -0.00    +0.000 A 
DOCKED: ENDBRANCH  10  12
DOCKED: ENDBRANCH   8  10
DOCKED: ENDBRANCH   1   8
DOCKED: BRANCH   3  18
DOCKED: ATOM     18  C   UNL     1      20.921  -9.788  -0.426 -0.67 -0.00    +0.000 C 
DOCKED: ATOM     19  C   UNL     1      20.435 -10.985  -0.063 -0.62 -0.00    +0.000 C 
DOCKED: BRANCH  19  20
DOCKED: ATOM     20  C   UNL     1      20.276 -11.406   1.345 -0.75 -0.00    +0.000 C 
DOCKED: ATOM     21  N   UNL     1      20.537 -10.523   2.443 -0.61 -0.00    +0.000 N 
DOCKED: ATOM     22  O   UNL     1      20.479 -10.986   3.714 -1.20 -0.00    +0.000 OA
DOCKED: ATOM     23  O   UNL     1      19.873 -12.576   1.580 -1.63 -0.00    +0.000 OA
DOCKED: ATOM     24  H   UNL     1      20.760  -9.579   2.273 -0.54 -0.00    +0.000 HD
DOCKED: ENDBRANCH  19  20
DOCKED: ENDBRANCH   3  18
DOCKED: TORSDOF 5
DOCKED: TER
DOCKED: ENDMDL
________________________________________________________________________________


	BEGINNING GENETIC ALGORITHM DOCKING 8 of 100
Run: 8 Seed: 1993889829 276367925 [ Run 8 of 100 GA/GALS ]
Beginning LAMARCKIAN GENETIC ALGORITHM (LGA), with a maximum of 2500000 energy evaluations.

Final-Value: -11.878


	FINAL GENETIC ALGORITHM DOCKED STATE
	_______________________________________________


Detailed state:  trans 16.002 -9.838 4.815 quatxyzw -0.687792 -0.313998 0.342775 0.557541 center 0.217 0.012 -0.211 ntor 5 -178.0343 131.6810 159.4029 -163.3739 -171.5791
State:	 16.002  -9.838   4.815  -0.829 -0.378  0.413 112.228   -178.03  131.68  159.40 -163.37 -171.58

DOCKED: MODEL        8
DOCKED: USER    Run = 8
DOCKED: USER    DPF = ligand_dock.biased.dpf
DOCKED: USER  
DOCKED: USER    Estimated Free Energy of Binding    =   -9.47 kcal/mol  [=(1)+(2)+(3)-(4)]
DOCKED: USER    Estimated Inhibition Constant, Ki   =  114.11 nM (nanomolar)  [Temperature = 298.15 K]
DOCKED: USER    
DOCKED: USER    (1) Final Intermolecular Energy     =  -10.96 kcal/mol
DOCKED: USER        vdW + Hbond + desolv Energy     =  -10.96 kcal/mol
DOCKED: USER        Electrostatic Energy            =   +0.00 kcal/mol
DOCKED: USER    (2) Final Total Internal Energy     =   -0.92 kcal/mol
DOCKED: USER    (3) Torsional Free Energy           =   +1.49 kcal/mol
DOCKED: USER    (4) Unbound System's Energy  [=(2)] =   -0.92 kcal/mol
DOCKED: USER    
DOCKED: USER    
DOCKED: USER    NEWDPF move ligand.pdbqt
DOCKED: USER    NEWDPF about 0.217000 0.012000 -0.211000
DOCKED: USER    NEWDPF tran0 16.001501 -9.838378 4.814711
DOCKED: USER    NEWDPF quaternion0 -0.687792 -0.313998 0.342775 0.557541
DOCKED: USER    NEWDPF axisangle0 -0.828516 -0.378243 0.412908 112.228176
DOCKED: USER    NEWDPF quat0 -0.828516 -0.378243 0.412908 112.228176
DOCKED: USER    NEWDPF dihe0 -178.03 131.68 159.40 -163.37 -171.58 
DOCKED: USER  keepresnum = 1 
DOCKED: USER  
DOCKED: REMARK  Name = 
DOCKED: REMARK  5 active torsions:
DOCKED: REMARK  status: ('A' for Active; 'I' for Inactive)
DOCKED: REMARK    1  A    between atoms: S_2  and  N_3
DOCKED: REMARK    2  A    between atoms: S_2  and  C_10
DOCKED: REMARK    3  A    between atoms: N_3  and  C_4
DOCKED: REMARK    4  A    between atoms: C_12  and  C_13
DOCKED: REMARK    5  A    between atoms: C_14  and  C_15
DOCKED: REMARK                            x       y       z     vdW  Elec       q    Type
DOCKED: REMARK                         _______ _______ _______ _____ _____    ______ ____
DOCKED: USER                              x       y       z     vdW  Elec       q    Type
DOCKED: USER                           _______ _______ _______ _____ _____    ______ ____
DOCKED: ROOT
DOCKED: ATOM      1  C   UNL     1      13.982  -9.428   4.098 -0.33 +0.00    +0.000 A 
DOCKED: ATOM      2  C   UNL     1      15.380  -9.417   3.986 -0.36 +0.00    +0.000 A 
DOCKED: ATOM      3  C   UNL     1      16.021 -10.121   2.945 -0.40 +0.00    +0.000 A 
DOCKED: ATOM      4  C   UNL     1      15.237 -10.846   2.034 -0.36 +0.00    +0.000 A 
DOCKED: ATOM      5  C   UNL     1      13.843 -10.849   2.140 -0.34 +0.00    +0.000 A 
DOCKED: ATOM      6  C   UNL     1      13.216 -10.139   3.165 -0.19 +0.00    +0.000 A 
DOCKED: ENDROOT
DOCKED: BRANCH   1   8
DOCKED: ATOM      7  O   UNL     1      13.961  -7.316   5.761 -0.51 +0.00    +0.000 OA
DOCKED: ATOM      8  S   UNL     1      13.196  -8.562   5.415 -0.56 +0.00    +0.000 S 
DOCKED: ATOM      9  O   UNL     1      13.148  -9.458   6.619 -0.70 +0.00    +0.000 OA
DOCKED: BRANCH   8  10
DOCKED: ATOM     10  N   UNL     1      11.577  -8.126   4.963 -0.25 +0.00    +0.000 N 
DOCKED: ATOM     11  H   UNL     1      11.412  -7.872   4.026 +0.00 +0.00    +0.000 HD
DOCKED: BRANCH  10  12
DOCKED: ATOM     12  C   UNL     1      10.464  -8.113   5.874 -0.25 +0.00    +0.000 A 
DOCKED: ATOM     13  C   UNL     1       9.734  -6.938   6.140 -0.23 +0.00    +0.000 A 
DOCKED: ATOM     14  C   UNL     1       8.651  -6.965   7.025 -0.37 +0.00    +0.000 A 
DOCKED: ATOM     15  C   UNL     1       8.290  -8.158   7.656 -0.49 +0.00    +0.000 A 
DOCKED: ATOM     16  C   UNL     1       9.014  -9.325   7.406 -0.51 +0.00    +0.000 A 
DOCKED: ATOM     17  C   UNL     1      10.096  -9.304   6.522 -0.34 +0.00    +0.000 A 
DOCKED: ENDBRANCH  10  12
DOCKED: ENDBRANCH   8  10
DOCKED: ENDBRANCH   1   8
DOCKED: BRANCH   3  18
DOCKED: ATOM     18  C   UNL     1      17.497 -10.161   2.799 -0.49 +0.00    +0.000 C 
DOCKED: ATOM     19  C   UNL     1      18.187 -11.274   2.507 -0.50 +0.00    +0.000 C 
DOCKED: BRANCH  19  20
DOCKED: ATOM     20  C   UNL     1      19.657 -11.306   2.360 -0.73 -0.00    +0.000 C 
DOCKED: ATOM     21  N   UNL     1      20.336 -12.356   1.661 -0.70 -0.00    +0.000 N 
DOCKED: ATOM     22  O   UNL     1      21.689 -12.395   1.643 -1.05 -0.00    +0.000 OA
DOCKED: ATOM     23  O   UNL     1      20.329 -10.358   2.848 -0.84 -0.00    +0.000 OA
DOCKED: ATOM     24  H   UNL     1      19.818 -13.050   1.193 -0.47 -0.00    +0.000 HD
DOCKED: ENDBRANCH  19  20
DOCKED: ENDBRANCH   3  18
DOCKED: TORSDOF 5
DOCKED: TER
DOCKED: ENDMDL
________________________________________________________________________________


	BEGINNING GENETIC ALGORITHM DOCKING 9 of 100
Run: 9 Seed: 256466430 175862136 [ Run 9 of 100 GA/GALS ]
Beginning LAMARCKIAN GENETIC ALGORITHM (LGA), with a maximum of 2500000 energy evaluations.

Final-Value: -13.163


	FINAL GENETIC ALGORITHM DOCKED STATE
	_______________________________________________


Detailed state:  trans 18.606 -11.271 -1.347 quatxyzw 0.715710 -0.338153 -0.340985 0.507090 center 0.217 0.012 -0.211 ntor 5 93.7644 -38.6100 135.1894 -27.9569 29.4600
State:	 18.606 -11.271  -1.347   0.830 -0.392 -0.396 119.060     93.76  -38.61  135.19  -27.96   29.46

DOCKED: MODEL        9
DOCKED: USER    Run = 9
DOCKED: USER    DPF = ligand_dock.biased.dpf
DOCKED: USER  
DOCKED: USER    Estimated Free Energy of Binding    =  -10.50 kcal/mol  [=(1)+(2)+(3)-(4)]
DOCKED: USER    Estimated Inhibition Constant, Ki   =   20.00 nM (nanomolar)  [Temperature = 298.15 K]
DOCKED: USER    
DOCKED: USER    (1) Final Intermolecular Energy     =  -11.99 kcal/mol
DOCKED: USER        vdW + Hbond + desolv Energy     =  -11.99 kcal/mol
DOCKED: USER        Electrostatic Energy            =   +0.00 kcal/mol
DOCKED: USER    (2) Final Total Internal Energy     =   -1.17 kcal/mol
DOCKED: USER    (3) Torsional Free Energy           =   +1.49 kcal/mol
DOCKED: USER    (4) Unbound System's Energy  [=(2)] =   -1.17 kcal/mol
DOCKED: USER    
DOCKED: USER    
DOCKED: USER    NEWDPF move ligand.pdbqt
DOCKED: USER    NEWDPF about 0.217000 0.012000 -0.211000
DOCKED: USER    NEWDPF tran0 18.605613 -11.270928 -1.346748
DOCKED: USER    NEWDPF quaternion0 0.715710 -0.338153 -0.340985 0.507090
DOCKED: USER    NEWDPF axisangle0 0.830393 -0.392338 -0.395623 119.059581
DOCKED: USER    NEWDPF quat0 0.830393 -0.392338 -0.395623 119.059581
DOCKED: USER    NEWDPF dihe0 93.76 -38.61 135.19 -27.96 29.46 
DOCKED: USER  keepresnum = 1 
DOCKED: USER  
DOCKED: REMARK  Name = 
DOCKED: REMARK  5 active torsions:
DOCKED: REMARK  status: ('A' for Active; 'I' for Inactive)
DOCKED: REMARK    1  A    between atoms: S_2  and  N_3
DOCKED: REMARK    2  A    between atoms: S_2  and  C_10
DOCKED: REMARK    3  A    between atoms: N_3  and  C_4
DOCKED: REMARK    4  A    between atoms: C_12  and  C_13
DOCKED: REMARK    5  A    between atoms: C_14  and  C_15
DOCKED: REMARK                            x       y       z     vdW  Elec       q    Type
DOCKED: REMARK                         _______ _______ _______ _____ _____    ______ ____
DOCKED: USER                              x       y       z     vdW  Elec       q    Type
DOCKED: USER                           _______ _______ _______ _____ _____    ______ ____
DOCKED: ROOT
DOCKED: ATOM      1  C   UNL     1      20.079 -10.706   0.160 -0.56 -0.00    +0.000 A 
DOCKED: ATOM      2  C   UNL     1      19.689 -11.262  -1.066 -0.29 -0.00    +0.000 A 
DOCKED: ATOM      3  C   UNL     1      20.153 -10.716  -2.281 -0.40 -0.00    +0.000 A 
DOCKED: ATOM      4  C   UNL     1      20.999  -9.596  -2.240 -0.50 -0.00    +0.000 A 
DOCKED: ATOM      5  C   UNL     1      21.396  -9.048  -1.017 -0.51 -0.00    +0.000 A 
DOCKED: ATOM      6  C   UNL     1      20.941  -9.603   0.180 -0.50 -0.00    +0.000 A 
DOCKED: ENDROOT
DOCKED: BRANCH   1   8
DOCKED: ATOM      7  O   UNL     1      18.810 -10.323   2.500 -0.64 -0.00    +0.000 OA
DOCKED: ATOM      8  S   UNL     1      19.473 -11.385   1.669 -0.85 -0.00    +0.000 S 
DOCKED: ATOM      9  O   UNL     1      20.629 -11.959   2.437 -1.87 -0.00    +0.000 OA
DOCKED: BRANCH   8  10
DOCKED: ATOM     10  N   UNL     1      18.325 -12.645   1.339 -0.50 +0.00    +0.000 N 
DOCKED: ATOM     11  H   UNL     1      18.636 -13.578   1.388 -0.38 -0.00    +0.000 HD
DOCKED: BRANCH  10  12
DOCKED: ATOM     12  C   UNL     1      16.947 -12.408   0.999 -0.42 +0.00    +0.000 A 
DOCKED: ATOM     13  C   UNL     1      16.124 -11.566   1.772 -0.40 +0.00    +0.000 A 
DOCKED: ATOM     14  C   UNL     1      14.791 -11.350   1.405 -0.37 +0.00    +0.000 A 
DOCKED: ATOM     15  C   UNL     1      14.266 -11.975   0.272 -0.41 +0.00    +0.000 A 
DOCKED: ATOM     16  C   UNL     1      15.071 -12.819  -0.495 -0.48 +0.00    +0.000 A 
DOCKED: ATOM     17  C   UNL     1      16.403 -13.036  -0.133 -0.48 +0.00    +0.000 A 
DOCKED: ENDBRANCH  10  12
DOCKED: ENDBRANCH   8  10
DOCKED: ENDBRANCH   1   8
DOCKED: BRANCH   3  18
DOCKED: ATOM     18  C   UNL     1      19.749 -11.252  -3.605 -0.45 -0.00    +0.000 C 
DOCKED: ATOM     19  C   UNL     1      18.982 -10.581  -4.478 -0.37 -0.00    +0.000 C 
DOCKED: BRANCH  19  20
DOCKED: ATOM     20  C   UNL     1      18.587 -11.120  -5.795 -0.39 -0.00    +0.000 C 
DOCKED: ATOM     21  N   UNL     1      17.234 -11.477  -6.103 -0.34 -0.00    +0.000 N 
DOCKED: ATOM     22  O   UNL     1      16.941 -12.065  -7.287 -0.46 -0.00    +0.000 OA
DOCKED: ATOM     23  O   UNL     1      19.473 -11.245  -6.683 -0.40 -0.00    +0.000 OA
DOCKED: ATOM     24  H   UNL     1      16.517 -11.295  -5.453 -0.02 -0.00    +0.000 HD
DOCKED: ENDBRANCH  19  20
DOCKED: ENDBRANCH   3  18
DOCKED: TORSDOF 5
DOCKED: TER
DOCKED: ENDMDL
________________________________________________________________________________


	BEGINNING GENETIC ALGORITHM DOCKING 10 of 100
Run: 10 Seed: 574889690 1458691802 [ Run 10 of 100 GA/GALS ]
Beginning LAMARCKIAN GENETIC ALGORITHM (LGA), with a maximum of 2500000 energy evaluations.

Final-Value: -13.396


	FINAL GENETIC ALGORITHM DOCKED STATE
	_______________________________________________


Detailed state:  trans 21.078 -11.521 -1.443 quatxyzw 0.720921 0.483014 -0.479652 -0.130015 center 0.217 0.012 -0.211 ntor 5 130.5979 -164.9719 141.7073 126.5347 173.9659
State:	 21.078 -11.521  -1.443   0.727  0.487 -0.484 -165.059    130.60 -164.97  141.71  126.53  173.97

DOCKED: MODEL       10
DOCKED: USER    Run = 10
DOCKED: USER    DPF = ligand_dock.biased.dpf
DOCKED: USER  
DOCKED: USER    Estimated Free Energy of Binding    =  -10.90 kcal/mol  [=(1)+(2)+(3)-(4)]
DOCKED: USER    Estimated Inhibition Constant, Ki   =   10.32 nM (nanomolar)  [Temperature = 298.15 K]
DOCKED: USER    
DOCKED: USER    (1) Final Intermolecular Energy     =  -12.39 kcal/mol
DOCKED: USER        vdW + Hbond + desolv Energy     =  -12.39 kcal/mol
DOCKED: USER        Electrostatic Energy            =   +0.00 kcal/mol
DOCKED: USER    (2) Final Total Internal Energy     =   -1.01 kcal/mol
DOCKED: USER    (3) Torsional Free Energy           =   +1.49 kcal/mol
DOCKED: USER    (4) Unbound System's Energy  [=(2)] =   -1.01 kcal/mol
DOCKED: USER    
DOCKED: USER    
DOCKED: USER    NEWDPF move ligand.pdbqt
DOCKED: USER    NEWDPF about 0.217000 0.012000 -0.211000
DOCKED: USER    NEWDPF tran0 21.078277 -11.521233 -1.442524
DOCKED: USER    NEWDPF quaternion0 0.720921 0.483014 -0.479652 -0.130015
DOCKED: USER    NEWDPF axisangle0 0.727093 0.487149 -0.483759 -165.059139
DOCKED: USER    NEWDPF quat0 0.727093 0.487149 -0.483759 -165.059139
DOCKED: USER    NEWDPF dihe0 130.60 -164.97 141.71 126.53 173.97 
DOCKED: USER  keepresnum = 1 
DOCKED: USER  
DOCKED: REMARK  Name = 
DOCKED: REMARK  5 active torsions:
DOCKED: REMARK  status: ('A' for Active; 'I' for Inactive)
DOCKED: REMARK    1  A    between atoms: S_2  and  N_3
DOCKED: REMARK    2  A    between atoms: S_2  and  C_10
DOCKED: REMARK    3  A    between atoms: N_3  and  C_4
DOCKED: REMARK    4  A    between atoms: C_12  and  C_13
DOCKED: REMARK    5  A    between atoms: C_14  and  C_15
DOCKED: REMARK                            x       y       z     vdW  Elec       q    Type
DOCKED: REMARK                         _______ _______ _______ _____ _____    ______ ____
DOCKED: USER                              x       y       z     vdW  Elec       q    Type
DOCKED: USER                           _______ _______ _______ _____ _____    ______ ____
DOCKED: ROOT
DOCKED: ATOM      1  C   UNL     1      19.334 -10.736  -0.393 -0.45 -0.00    +0.000 A 
DOCKED: ATOM      2  C   UNL     1      20.374 -10.659  -1.329 -0.46 -0.00    +0.000 A 
DOCKED: ATOM      3  C   UNL     1      20.092 -10.517  -2.704 -0.43 -0.00    +0.000 A 
DOCKED: ATOM      4  C   UNL     1      18.751 -10.470  -3.118 -0.32 -0.00    +0.000 A 
DOCKED: ATOM      5  C   UNL     1      17.714 -10.536  -2.183 -0.21 -0.00    +0.000 A 
DOCKED: ATOM      6  C   UNL     1      18.004 -10.665  -0.824 -0.26 -0.00    +0.000 A 
DOCKED: ENDROOT
DOCKED: BRANCH   1   8
DOCKED: ATOM      7  O   UNL     1      21.121 -10.534   1.606 -0.57 -0.00    +0.000 OA
DOCKED: ATOM      8  S   UNL     1      19.702 -10.937   1.319 -0.82 -0.00    +0.000 S 
DOCKED: ATOM      9  O   UNL     1      19.518 -12.381   1.684 -1.62 -0.00    +0.000 OA
DOCKED: BRANCH   8  10
DOCKED: ATOM     10  N   UNL     1      18.632  -9.963   2.279 -0.51 -0.00    +0.000 N 
DOCKED: ATOM     11  H   UNL     1      18.995  -9.146   2.691 -0.40 -0.00    +0.000 HD
DOCKED: BRANCH  10  12
DOCKED: ATOM     12  C   UNL     1      17.247 -10.279   2.508 -0.42 +0.00    +0.000 A 
DOCKED: ATOM     13  C   UNL     1      16.401  -9.426   3.243 -0.37 +0.00    +0.000 A 
DOCKED: ATOM     14  C   UNL     1      15.056  -9.761   3.437 -0.37 +0.00    +0.000 A 
DOCKED: ATOM     15  C   UNL     1      14.545 -10.948   2.907 -0.40 +0.00    +0.000 A 
DOCKED: ATOM     16  C   UNL     1      15.379 -11.804   2.184 -0.43 +0.00    +0.000 A 
DOCKED: ATOM     17  C   UNL     1      16.722 -11.474   1.987 -0.36 +0.00    +0.000 A 
DOCKED: ENDBRANCH  10  12
DOCKED: ENDBRANCH   8  10
DOCKED: ENDBRANCH   1   8
DOCKED: BRANCH   3  18
DOCKED: ATOM     18  C   UNL     1      21.155 -10.456  -3.737 -0.52 -0.00    +0.000 C 
DOCKED: ATOM     19  C   UNL     1      21.279 -11.347  -4.733 -0.51 -0.00    +0.000 C 
DOCKED: BRANCH  19  20
DOCKED: ATOM     20  C   UNL     1      22.339 -11.278  -5.759 -0.42 -0.00    +0.000 C 
DOCKED: ATOM     21  N   UNL     1      22.890 -12.449  -6.373 -0.58 -0.00    +0.000 N 
DOCKED: ATOM     22  O   UNL     1      23.932 -12.340  -7.230 -1.10 -0.00    +0.000 OA
DOCKED: ATOM     23  O   UNL     1      22.751 -10.143  -6.122 -0.36 -0.00    +0.000 OA
DOCKED: ATOM     24  H   UNL     1      22.511 -13.335  -6.170 -0.48 -0.00    +0.000 HD
DOCKED: ENDBRANCH  19  20
DOCKED: ENDBRANCH   3  18
DOCKED: TORSDOF 5
DOCKED: TER
DOCKED: ENDMDL
________________________________________________________________________________


	BEGINNING GENETIC ALGORITHM DOCKING 11 of 100
Run: 11 Seed: 815719514 389810268 [ Run 11 of 100 GA/GALS ]
Beginning LAMARCKIAN GENETIC ALGORITHM (LGA), with a maximum of 2500000 energy evaluations.

Final-Value: -13.549


	FINAL GENETIC ALGORITHM DOCKED STATE
	_______________________________________________


Detailed state:  trans 21.908 -11.373 -2.394 quatxyzw 0.504019 0.423754 0.751430 0.041846 center 0.217 0.012 -0.211 ntor 5 37.1446 -141.3726 -40.1978 -27.9100 177.0804
State:	 21.908 -11.373  -2.394   0.504  0.424  0.752 175.203     37.14 -141.37  -40.20  -27.91  177.08

DOCKED: MODEL       11
DOCKED: USER    Run = 11
DOCKED: USER    DPF = ligand_dock.biased.dpf
DOCKED: USER  
DOCKED: USER    Estimated Free Energy of Binding    =  -10.94 kcal/mol  [=(1)+(2)+(3)-(4)]
DOCKED: USER    Estimated Inhibition Constant, Ki   =    9.50 nM (nanomolar)  [Temperature = 298.15 K]
DOCKED: USER    
DOCKED: USER    (1) Final Intermolecular Energy     =  -12.44 kcal/mol
DOCKED: USER        vdW + Hbond + desolv Energy     =  -12.44 kcal/mol
DOCKED: USER        Electrostatic Energy            =   +0.00 kcal/mol
DOCKED: USER    (2) Final Total Internal Energy     =   -1.11 kcal/mol
DOCKED: USER    (3) Torsional Free Energy           =   +1.49 kcal/mol
DOCKED: USER    (4) Unbound System's Energy  [=(2)] =   -1.11 kcal/mol
DOCKED: USER    
DOCKED: USER    
DOCKED: USER    NEWDPF move ligand.pdbqt
DOCKED: USER    NEWDPF about 0.217000 0.012000 -0.211000
DOCKED: USER    NEWDPF tran0 21.907994 -11.372567 -2.394215
DOCKED: USER    NEWDPF quaternion0 0.504019 0.423754 0.751430 0.041846
DOCKED: USER    NEWDPF axisangle0 0.504461 0.424125 0.752089 175.203427
DOCKED: USER    NEWDPF quat0 0.504461 0.424125 0.752089 175.203427
DOCKED: USER    NEWDPF dihe0 37.14 -141.37 -40.20 -27.91 177.08 
DOCKED: USER  keepresnum = 1 
DOCKED: USER  
DOCKED: REMARK  Name = 
DOCKED: REMARK  5 active torsions:
DOCKED: REMARK  status: ('A' for Active; 'I' for Inactive)
DOCKED: REMARK    1  A    between atoms: S_2  and  N_3
DOCKED: REMARK    2  A    between atoms: S_2  and  C_10
DOCKED: REMARK    3  A    between atoms: N_3  and  C_4
DOCKED: REMARK    4  A    between atoms: C_12  and  C_13
DOCKED: REMARK    5  A    between atoms: C_14  and  C_15
DOCKED: REMARK                            x       y       z     vdW  Elec       q    Type
DOCKED: REMARK                         _______ _______ _______ _____ _____    ______ ____
DOCKED: USER                              x       y       z     vdW  Elec       q    Type
DOCKED: USER                           _______ _______ _______ _____ _____    ______ ____
DOCKED: ROOT
DOCKED: ATOM      1  C   UNL     1      21.095 -10.258  -4.084 -0.43 -0.00    +0.000 A 
DOCKED: ATOM      2  C   UNL     1      21.069 -10.732  -2.765 -0.40 -0.00    +0.000 A 
DOCKED: ATOM      3  C   UNL     1      21.079  -9.831  -1.680 -0.55 -0.00    +0.000 A 
DOCKED: ATOM      4  C   UNL     1      21.131  -8.453  -1.944 -0.45 -0.00    +0.000 A 
DOCKED: ATOM      5  C   UNL     1      21.146  -7.981  -3.259 -0.36 -0.00    +0.000 A 
DOCKED: ATOM      6  C   UNL     1      21.123  -8.879  -4.327 -0.31 -0.00    +0.000 A 
DOCKED: ENDROOT
DOCKED: BRANCH   1   8
DOCKED: ATOM      7  O   UNL     1      20.545 -12.724  -5.004 -0.77 -0.00    +0.000 OA
DOCKED: ATOM      8  S   UNL     1      21.105 -11.396  -5.430 -0.62 -0.00    +0.000 S 
DOCKED: ATOM      9  O   UNL     1      22.522 -11.585  -5.889 -0.59 -0.00    +0.000 OA
DOCKED: BRANCH   8  10
DOCKED: ATOM     10  N   UNL     1      20.155 -10.776  -6.745 -0.30 -0.00    +0.000 N 
DOCKED: ATOM     11  H   UNL     1      20.628 -10.344  -7.492 -0.01 -0.00    +0.000 HD
DOCKED: BRANCH  10  12
DOCKED: ATOM     12  C   UNL     1      18.720 -10.854  -6.806 -0.31 -0.00    +0.000 A 
DOCKED: ATOM     13  C   UNL     1      18.027 -10.868  -8.033 -0.24 -0.00    +0.000 A 
DOCKED: ATOM     14  C   UNL     1      16.631 -10.955  -8.054 -0.24 -0.00    +0.000 A 
DOCKED: ATOM     15  C   UNL     1      15.914 -11.023  -6.858 -0.24 -0.00    +0.000 A 
DOCKED: ATOM     16  C   UNL     1      16.591 -11.002  -5.637 -0.24 -0.00    +0.000 A 
DOCKED: ATOM     17  C   UNL     1      17.986 -10.915  -5.610 -0.30 -0.00    +0.000 A 
DOCKED: ENDBRANCH  10  12
DOCKED: ENDBRANCH   8  10
DOCKED: ENDBRANCH   1   8
DOCKED: BRANCH   3  18
DOCKED: ATOM     18  C   UNL     1      21.078 -10.282  -0.266 -0.70 -0.00    +0.000 C 
DOCKED: ATOM     19  C   UNL     1      20.079 -10.983   0.292 -0.65 -0.00    +0.000 C 
DOCKED: BRANCH  19  20
DOCKED: ATOM     20  C   UNL     1      20.087 -11.431   1.700 -0.75 -0.00    +0.000 C 
DOCKED: ATOM     21  N   UNL     1      20.270 -10.522   2.793 -0.66 -0.00    +0.000 N 
DOCKED: ATOM     22  O   UNL     1      20.374 -10.994   4.057 -1.10 -0.00    +0.000 OA
DOCKED: ATOM     23  O   UNL     1      19.901 -12.653   1.942 -1.66 -0.00    +0.000 OA
DOCKED: ATOM     24  H   UNL     1      20.320  -9.553   2.624 -0.53 -0.00    +0.000 HD
DOCKED: ENDBRANCH  19  20
DOCKED: ENDBRANCH   3  18
DOCKED: TORSDOF 5
DOCKED: TER
DOCKED: ENDMDL
________________________________________________________________________________


	BEGINNING GENETIC ALGORITHM DOCKING 12 of 100
Run: 12 Seed: 2058207665 176707625 [ Run 12 of 100 GA/GALS ]
Beginning LAMARCKIAN GENETIC ALGORITHM (LGA), with a maximum of 2500000 energy evaluations.

Final-Value: -13.775


	FINAL GENETIC ALGORITHM DOCKED STATE
	_______________________________________________


Detailed state:  trans 21.858 -11.397 -2.374 quatxyzw 0.542722 0.371471 0.752422 0.036383 center 0.217 0.012 -0.211 ntor 5 78.4372 76.6728 -62.5370 149.1961 -124.1209
State:	 21.858 -11.397  -2.374   0.543  0.372  0.753 175.830     78.44   76.67  -62.54  149.20 -124.12

DOCKED: MODEL       12
DOCKED: USER    Run = 12
DOCKED: USER    DPF = ligand_dock.biased.dpf
DOCKED: USER  
DOCKED: USER    Estimated Free Energy of Binding    =  -11.27 kcal/mol  [=(1)+(2)+(3)-(4)]
DOCKED: USER    Estimated Inhibition Constant, Ki   =    5.47 nM (nanomolar)  [Temperature = 298.15 K]
DOCKED: USER    
DOCKED: USER    (1) Final Intermolecular Energy     =  -12.76 kcal/mol
DOCKED: USER        vdW + Hbond + desolv Energy     =  -12.76 kcal/mol
DOCKED: USER        Electrostatic Energy            =   +0.00 kcal/mol
DOCKED: USER    (2) Final Total Internal Energy     =   -1.01 kcal/mol
DOCKED: USER    (3) Torsional Free Energy           =   +1.49 kcal/mol
DOCKED: USER    (4) Unbound System's Energy  [=(2)] =   -1.01 kcal/mol
DOCKED: USER    
DOCKED: USER    
DOCKED: USER    NEWDPF move ligand.pdbqt
DOCKED: USER    NEWDPF about 0.217000 0.012000 -0.211000
DOCKED: USER    NEWDPF tran0 21.858469 -11.397418 -2.374400
DOCKED: USER    NEWDPF quaternion0 0.542722 0.371471 0.752422 0.036383
DOCKED: USER    NEWDPF axisangle0 0.543081 0.371717 0.752921 175.829877
DOCKED: USER    NEWDPF quat0 0.543081 0.371717 0.752921 175.829877
DOCKED: USER    NEWDPF dihe0 78.44 76.67 -62.54 149.20 -124.12 
DOCKED: USER  keepresnum = 1 
DOCKED: USER  
DOCKED: REMARK  Name = 
DOCKED: REMARK  5 active torsions:
DOCKED: REMARK  status: ('A' for Active; 'I' for Inactive)
DOCKED: REMARK    1  A    between atoms: S_2  and  N_3
DOCKED: REMARK    2  A    between atoms: S_2  and  C_10
DOCKED: REMARK    3  A    between atoms: N_3  and  C_4
DOCKED: REMARK    4  A    between atoms: C_12  and  C_13
DOCKED: REMARK    5  A    between atoms: C_14  and  C_15
DOCKED: REMARK                            x       y       z     vdW  Elec       q    Type
DOCKED: REMARK                         _______ _______ _______ _____ _____    ______ ____
DOCKED: USER                              x       y       z     vdW  Elec       q    Type
DOCKED: USER                           _______ _______ _______ _____ _____    ______ ____
DOCKED: ROOT
DOCKED: ATOM      1  C   UNL     1      21.066 -10.092  -3.933 -0.42 -0.00    +0.000 A 
DOCKED: ATOM      2  C   UNL     1      21.066 -10.657  -2.650 -0.43 -0.00    +0.000 A 
DOCKED: ATOM      3  C   UNL     1      21.220  -9.843  -1.508 -0.56 -0.00    +0.000 A 
DOCKED: ATOM      4  C   UNL     1      21.389  -8.460  -1.681 -0.45 -0.00    +0.000 A 
DOCKED: ATOM      5  C   UNL     1      21.379  -7.896  -2.960 -0.38 -0.00    +0.000 A 
DOCKED: ATOM      6  C   UNL     1      21.214  -8.708  -4.083 -0.33 -0.00    +0.000 A 
DOCKED: ENDROOT
DOCKED: BRANCH   1   8
DOCKED: ATOM      7  O   UNL     1      19.450 -11.462  -5.589 -0.48 -0.00    +0.000 OA
DOCKED: ATOM      8  S   UNL     1      20.895 -11.125  -5.351 -0.62 -0.00    +0.000 S 
DOCKED: ATOM      9  O   UNL     1      21.663 -12.394  -5.117 -0.68 -0.00    +0.000 OA
DOCKED: BRANCH   8  10
DOCKED: ATOM     10  N   UNL     1      21.529 -10.323  -6.754 -0.29 -0.00    +0.000 N 
DOCKED: ATOM     11  H   UNL     1      20.944  -9.687  -7.226 +0.00 -0.00    +0.000 HD
DOCKED: BRANCH  10  12
DOCKED: ATOM     12  C   UNL     1      22.856 -10.533  -7.269 -0.32 -0.00    +0.000 A 
DOCKED: ATOM     13  C   UNL     1      23.268 -11.778  -7.783 -0.43 -0.00    +0.000 A 
DOCKED: ATOM     14  C   UNL     1      24.563 -11.941  -8.284 -0.42 -0.00    +0.000 A 
DOCKED: ATOM     15  C   UNL     1      25.461 -10.872  -8.271 -0.35 -0.00    +0.000 A 
DOCKED: ATOM     16  C   UNL     1      25.066  -9.636  -7.755 -0.27 -0.00    +0.000 A 
DOCKED: ATOM     17  C   UNL     1      23.772  -9.467  -7.254 -0.24 -0.00    +0.000 A 
DOCKED: ENDBRANCH  10  12
DOCKED: ENDBRANCH   8  10
DOCKED: ENDBRANCH   1   8
DOCKED: BRANCH   3  18
DOCKED: ATOM     18  C   UNL     1      21.252 -10.394  -0.131 -0.71 -0.00    +0.000 C 
DOCKED: ATOM     19  C   UNL     1      20.153 -10.644   0.597 -0.65 -0.00    +0.000 C 
DOCKED: BRANCH  19  20
DOCKED: ATOM     20  C   UNL     1      20.192 -11.196   1.967 -0.75 -0.00    +0.000 C 
DOCKED: ATOM     21  N   UNL     1      20.122 -10.363   3.131 -0.63 -0.00    +0.000 N 
DOCKED: ATOM     22  O   UNL     1      20.268 -10.906   4.363 -0.94 -0.00    +0.000 OA
DOCKED: ATOM     23  O   UNL     1      20.265 -12.446   2.109 -1.83 -0.00    +0.000 OA
DOCKED: ATOM     24  H   UNL     1      19.968  -9.395   3.036 -0.57 -0.00    +0.000 HD
DOCKED: ENDBRANCH  19  20
DOCKED: ENDBRANCH   3  18
DOCKED: TORSDOF 5
DOCKED: TER
DOCKED: ENDMDL
________________________________________________________________________________


	BEGINNING GENETIC ALGORITHM DOCKING 13 of 100
Run: 13 Seed: 1262448737 1185245263 [ Run 13 of 100 GA/GALS ]
Beginning LAMARCKIAN GENETIC ALGORITHM (LGA), with a maximum of 2500000 energy evaluations.

Final-Value: -13.704


	FINAL GENETIC ALGORITHM DOCKED STATE
	_______________________________________________


Detailed state:  trans 21.446 -11.428 -2.354 quatxyzw 0.596601 0.347638 0.723314 -0.005579 center 0.217 0.012 -0.211 ntor 5 72.5731 8.7827 -44.9247 -9.6867 -65.3382
State:	 21.446 -11.428  -2.354   0.597  0.348  0.723 -179.361     72.57    8.78  -44.92   -9.69  -65.34

DOCKED: MODEL       13
DOCKED: USER    Run = 13
DOCKED: USER    DPF = ligand_dock.biased.dpf
DOCKED: USER  
DOCKED: USER    Estimated Free Energy of Binding    =  -11.17 kcal/mol  [=(1)+(2)+(3)-(4)]
DOCKED: USER    Estimated Inhibition Constant, Ki   =    6.53 nM (nanomolar)  [Temperature = 298.15 K]
DOCKED: USER    
DOCKED: USER    (1) Final Intermolecular Energy     =  -12.66 kcal/mol
DOCKED: USER        vdW + Hbond + desolv Energy     =  -12.66 kcal/mol
DOCKED: USER        Electrostatic Energy            =   +0.00 kcal/mol
DOCKED: USER    (2) Final Total Internal Energy     =   -1.05 kcal/mol
DOCKED: USER    (3) Torsional Free Energy           =   +1.49 kcal/mol
DOCKED: USER    (4) Unbound System's Energy  [=(2)] =   -1.05 kcal/mol
DOCKED: USER    
DOCKED: USER    
DOCKED: USER    NEWDPF move ligand.pdbqt
DOCKED: USER    NEWDPF about 0.217000 0.012000 -0.211000
DOCKED: USER    NEWDPF tran0 21.445816 -11.428184 -2.354372
DOCKED: USER    NEWDPF quaternion0 0.596601 0.347638 0.723314 -0.005579
DOCKED: USER    NEWDPF axisangle0 0.596611 0.347643 0.723325 -179.360657
DOCKED: USER    NEWDPF quat0 0.596611 0.347643 0.723325 -179.360657
DOCKED: USER    NEWDPF dihe0 72.57 8.78 -44.92 -9.69 -65.34 
DOCKED: USER  keepresnum = 1 
DOCKED: USER  
DOCKED: REMARK  Name = 
DOCKED: REMARK  5 active torsions:
DOCKED: REMARK  status: ('A' for Active; 'I' for Inactive)
DOCKED: REMARK    1  A    between atoms: S_2  and  N_3
DOCKED: REMARK    2  A    between atoms: S_2  and  C_10
DOCKED: REMARK    3  A    between atoms: N_3  and  C_4
DOCKED: REMARK    4  A    between atoms: C_12  and  C_13
DOCKED: REMARK    5  A    between atoms: C_14  and  C_15
DOCKED: REMARK                            x       y       z     vdW  Elec       q    Type
DOCKED: REMARK                         _______ _______ _______ _____ _____    ______ ____
DOCKED: USER                              x       y       z     vdW  Elec       q    Type
DOCKED: USER                           _______ _______ _______ _____ _____    ______ ____
DOCKED: ROOT
DOCKED: ATOM      1  C   UNL     1      20.693 -10.080  -3.896 -0.41 -0.00    +0.000 A 
DOCKED: ATOM      2  C   UNL     1      20.732 -10.601  -2.595 -0.45 -0.00    +0.000 A 
DOCKED: ATOM      3  C   UNL     1      21.083  -9.780  -1.503 -0.56 -0.00    +0.000 A 
DOCKED: ATOM      4  C   UNL     1      21.408  -8.435  -1.745 -0.44 -0.00    +0.000 A 
DOCKED: ATOM      5  C   UNL     1      21.360  -7.913  -3.040 -0.38 -0.00    +0.000 A 
DOCKED: ATOM      6  C   UNL     1      20.999  -8.730  -4.112 -0.32 -0.00    +0.000 A 
DOCKED: ENDROOT
DOCKED: BRANCH   1   8
DOCKED: ATOM      7  O   UNL     1      19.392 -10.396  -6.228 -0.29 -0.00    +0.000 OA
DOCKED: ATOM      8  S   UNL     1      20.274 -11.123  -5.252 -0.59 -0.00    +0.000 S 
DOCKED: ATOM      9  O   UNL     1      19.540 -12.323  -4.726 -0.59 -0.00    +0.000 OA
DOCKED: BRANCH   8  10
DOCKED: ATOM     10  N   UNL     1      21.713 -11.647  -6.070 -0.42 -0.00    +0.000 N 
DOCKED: ATOM     11  H   UNL     1      21.908 -12.612  -6.090 -0.57 -0.00    +0.000 HD
DOCKED: BRANCH  10  12
DOCKED: ATOM     12  C   UNL     1      22.637 -10.756  -6.721 -0.35 -0.00    +0.000 A 
DOCKED: ATOM     13  C   UNL     1      22.402  -9.369  -6.801 -0.23 -0.00    +0.000 A 
DOCKED: ATOM     14  C   UNL     1      23.328  -8.533  -7.433 -0.17 -0.00    +0.000 A 
DOCKED: ATOM     15  C   UNL     1      24.488  -9.068  -7.996 -0.20 -0.00    +0.000 A 
DOCKED: ATOM     16  C   UNL     1      24.725 -10.442  -7.930 -0.32 -0.00    +0.000 A 
DOCKED: ATOM     17  C   UNL     1      23.804 -11.283  -7.299 -0.37 -0.00    +0.000 A 
DOCKED: ENDBRANCH  10  12
DOCKED: ENDBRANCH   8  10
DOCKED: ENDBRANCH   1   8
DOCKED: BRANCH   3  18
DOCKED: ATOM     18  C   UNL     1      21.163 -10.289  -0.112 -0.70 -0.00    +0.000 C 
DOCKED: ATOM     19  C   UNL     1      20.097 -10.695   0.595 -0.65 -0.00    +0.000 C 
DOCKED: BRANCH  19  20
DOCKED: ATOM     20  C   UNL     1      20.185 -11.204   1.980 -0.75 -0.00    +0.000 C 
DOCKED: ATOM     21  N   UNL     1      20.072 -10.345   3.121 -0.62 -0.00    +0.000 N 
DOCKED: ATOM     22  O   UNL     1      20.264 -10.842   4.365 -0.89 -0.00    +0.000 OA
DOCKED: ATOM     23  O   UNL     1      20.340 -12.442   2.156 -1.82 -0.00    +0.000 OA
DOCKED: ATOM     24  H   UNL     1      19.855  -9.392   3.000 -0.57 -0.00    +0.000 HD
DOCKED: ENDBRANCH  19  20
DOCKED: ENDBRANCH   3  18
DOCKED: TORSDOF 5
DOCKED: TER
DOCKED: ENDMDL
________________________________________________________________________________


	BEGINNING GENETIC ALGORITHM DOCKING 14 of 100
Run: 14 Seed: 175963666 1044668754 [ Run 14 of 100 GA/GALS ]
Beginning LAMARCKIAN GENETIC ALGORITHM (LGA), with a maximum of 2500000 energy evaluations.

Final-Value: -13.269


	FINAL GENETIC ALGORITHM DOCKED STATE
	_______________________________________________


Detailed state:  trans 18.268 -10.916 -1.204 quatxyzw 0.642564 -0.413938 -0.359393 0.535353 center 0.217 0.012 -0.211 ntor 5 -18.1281 151.7421 -130.5479 -11.9266 39.2664
State:	 18.268 -10.916  -1.204   0.761 -0.490 -0.426 115.264    -18.13  151.74 -130.55  -11.93   39.27

DOCKED: MODEL       14
DOCKED: USER    Run = 14
DOCKED: USER    DPF = ligand_dock.biased.dpf
DOCKED: USER  
DOCKED: USER    Estimated Free Energy of Binding    =  -10.54 kcal/mol  [=(1)+(2)+(3)-(4)]
DOCKED: USER    Estimated Inhibition Constant, Ki   =   18.90 nM (nanomolar)  [Temperature = 298.15 K]
DOCKED: USER    
DOCKED: USER    (1) Final Intermolecular Energy     =  -12.03 kcal/mol
DOCKED: USER        vdW + Hbond + desolv Energy     =  -12.03 kcal/mol
DOCKED: USER        Electrostatic Energy            =   +0.00 kcal/mol
DOCKED: USER    (2) Final Total Internal Energy     =   -1.24 kcal/mol
DOCKED: USER    (3) Torsional Free Energy           =   +1.49 kcal/mol
DOCKED: USER    (4) Unbound System's Energy  [=(2)] =   -1.24 kcal/mol
DOCKED: USER    
DOCKED: USER    
DOCKED: USER    NEWDPF move ligand.pdbqt
DOCKED: USER    NEWDPF about 0.217000 0.012000 -0.211000
DOCKED: USER    NEWDPF tran0 18.268155 -10.916234 -1.204348
DOCKED: USER    NEWDPF quaternion0 0.642564 -0.413938 -0.359393 0.535353
DOCKED: USER    NEWDPF axisangle0 0.760765 -0.490084 -0.425505 115.264303
DOCKED: USER    NEWDPF quat0 0.760765 -0.490084 -0.425505 115.264303
DOCKED: USER    NEWDPF dihe0 -18.13 151.74 -130.55 -11.93 39.27 
DOCKED: USER  keepresnum = 1 
DOCKED: USER  
DOCKED: REMARK  Name = 
DOCKED: REMARK  5 active torsions:
DOCKED: REMARK  status: ('A' for Active; 'I' for Inactive)
DOCKED: REMARK    1  A    between atoms: S_2  and  N_3
DOCKED: REMARK    2  A    between atoms: S_2  and  C_10
DOCKED: REMARK    3  A    between atoms: N_3  and  C_4
DOCKED: REMARK    4  A    between atoms: C_12  and  C_13
DOCKED: REMARK    5  A    between atoms: C_14  and  C_15
DOCKED: REMARK                            x       y       z     vdW  Elec       q    Type
DOCKED: REMARK                         _______ _______ _______ _____ _____    ______ ____
DOCKED: USER                              x       y       z     vdW  Elec       q    Type
DOCKED: USER                           _______ _______ _______ _____ _____    ______ ____
DOCKED: ROOT
DOCKED: ATOM      1  C   UNL     1      19.993 -10.714   0.116 -0.55 -0.00    +0.000 A 
DOCKED: ATOM      2  C   UNL     1      19.365 -11.097  -1.077 -0.40 -0.00    +0.000 A 
DOCKED: ATOM      3  C   UNL     1      19.753 -10.526  -2.307 -0.41 -0.00    +0.000 A 
DOCKED: ATOM      4  C   UNL     1      20.768  -9.556  -2.312 -0.48 -0.00    +0.000 A 
DOCKED: ATOM      5  C   UNL     1      21.402  -9.181  -1.124 -0.52 -0.00    +0.000 A 
DOCKED: ATOM      6  C   UNL     1      21.019  -9.761   0.087 -0.60 -0.00    +0.000 A 
DOCKED: ENDROOT
DOCKED: BRANCH   1   8
DOCKED: ATOM      7  O   UNL     1      18.889 -10.368   2.544 -0.66 -0.00    +0.000 OA
DOCKED: ATOM      8  S   UNL     1      19.482 -11.419   1.648 -0.86 -0.00    +0.000 S 
DOCKED: ATOM      9  O   UNL     1      20.680 -12.021   2.324 -1.88 -0.00    +0.000 OA
DOCKED: BRANCH   8  10
DOCKED: ATOM     10  N   UNL     1      18.299 -12.660   1.370 -0.49 +0.00    +0.000 N 
DOCKED: ATOM     11  H   UNL     1      18.535 -13.585   1.610 -0.35 -0.00    +0.000 HD
DOCKED: BRANCH  10  12
DOCKED: ATOM     12  C   UNL     1      16.997 -12.417   0.809 -0.44 +0.00    +0.000 A 
DOCKED: ATOM     13  C   UNL     1      16.414 -13.293  -0.128 -0.44 +0.00    +0.000 A 
DOCKED: ATOM     14  C   UNL     1      15.142 -13.029  -0.645 -0.46 +0.00    +0.000 A 
DOCKED: ATOM     15  C   UNL     1      14.441 -11.891  -0.239 -0.40 +0.00    +0.000 A 
DOCKED: ATOM     16  C   UNL     1      15.014 -11.012   0.682 -0.30 +0.00    +0.000 A 
DOCKED: ATOM     17  C   UNL     1      16.285 -11.271   1.202 -0.37 +0.00    +0.000 A 
DOCKED: ENDBRANCH  10  12
DOCKED: ENDBRANCH   8  10
DOCKED: ENDBRANCH   1   8
DOCKED: BRANCH   3  18
DOCKED: ATOM     18  C   UNL     1      19.103 -10.879  -3.593 -0.39 -0.00    +0.000 C 
DOCKED: ATOM     19  C   UNL     1      19.715 -10.793  -4.785 -0.43 -0.00    +0.000 C 
DOCKED: BRANCH  19  20
DOCKED: ATOM     20  C   UNL     1      19.061 -11.149  -6.062 -0.39 -0.00    +0.000 C 
DOCKED: ATOM     21  N   UNL     1      17.710 -11.622  -6.126 -0.37 -0.00    +0.000 N 
DOCKED: ATOM     22  O   UNL     1      17.192 -12.034  -7.307 -0.47 -0.00    +0.000 OA
DOCKED: ATOM     23  O   UNL     1      19.713 -11.004  -7.130 -0.35 -0.00    +0.000 OA
DOCKED: ATOM     24  H   UNL     1      17.159 -11.648  -5.311 -0.03 -0.00    +0.000 HD
DOCKED: ENDBRANCH  19  20
DOCKED: ENDBRANCH   3  18
DOCKED: TORSDOF 5
DOCKED: TER
DOCKED: ENDMDL
________________________________________________________________________________


	BEGINNING GENETIC ALGORITHM DOCKING 15 of 100
Run: 15 Seed: 1727311732 1693032209 [ Run 15 of 100 GA/GALS ]
Beginning LAMARCKIAN GENETIC ALGORITHM (LGA), with a maximum of 2500000 energy evaluations.

Final-Value: -12.716


	FINAL GENETIC ALGORITHM DOCKED STATE
	_______________________________________________


Detailed state:  trans 16.902 -9.138 4.142 quatxyzw -0.491273 -0.345610 0.513348 0.612926 center 0.217 0.012 -0.211 ntor 5 15.6660 134.4152 111.1934 163.4497 44.4610
State:	 16.902  -9.138   4.142  -0.622 -0.437  0.650 104.397     15.67  134.42  111.19  163.45   44.46

DOCKED: MODEL       15
DOCKED: USER    Run = 15
DOCKED: USER    DPF = ligand_dock.biased.dpf
DOCKED: USER  
DOCKED: USER    Estimated Free Energy of Binding    =  -10.19 kcal/mol  [=(1)+(2)+(3)-(4)]
DOCKED: USER    Estimated Inhibition Constant, Ki   =   34.20 nM (nanomolar)  [Temperature = 298.15 K]
DOCKED: USER    
DOCKED: USER    (1) Final Intermolecular Energy     =  -11.68 kcal/mol
DOCKED: USER        vdW + Hbond + desolv Energy     =  -11.68 kcal/mol
DOCKED: USER        Electrostatic Energy            =   +0.00 kcal/mol
DOCKED: USER    (2) Final Total Internal Energy     =   -1.04 kcal/mol
DOCKED: USER    (3) Torsional Free Energy           =   +1.49 kcal/mol
DOCKED: USER    (4) Unbound System's Energy  [=(2)] =   -1.04 kcal/mol
DOCKED: USER    
DOCKED: USER    
DOCKED: USER    NEWDPF move ligand.pdbqt
DOCKED: USER    NEWDPF about 0.217000 0.012000 -0.211000
DOCKED: USER    NEWDPF tran0 16.901535 -9.138072 4.142056
DOCKED: USER    NEWDPF quaternion0 -0.491273 -0.345610 0.513348 0.612926
DOCKED: USER    NEWDPF axisangle0 -0.621755 -0.437403 0.649692 104.397215
DOCKED: USER    NEWDPF quat0 -0.621755 -0.437403 0.649692 104.397215
DOCKED: USER    NEWDPF dihe0 15.67 134.42 111.19 163.45 44.46 
DOCKED: USER  keepresnum = 1 
DOCKED: USER  
DOCKED: REMARK  Name = 
DOCKED: REMARK  5 active torsions:
DOCKED: REMARK  status: ('A' for Active; 'I' for Inactive)
DOCKED: REMARK    1  A    between atoms: S_2  and  N_3
DOCKED: REMARK    2  A    between atoms: S_2  and  C_10
DOCKED: REMARK    3  A    between atoms: N_3  and  C_4
DOCKED: REMARK    4  A    between atoms: C_12  and  C_13
DOCKED: REMARK    5  A    between atoms: C_14  and  C_15
DOCKED: REMARK                            x       y       z     vdW  Elec       q    Type
DOCKED: REMARK                         _______ _______ _______ _____ _____    ______ ____
DOCKED: USER                              x       y       z     vdW  Elec       q    Type
DOCKED: USER                           _______ _______ _______ _____ _____    ______ ____
DOCKED: ROOT
DOCKED: ATOM      1  C   UNL     1      14.732  -8.909   4.102 -0.35 +0.00    +0.000 A 
DOCKED: ATOM      2  C   UNL     1      15.993  -9.018   3.500 -0.34 +0.00    +0.000 A 
DOCKED: ATOM      3  C   UNL     1      16.283 -10.092   2.632 -0.38 +0.00    +0.000 A 
DOCKED: ATOM      4  C   UNL     1      15.291 -11.058   2.396 -0.41 +0.00    +0.000 A 
DOCKED: ATOM      5  C   UNL     1      14.030 -10.943   2.988 -0.32 +0.00    +0.000 A 
DOCKED: ATOM      6  C   UNL     1      13.749  -9.870   3.835 -0.29 +0.00    +0.000 A 
DOCKED: ENDROOT
DOCKED: BRANCH   1   8
DOCKED: ATOM      7  O   UNL     1      14.266  -8.071   6.614 -0.53 +0.00    +0.000 OA
DOCKED: ATOM      8  S   UNL     1      14.393  -7.575   5.201 -0.55 +0.00    +0.000 S 
DOCKED: ATOM      9  O   UNL     1      13.100  -6.930   4.790 -0.29 +0.00    +0.000 OA
DOCKED: BRANCH   8  10
DOCKED: ATOM     10  N   UNL     1      15.668  -6.399   5.126 -0.49 +0.00    +0.000 N 
DOCKED: ATOM     11  H   UNL     1      16.548  -6.649   5.489 -0.46 -0.00    +0.000 HD
DOCKED: BRANCH  10  12
DOCKED: ATOM     12  C   UNL     1      15.515  -5.082   4.566 -0.39 +0.00    +0.000 A 
DOCKED: ATOM     13  C   UNL     1      15.776  -3.919   5.317 -0.50 -0.00    +0.000 A 
DOCKED: ATOM     14  C   UNL     1      15.626  -2.656   4.736 -0.41 -0.00    +0.000 A 
DOCKED: ATOM     15  C   UNL     1      15.209  -2.538   3.408 -0.36 -0.00    +0.000 A 
DOCKED: ATOM     16  C   UNL     1      14.939  -3.685   2.659 -0.25 -0.00    +0.000 A 
DOCKED: ATOM     17  C   UNL     1      15.088  -4.950   3.234 -0.26 -0.00    +0.000 A 
DOCKED: ENDBRANCH  10  12
DOCKED: ENDBRANCH   8  10
DOCKED: ENDBRANCH   1   8
DOCKED: BRANCH   3  18
DOCKED: ATOM     18  C   UNL     1      17.609 -10.267   1.990 -0.45 -0.00    +0.000 C 
DOCKED: ATOM     19  C   UNL     1      18.626 -10.939   2.551 -0.60 -0.00    +0.000 C 
DOCKED: BRANCH  19  20
DOCKED: ATOM     20  C   UNL     1      19.943 -11.110   1.904 -0.72 -0.00    +0.000 C 
DOCKED: ATOM     21  N   UNL     1      20.519 -10.107   1.060 -0.56 -0.00    +0.000 N 
DOCKED: ATOM     22  O   UNL     1      21.679 -10.353   0.407 -0.65 -0.00    +0.000 OA
DOCKED: ATOM     23  O   UNL     1      20.589 -12.169   2.128 -1.89 -0.00    +0.000 OA
DOCKED: ATOM     24  H   UNL     1      20.071  -9.236   0.954 -0.22 -0.00    +0.000 HD
DOCKED: ENDBRANCH  19  20
DOCKED: ENDBRANCH   3  18
DOCKED: TORSDOF 5
DOCKED: TER
DOCKED: ENDMDL
________________________________________________________________________________


	BEGINNING GENETIC ALGORITHM DOCKING 16 of 100
Run: 16 Seed: 1212902452 214939753 [ Run 16 of 100 GA/GALS ]
Beginning LAMARCKIAN GENETIC ALGORITHM (LGA), with a maximum of 2500000 energy evaluations.

Final-Value: -13.581


	FINAL GENETIC ALGORITHM DOCKED STATE
	_______________________________________________


Detailed state:  trans 21.530 -11.644 -2.585 quatxyzw 0.426829 0.323005 0.844404 -0.021610 center 0.217 0.012 -0.211 ntor 5 -163.6041 55.5382 154.9845 11.9505 132.9156
State:	 21.530 -11.644  -2.585   0.427  0.323  0.845 -177.523   -163.60   55.54  154.98   11.95  132.92

DOCKED: MODEL       16
DOCKED: USER    Run = 16
DOCKED: USER    DPF = ligand_dock.biased.dpf
DOCKED: USER  
DOCKED: USER    Estimated Free Energy of Binding    =  -10.96 kcal/mol  [=(1)+(2)+(3)-(4)]
DOCKED: USER    Estimated Inhibition Constant, Ki   =    9.27 nM (nanomolar)  [Temperature = 298.15 K]
DOCKED: USER    
DOCKED: USER    (1) Final Intermolecular Energy     =  -12.45 kcal/mol
DOCKED: USER        vdW + Hbond + desolv Energy     =  -12.45 kcal/mol
DOCKED: USER        Electrostatic Energy            =   +0.00 kcal/mol
DOCKED: USER    (2) Final Total Internal Energy     =   -1.13 kcal/mol
DOCKED: USER    (3) Torsional Free Energy           =   +1.49 kcal/mol
DOCKED: USER    (4) Unbound System's Energy  [=(2)] =   -1.13 kcal/mol
DOCKED: USER    
DOCKED: USER    
DOCKED: USER    NEWDPF move ligand.pdbqt
DOCKED: USER    NEWDPF about 0.217000 0.012000 -0.211000
DOCKED: USER    NEWDPF tran0 21.530153 -11.644434 -2.584961
DOCKED: USER    NEWDPF quaternion0 0.426829 0.323005 0.844404 -0.021610
DOCKED: USER    NEWDPF axisangle0 0.426929 0.323080 0.844601 -177.523480
DOCKED: USER    NEWDPF quat0 0.426929 0.323080 0.844601 -177.523480
DOCKED: USER    NEWDPF dihe0 -163.60 55.54 154.98 11.95 132.92 
DOCKED: USER  keepresnum = 1 
DOCKED: USER  
DOCKED: REMARK  Name = 
DOCKED: REMARK  5 active torsions:
DOCKED: REMARK  status: ('A' for Active; 'I' for Inactive)
DOCKED: REMARK    1  A    between atoms: S_2  and  N_3
DOCKED: REMARK    2  A    between atoms: S_2  and  C_10
DOCKED: REMARK    3  A    between atoms: N_3  and  C_4
DOCKED: REMARK    4  A    between atoms: C_12  and  C_13
DOCKED: REMARK    5  A    between atoms: C_14  and  C_15
DOCKED: REMARK                            x       y       z     vdW  Elec       q    Type
DOCKED: REMARK                         _______ _______ _______ _____ _____    ______ ____
DOCKED: USER                              x       y       z     vdW  Elec       q    Type
DOCKED: USER                           _______ _______ _______ _____ _____    ______ ____
DOCKED: ROOT
DOCKED: ATOM      1  C   UNL     1      21.325 -10.170  -4.180 -0.42 -0.00    +0.000 A 
DOCKED: ATOM      2  C   UNL     1      20.898 -10.829  -3.019 -0.39 -0.00    +0.000 A 
DOCKED: ATOM      3  C   UNL     1      20.726 -10.118  -1.813 -0.52 -0.00    +0.000 A 
DOCKED: ATOM      4  C   UNL     1      21.004  -8.742  -1.793 -0.47 -0.00    +0.000 A 
DOCKED: ATOM      5  C   UNL     1      21.419  -8.083  -2.954 -0.38 -0.00    +0.000 A 
DOCKED: ATOM      6  C   UNL     1      21.575  -8.793  -4.145 -0.30 -0.00    +0.000 A 
DOCKED: ENDROOT
DOCKED: BRANCH   1   8
DOCKED: ATOM      7  O   UNL     1      21.761 -12.537  -5.381 -0.82 -0.00    +0.000 OA
DOCKED: ATOM      8  S   UNL     1      21.558 -11.076  -5.673 -0.62 -0.00    +0.000 S 
DOCKED: ATOM      9  O   UNL     1      22.773 -10.543  -6.375 -0.40 -0.00    +0.000 OA
DOCKED: BRANCH   8  10
DOCKED: ATOM     10  N   UNL     1      20.174 -10.893  -6.706 -0.32 -0.00    +0.000 N 
DOCKED: ATOM     11  H   UNL     1      20.331 -10.778  -7.671 -0.05 -0.00    +0.000 HD
DOCKED: BRANCH  10  12
DOCKED: ATOM     12  C   UNL     1      18.814 -10.899  -6.237 -0.33 -0.00    +0.000 A 
DOCKED: ATOM     13  C   UNL     1      18.424 -10.198  -5.079 -0.25 -0.00    +0.000 A 
DOCKED: ATOM     14  C   UNL     1      17.090 -10.219  -4.658 -0.22 -0.00    +0.000 A 
DOCKED: ATOM     15  C   UNL     1      16.137 -10.940  -5.380 -0.23 -0.00    +0.000 A 
DOCKED: ATOM     16  C   UNL     1      16.516 -11.645  -6.524 -0.30 -0.00    +0.000 A 
DOCKED: ATOM     17  C   UNL     1      17.847 -11.627  -6.949 -0.30 -0.00    +0.000 A 
DOCKED: ENDBRANCH  10  12
DOCKED: ENDBRANCH   8  10
DOCKED: ENDBRANCH   1   8
DOCKED: BRANCH   3  18
DOCKED: ATOM     18  C   UNL     1      20.301 -10.773  -0.551 -0.59 -0.00    +0.000 C 
DOCKED: ATOM     19  C   UNL     1      20.907 -10.580   0.630 -0.68 -0.00    +0.000 C 
DOCKED: BRANCH  19  20
DOCKED: ATOM     20  C   UNL     1      20.477 -11.234   1.883 -0.74 -0.00    +0.000 C 
DOCKED: ATOM     21  N   UNL     1      20.568 -10.586   3.157 -0.65 -0.00    +0.000 N 
DOCKED: ATOM     22  O   UNL     1      20.259 -11.265   4.286 -1.06 -0.00    +0.000 OA
DOCKED: ATOM     23  O   UNL     1      19.989 -12.394   1.817 -1.81 -0.00    +0.000 OA
DOCKED: ATOM     24  H   UNL     1      20.857  -9.646   3.212 -0.60 -0.00    +0.000 HD
DOCKED: ENDBRANCH  19  20
DOCKED: ENDBRANCH   3  18
DOCKED: TORSDOF 5
DOCKED: TER
DOCKED: ENDMDL
________________________________________________________________________________


	BEGINNING GENETIC ALGORITHM DOCKING 17 of 100
Run: 17 Seed: 477298507 2068236762 [ Run 17 of 100 GA/GALS ]
Beginning LAMARCKIAN GENETIC ALGORITHM (LGA), with a maximum of 2500000 energy evaluations.

Final-Value: -13.463


	FINAL GENETIC ALGORITHM DOCKED STATE
	_______________________________________________


Detailed state:  trans 21.700 -11.659 -2.543 quatxyzw 0.431056 0.324102 0.842013 0.012746 center 0.217 0.012 -0.211 ntor 5 179.9147 -118.9453 175.1700 0.1397 142.0510
State:	 21.700 -11.659  -2.543   0.431  0.324  0.842 178.539    179.91 -118.95  175.17    0.14  142.05

DOCKED: MODEL       17
DOCKED: USER    Run = 17
DOCKED: USER    DPF = ligand_dock.biased.dpf
DOCKED: USER  
DOCKED: USER    Estimated Free Energy of Binding    =  -10.81 kcal/mol  [=(1)+(2)+(3)-(4)]
DOCKED: USER    Estimated Inhibition Constant, Ki   =   11.92 nM (nanomolar)  [Temperature = 298.15 K]
DOCKED: USER    
DOCKED: USER    (1) Final Intermolecular Energy     =  -12.30 kcal/mol
DOCKED: USER        vdW + Hbond + desolv Energy     =  -12.30 kcal/mol
DOCKED: USER        Electrostatic Energy            =   +0.00 kcal/mol
DOCKED: USER    (2) Final Total Internal Energy     =   -1.16 kcal/mol
DOCKED: USER    (3) Torsional Free Energy           =   +1.49 kcal/mol
DOCKED: USER    (4) Unbound System's Energy  [=(2)] =   -1.16 kcal/mol
DOCKED: USER    
DOCKED: USER    
DOCKED: USER    NEWDPF move ligand.pdbqt
DOCKED: USER    NEWDPF about 0.217000 0.012000 -0.211000
DOCKED: USER    NEWDPF tran0 21.700282 -11.659157 -2.542619
DOCKED: USER    NEWDPF quaternion0 0.431056 0.324102 0.842013 0.012746
DOCKED: USER    NEWDPF axisangle0 0.431091 0.324128 0.842082 178.539368
DOCKED: USER    NEWDPF quat0 0.431091 0.324128 0.842082 178.539368
DOCKED: USER    NEWDPF dihe0 179.91 -118.95 175.17 0.14 142.05 
DOCKED: USER  keepresnum = 1 
DOCKED: USER  
DOCKED: REMARK  Name = 
DOCKED: REMARK  5 active torsions:
DOCKED: REMARK  status: ('A' for Active; 'I' for Inactive)
DOCKED: REMARK    1  A    between atoms: S_2  and  N_3
DOCKED: REMARK    2  A    between atoms: S_2  and  C_10
DOCKED: REMARK    3  A    between atoms: N_3  and  C_4
DOCKED: REMARK    4  A    between atoms: C_12  and  C_13
DOCKED: REMARK    5  A    between atoms: C_14  and  C_15
DOCKED: REMARK                            x       y       z     vdW  Elec       q    Type
DOCKED: REMARK                         _______ _______ _______ _____ _____    ______ ____
DOCKED: USER                              x       y       z     vdW  Elec       q    Type
DOCKED: USER                           _______ _______ _______ _____ _____    ______ ____
DOCKED: ROOT
DOCKED: ATOM      1  C   UNL     1      21.362 -10.159  -4.090 -0.43 -0.00    +0.000 A 
DOCKED: ATOM      2  C   UNL     1      21.010 -10.870  -2.935 -0.37 -0.00    +0.000 A 
DOCKED: ATOM      3  C   UNL     1      20.837 -10.200  -1.706 -0.53 -0.00    +0.000 A 
DOCKED: ATOM      4  C   UNL     1      21.039  -8.812  -1.657 -0.49 -0.00    +0.000 A 
DOCKED: ATOM      5  C   UNL     1      21.379  -8.101  -2.812 -0.40 -0.00    +0.000 A 
DOCKED: ATOM      6  C   UNL     1      21.536  -8.771  -4.026 -0.31 -0.00    +0.000 A 
DOCKED: ENDROOT
DOCKED: BRANCH   1   8
DOCKED: ATOM      7  O   UNL     1      21.669 -12.496  -5.384 -0.80 -0.00    +0.000 OA
DOCKED: ATOM      8  S   UNL     1      21.597 -11.013  -5.614 -0.62 -0.00    +0.000 S 
DOCKED: ATOM      9  O   UNL     1      22.884 -10.549  -6.232 -0.37 -0.00    +0.000 OA
DOCKED: BRANCH   8  10
DOCKED: ATOM     10  N   UNL     1      20.286 -10.671  -6.699 -0.30 -0.00    +0.000 N 
DOCKED: ATOM     11  H   UNL     1      20.507 -10.352  -7.604 -0.01 -0.00    +0.000 HD
DOCKED: BRANCH  10  12
DOCKED: ATOM     12  C   UNL     1      18.897 -10.824  -6.356 -0.32 -0.00    +0.000 A 
DOCKED: ATOM     13  C   UNL     1      17.996 -11.514  -7.190 -0.29 -0.00    +0.000 A 
DOCKED: ATOM     14  C   UNL     1      16.654 -11.652  -6.818 -0.32 -0.00    +0.000 A 
DOCKED: ATOM     15  C   UNL     1      16.198 -11.101  -5.619 -0.23 -0.00    +0.000 A 
DOCKED: ATOM     16  C   UNL     1      17.082 -10.407  -4.790 -0.22 -0.00    +0.000 A 
DOCKED: ATOM     17  C   UNL     1      18.423 -10.267  -5.156 -0.26 -0.00    +0.000 A 
DOCKED: ENDBRANCH  10  12
DOCKED: ENDBRANCH   8  10
DOCKED: ENDBRANCH   1   8
DOCKED: BRANCH   3  18
DOCKED: ATOM     18  C   UNL     1      20.490 -10.910  -0.449 -0.59 -0.00    +0.000 C 
DOCKED: ATOM     19  C   UNL     1      20.823 -10.468   0.773 -0.65 -0.00    +0.000 C 
DOCKED: BRANCH  19  20
DOCKED: ATOM     20  C   UNL     1      20.472 -11.179   2.019 -0.73 -0.00    +0.000 C 
DOCKED: ATOM     21  N   UNL     1      20.494 -10.539   3.301 -0.67 -0.00    +0.000 N 
DOCKED: ATOM     22  O   UNL     1      20.266 -11.259   4.423 -0.97 -0.00    +0.000 OA
DOCKED: ATOM     23  O   UNL     1      20.116 -12.386   1.942 -1.83 -0.00    +0.000 OA
DOCKED: ATOM     24  H   UNL     1      20.676  -9.573   3.365 -0.58 -0.00    +0.000 HD
DOCKED: ENDBRANCH  19  20
DOCKED: ENDBRANCH   3  18
DOCKED: TORSDOF 5
DOCKED: TER
DOCKED: ENDMDL
________________________________________________________________________________


	BEGINNING GENETIC ALGORITHM DOCKING 18 of 100
Run: 18 Seed: 150729027 1963867493 [ Run 18 of 100 GA/GALS ]
Beginning LAMARCKIAN GENETIC ALGORITHM (LGA), with a maximum of 2500000 energy evaluations.

Final-Value: -12.902


	FINAL GENETIC ALGORITHM DOCKED STATE
	_______________________________________________


Detailed state:  trans 17.448 -11.423 0.047 quatxyzw -0.327944 -0.474692 0.774726 -0.258688 center 0.217 0.012 -0.211 ntor 5 177.1697 -178.6960 93.9683 -11.3537 84.7875
State:	 17.448 -11.423   0.047  -0.340 -0.491  0.802 -150.016    177.17 -178.70   93.97  -11.35   84.79

DOCKED: MODEL       18
DOCKED: USER    Run = 18
DOCKED: USER    DPF = ligand_dock.biased.dpf
DOCKED: USER  
DOCKED: USER    Estimated Free Energy of Binding    =  -10.22 kcal/mol  [=(1)+(2)+(3)-(4)]
DOCKED: USER    Estimated Inhibition Constant, Ki   =   32.37 nM (nanomolar)  [Temperature = 298.15 K]
DOCKED: USER    
DOCKED: USER    (1) Final Intermolecular Energy     =  -11.71 kcal/mol
DOCKED: USER        vdW + Hbond + desolv Energy     =  -11.71 kcal/mol
DOCKED: USER        Electrostatic Energy            =   +0.00 kcal/mol
DOCKED: USER    (2) Final Total Internal Energy     =   -1.19 kcal/mol
DOCKED: USER    (3) Torsional Free Energy           =   +1.49 kcal/mol
DOCKED: USER    (4) Unbound System's Energy  [=(2)] =   -1.19 kcal/mol
DOCKED: USER    
DOCKED: USER    
DOCKED: USER    NEWDPF move ligand.pdbqt
DOCKED: USER    NEWDPF about 0.217000 0.012000 -0.211000
DOCKED: USER    NEWDPF tran0 17.448016 -11.423330 0.047245
DOCKED: USER    NEWDPF quaternion0 -0.327944 -0.474692 0.774726 -0.258688
DOCKED: USER    NEWDPF axisangle0 -0.339501 -0.491420 0.802026 -150.015569
DOCKED: USER    NEWDPF quat0 -0.339501 -0.491420 0.802026 -150.015569
DOCKED: USER    NEWDPF dihe0 177.17 -178.70 93.97 -11.35 84.79 
DOCKED: USER  keepresnum = 1 
DOCKED: USER  
DOCKED: REMARK  Name = 
DOCKED: REMARK  5 active torsions:
DOCKED: REMARK  status: ('A' for Active; 'I' for Inactive)
DOCKED: REMARK    1  A    between atoms: S_2  and  N_3
DOCKED: REMARK    2  A    between atoms: S_2  and  C_10
DOCKED: REMARK    3  A    between atoms: N_3  and  C_4
DOCKED: REMARK    4  A    between atoms: C_12  and  C_13
DOCKED: REMARK    5  A    between atoms: C_14  and  C_15
DOCKED: REMARK                            x       y       z     vdW  Elec       q    Type
DOCKED: REMARK                         _______ _______ _______ _____ _____    ______ ____
DOCKED: USER                              x       y       z     vdW  Elec       q    Type
DOCKED: USER                           _______ _______ _______ _____ _____    ______ ____
DOCKED: ROOT
DOCKED: ATOM      1  C   UNL     1      18.028 -10.896   2.083 -0.46 -0.00    +0.000 A 
DOCKED: ATOM      2  C   UNL     1      17.480 -10.618   0.823 -0.31 -0.00    +0.000 A 
DOCKED: ATOM      3  C   UNL     1      16.127 -10.238   0.699 -0.27 +0.00    +0.000 A 
DOCKED: ATOM      4  C   UNL     1      15.336 -10.159   1.857 -0.30 +0.00    +0.000 A 
DOCKED: ATOM      5  C   UNL     1      15.886 -10.426   3.113 -0.42 +0.00    +0.000 A 
DOCKED: ATOM      6  C   UNL     1      17.229 -10.790   3.228 -0.40 +0.00    +0.000 A 
DOCKED: ENDROOT
DOCKED: BRANCH   1   8
DOCKED: ATOM      7  O   UNL     1      19.908 -12.771   1.657 -1.56 -0.00    +0.000 OA
DOCKED: ATOM      8  S   UNL     1      19.714 -11.391   2.221 -0.91 -0.00    +0.000 S 
DOCKED: ATOM      9  O   UNL     1      20.096 -11.397   3.674 -1.29 -0.00    +0.000 OA
DOCKED: BRANCH   8  10
DOCKED: ATOM     10  N   UNL     1      20.736 -10.279   1.365 -0.55 -0.00    +0.000 N 
DOCKED: ATOM     11  H   UNL     1      21.389  -9.758   1.885 -0.57 -0.00    +0.000 HD
DOCKED: BRANCH  10  12
DOCKED: ATOM     12  C   UNL     1      20.685 -10.075  -0.059 -0.59 -0.00    +0.000 A 
DOCKED: ATOM     13  C   UNL     1      21.369  -9.014  -0.683 -0.48 -0.00    +0.000 A 
DOCKED: ATOM     14  C   UNL     1      21.305  -8.852  -2.071 -0.46 -0.00    +0.000 A 
DOCKED: ATOM     15  C   UNL     1      20.556  -9.739  -2.847 -0.44 -0.00    +0.000 A 
DOCKED: ATOM     16  C   UNL     1      19.867 -10.789  -2.236 -0.39 -0.00    +0.000 A 
DOCKED: ATOM     17  C   UNL     1      19.928 -10.955  -0.850 -0.44 -0.00    +0.000 A 
DOCKED: ENDBRANCH  10  12
DOCKED: ENDBRANCH   8  10
DOCKED: ENDBRANCH   1   8
DOCKED: BRANCH   3  18
DOCKED: ATOM     18  C   UNL     1      15.493  -9.958  -0.613 -0.28 -0.00    +0.000 C 
DOCKED: ATOM     19  C   UNL     1      15.208 -10.905  -1.521 -0.33 -0.00    +0.000 C 
DOCKED: BRANCH  19  20
DOCKED: ATOM     20  C   UNL     1      14.574 -10.618  -2.824 -0.30 -0.00    +0.000 C 
DOCKED: ATOM     21  N   UNL     1      13.995 -11.646  -3.638 -0.25 -0.00    +0.000 N 
DOCKED: ATOM     22  O   UNL     1      13.520 -11.348  -4.869 -0.27 -0.00    +0.000 OA
DOCKED: ATOM     23  O   UNL     1      14.523  -9.422  -3.216 -0.18 -0.00    +0.000 OA
DOCKED: ATOM     24  H   UNL     1      13.942 -12.569  -3.300 -0.24 -0.00    +0.000 HD
DOCKED: ENDBRANCH  19  20
DOCKED: ENDBRANCH   3  18
DOCKED: TORSDOF 5
DOCKED: TER
DOCKED: ENDMDL
________________________________________________________________________________


	BEGINNING GENETIC ALGORITHM DOCKING 19 of 100
Run: 19 Seed: 1710799699 1764558038 [ Run 19 of 100 GA/GALS ]
Beginning LAMARCKIAN GENETIC ALGORITHM (LGA), with a maximum of 2500000 energy evaluations.

Final-Value: -13.698


	FINAL GENETIC ALGORITHM DOCKED STATE
	_______________________________________________


Detailed state:  trans 21.754 -11.017 -2.293 quatxyzw 0.490819 0.391025 0.778524 -0.009831 center 0.217 0.012 -0.211 ntor 5 -6.9427 68.0395 5.2866 170.5815 -127.6379
State:	 21.754 -11.017  -2.293   0.491  0.391  0.779 -178.873     -6.94   68.04    5.29  170.58 -127.64

DOCKED: MODEL       19
DOCKED: USER    Run = 19
DOCKED: USER    DPF = ligand_dock.biased.dpf
DOCKED: USER  
DOCKED: USER    Estimated Free Energy of Binding    =  -11.21 kcal/mol  [=(1)+(2)+(3)-(4)]
DOCKED: USER    Estimated Inhibition Constant, Ki   =    6.09 nM (nanomolar)  [Temperature = 298.15 K]
DOCKED: USER    
DOCKED: USER    (1) Final Intermolecular Energy     =  -12.70 kcal/mol
DOCKED: USER        vdW + Hbond + desolv Energy     =  -12.70 kcal/mol
DOCKED: USER        Electrostatic Energy            =   +0.00 kcal/mol
DOCKED: USER    (2) Final Total Internal Energy     =   -1.00 kcal/mol
DOCKED: USER    (3) Torsional Free Energy           =   +1.49 kcal/mol
DOCKED: USER    (4) Unbound System's Energy  [=(2)] =   -1.00 kcal/mol
DOCKED: USER    
DOCKED: USER    
DOCKED: USER    NEWDPF move ligand.pdbqt
DOCKED: USER    NEWDPF about 0.217000 0.012000 -0.211000
DOCKED: USER    NEWDPF tran0 21.753767 -11.016532 -2.293251
DOCKED: USER    NEWDPF quaternion0 0.490819 0.391025 0.778524 -0.009831
DOCKED: USER    NEWDPF axisangle0 0.490843 0.391044 0.778561 -178.873417
DOCKED: USER    NEWDPF quat0 0.490843 0.391044 0.778561 -178.873417
DOCKED: USER    NEWDPF dihe0 -6.94 68.04 5.29 170.58 -127.64 
DOCKED: USER  keepresnum = 1 
DOCKED: USER  
DOCKED: REMARK  Name = 
DOCKED: REMARK  5 active torsions:
DOCKED: REMARK  status: ('A' for Active; 'I' for Inactive)
DOCKED: REMARK    1  A    between atoms: S_2  and  N_3
DOCKED: REMARK    2  A    between atoms: S_2  and  C_10
DOCKED: REMARK    3  A    between atoms: N_3  and  C_4
DOCKED: REMARK    4  A    between atoms: C_12  and  C_13
DOCKED: REMARK    5  A    between atoms: C_14  and  C_15
DOCKED: REMARK                            x       y       z     vdW  Elec       q    Type
DOCKED: REMARK                         _______ _______ _______ _____ _____    ______ ____
DOCKED: USER                              x       y       z     vdW  Elec       q    Type
DOCKED: USER                           _______ _______ _______ _____ _____    ______ ____
DOCKED: ROOT
DOCKED: ATOM      1  C   UNL     1      21.210  -9.797  -4.019 -0.40 -0.00    +0.000 A 
DOCKED: ATOM      2  C   UNL     1      21.020 -10.287  -2.719 -0.49 -0.00    +0.000 A 
DOCKED: ATOM      3  C   UNL     1      21.024  -9.410  -1.614 -0.54 -0.00    +0.000 A 
DOCKED: ATOM      4  C   UNL     1      21.237  -8.041  -1.838 -0.42 -0.00    +0.000 A 
DOCKED: ATOM      5  C   UNL     1      21.417  -7.550  -3.134 -0.35 -0.00    +0.000 A 
DOCKED: ATOM      6  C   UNL     1      21.399  -8.424  -4.222 -0.31 -0.00    +0.000 A 
DOCKED: ENDROOT
DOCKED: BRANCH   1   8
DOCKED: ATOM      7  O   UNL     1      19.826 -11.313  -5.755 -0.45 -0.00    +0.000 OA
DOCKED: ATOM      8  S   UNL     1      21.226 -10.907  -5.387 -0.61 -0.00    +0.000 S 
DOCKED: ATOM      9  O   UNL     1      22.007 -12.131  -5.004 -0.67 -0.00    +0.000 OA
DOCKED: BRANCH   8  10
DOCKED: ATOM     10  N   UNL     1      21.977 -10.154  -6.760 -0.29 -0.00    +0.000 N 
DOCKED: ATOM     11  H   UNL     1      21.555  -9.346  -7.131 +0.00 -0.00    +0.000 HD
DOCKED: BRANCH  10  12
DOCKED: ATOM     12  C   UNL     1      23.176 -10.642  -7.387 -0.33 -0.00    +0.000 A 
DOCKED: ATOM     13  C   UNL     1      23.278 -11.958  -7.877 -0.44 -0.00    +0.000 A 
DOCKED: ATOM     14  C   UNL     1      24.457 -12.394  -8.490 -0.41 -0.00    +0.000 A 
DOCKED: ATOM     15  C   UNL     1      25.545 -11.528  -8.614 -0.38 -0.00    +0.000 A 
DOCKED: ATOM     16  C   UNL     1      25.458 -10.224  -8.123 -0.31 -0.00    +0.000 A 
DOCKED: ATOM     17  C   UNL     1      24.281  -9.783  -7.510 -0.25 -0.00    +0.000 A 
DOCKED: ENDBRANCH  10  12
DOCKED: ENDBRANCH   8  10
DOCKED: ENDBRANCH   1   8
DOCKED: BRANCH   3  18
DOCKED: ATOM     18  C   UNL     1      20.852  -9.882  -0.218 -0.67 -0.00    +0.000 C 
DOCKED: ATOM     19  C   UNL     1      20.351 -11.084   0.106 -0.62 -0.00    +0.000 C 
DOCKED: BRANCH  19  20
DOCKED: ATOM     20  C   UNL     1      20.185 -11.548   1.499 -0.76 -0.00    +0.000 C 
DOCKED: ATOM     21  N   UNL     1      20.330 -10.671   2.622 -0.66 -0.00    +0.000 N 
DOCKED: ATOM     22  O   UNL     1      20.272 -11.165   3.880 -1.22 -0.00    +0.000 OA
DOCKED: ATOM     23  O   UNL     1      19.880 -12.755   1.697 -1.59 -0.00    +0.000 OA
DOCKED: ATOM     24  H   UNL     1      20.472  -9.707   2.478 -0.54 -0.00    +0.000 HD
DOCKED: ENDBRANCH  19  20
DOCKED: ENDBRANCH   3  18
DOCKED: TORSDOF 5
DOCKED: TER
DOCKED: ENDMDL
________________________________________________________________________________


	BEGINNING GENETIC ALGORITHM DOCKING 20 of 100
Run: 20 Seed: 342438218 860526942 [ Run 20 of 100 GA/GALS ]
Beginning LAMARCKIAN GENETIC ALGORITHM (LGA), with a maximum of 2500000 energy evaluations.

Final-Value: -12.908


	FINAL GENETIC ALGORITHM DOCKED STATE
	_______________________________________________


Detailed state:  trans 18.498 -11.085 -1.018 quatxyzw -0.636172 0.374701 0.426769 -0.522256 center 0.217 0.012 -0.211 ntor 5 -75.9268 -45.2684 -175.2862 -8.1079 27.3369
State:	 18.498 -11.085  -1.018  -0.746  0.439  0.500 -117.033    -75.93  -45.27 -175.29   -8.11   27.34

DOCKED: MODEL       20
DOCKED: USER    Run = 20
DOCKED: USER    DPF = ligand_dock.biased.dpf
DOCKED: USER  
DOCKED: USER    Estimated Free Energy of Binding    =  -10.16 kcal/mol  [=(1)+(2)+(3)-(4)]
DOCKED: USER    Estimated Inhibition Constant, Ki   =   35.76 nM (nanomolar)  [Temperature = 298.15 K]
DOCKED: USER    
DOCKED: USER    (1) Final Intermolecular Energy     =  -11.65 kcal/mol
DOCKED: USER        vdW + Hbond + desolv Energy     =  -11.65 kcal/mol
DOCKED: USER        Electrostatic Energy            =   +0.00 kcal/mol
DOCKED: USER    (2) Final Total Internal Energy     =   -1.26 kcal/mol
DOCKED: USER    (3) Torsional Free Energy           =   +1.49 kcal/mol
DOCKED: USER    (4) Unbound System's Energy  [=(2)] =   -1.26 kcal/mol
DOCKED: USER    
DOCKED: USER    
DOCKED: USER    NEWDPF move ligand.pdbqt
DOCKED: USER    NEWDPF about 0.217000 0.012000 -0.211000
DOCKED: USER    NEWDPF tran0 18.498372 -11.085470 -1.018024
DOCKED: USER    NEWDPF quaternion0 -0.636172 0.374701 0.426769 -0.522256
DOCKED: USER    NEWDPF axisangle0 -0.745991 0.439384 0.500440 -117.032537
DOCKED: USER    NEWDPF quat0 -0.745991 0.439384 0.500440 -117.032537
DOCKED: USER    NEWDPF dihe0 -75.93 -45.27 -175.29 -8.11 27.34 
DOCKED: USER  keepresnum = 1 
DOCKED: USER  
DOCKED: REMARK  Name = 
DOCKED: REMARK  5 active torsions:
DOCKED: REMARK  status: ('A' for Active; 'I' for Inactive)
DOCKED: REMARK    1  A    between atoms: S_2  and  N_3
DOCKED: REMARK    2  A    between atoms: S_2  and  C_10
DOCKED: REMARK    3  A    between atoms: N_3  and  C_4
DOCKED: REMARK    4  A    between atoms: C_12  and  C_13
DOCKED: REMARK    5  A    between atoms: C_14  and  C_15
DOCKED: REMARK                            x       y       z     vdW  Elec       q    Type
DOCKED: REMARK                         _______ _______ _______ _____ _____    ______ ____
DOCKED: USER                              x       y       z     vdW  Elec       q    Type
DOCKED: USER                           _______ _______ _______ _____ _____    ______ ____
DOCKED: ROOT
DOCKED: ATOM      1  C   UNL     1      20.266 -10.756   0.217 -0.58 -0.00    +0.000 A 
DOCKED: ATOM      2  C   UNL     1      19.615 -11.132  -0.966 -0.38 -0.00    +0.000 A 
DOCKED: ATOM      3  C   UNL     1      19.849 -10.431  -2.167 -0.42 -0.00    +0.000 A 
DOCKED: ATOM      4  C   UNL     1      20.734  -9.341  -2.153 -0.47 -0.00    +0.000 A 
DOCKED: ATOM      5  C   UNL     1      21.391  -8.972  -0.976 -0.50 -0.00    +0.000 A 
DOCKED: ATOM      6  C   UNL     1      21.162  -9.679   0.205 -0.54 -0.00    +0.000 A 
DOCKED: ENDROOT
DOCKED: BRANCH   1   8
DOCKED: ATOM      7  O   UNL     1      19.560 -10.673   2.811 -0.83 -0.00    +0.000 OA
DOCKED: ATOM      8  S   UNL     1      19.947 -11.627   1.715 -0.93 -0.00    +0.000 S 
DOCKED: ATOM      9  O   UNL     1      21.193 -12.360   2.120 -1.46 -0.00    +0.000 OA
DOCKED: BRANCH   8  10
DOCKED: ATOM     10  N   UNL     1      18.661 -12.770   1.480 -0.47 -0.00    +0.000 N 
DOCKED: ATOM     11  H   UNL     1      18.858 -13.723   1.626 -0.44 -0.00    +0.000 HD
DOCKED: BRANCH  10  12
DOCKED: ATOM     12  C   UNL     1      17.326 -12.408   1.084 -0.40 +0.00    +0.000 A 
DOCKED: ATOM     13  C   UNL     1      16.547 -11.504   1.832 -0.38 +0.00    +0.000 A 
DOCKED: ATOM     14  C   UNL     1      15.257 -11.167   1.411 -0.35 +0.00    +0.000 A 
DOCKED: ATOM     15  C   UNL     1      14.728 -11.731   0.248 -0.39 +0.00    +0.000 A 
DOCKED: ATOM     16  C   UNL     1      15.489 -12.636  -0.496 -0.47 +0.00    +0.000 A 
DOCKED: ATOM     17  C   UNL     1      16.780 -12.974  -0.080 -0.46 +0.00    +0.000 A 
DOCKED: ENDBRANCH  10  12
DOCKED: ENDBRANCH   8  10
DOCKED: ENDBRANCH   1   8
DOCKED: BRANCH   3  18
DOCKED: ATOM     18  C   UNL     1      19.167 -10.774  -3.439 -0.40 -0.00    +0.000 C 
DOCKED: ATOM     19  C   UNL     1      19.089  -9.943  -4.491 -0.31 -0.00    +0.000 C 
DOCKED: BRANCH  19  20
DOCKED: ATOM     20  C   UNL     1      18.409 -10.293  -5.755 -0.29 -0.00    +0.000 C 
DOCKED: ATOM     21  N   UNL     1      18.785 -11.432  -6.539 -0.37 -0.00    +0.000 N 
DOCKED: ATOM     22  O   UNL     1      18.203 -11.650  -7.741 -0.36 -0.00    +0.000 OA
DOCKED: ATOM     23  O   UNL     1      17.449  -9.573  -6.139 -0.15 -0.00    +0.000 OA
DOCKED: ATOM     24  H   UNL     1      19.468 -12.056  -6.202 -0.31 -0.00    +0.000 HD
DOCKED: ENDBRANCH  19  20
DOCKED: ENDBRANCH   3  18
DOCKED: TORSDOF 5
DOCKED: TER
DOCKED: ENDMDL
________________________________________________________________________________


	BEGINNING GENETIC ALGORITHM DOCKING 21 of 100
Run: 21 Seed: 207526034 672162950 [ Run 21 of 100 GA/GALS ]
Beginning LAMARCKIAN GENETIC ALGORITHM (LGA), with a maximum of 2500000 energy evaluations.

Final-Value: -13.666


	FINAL GENETIC ALGORITHM DOCKED STATE
	_______________________________________________


Detailed state:  trans 21.187 -11.336 -2.030 quatxyzw -0.504572 -0.356383 -0.780518 0.095866 center 0.217 0.012 -0.211 ntor 5 -53.9733 59.8406 56.2963 -57.1624 -71.1448
State:	 21.187 -11.336  -2.030  -0.507 -0.358 -0.784 168.998    -53.97   59.84   56.30  -57.16  -71.14

DOCKED: MODEL       21
DOCKED: USER    Run = 21
DOCKED: USER    DPF = ligand_dock.biased.dpf
DOCKED: USER  
DOCKED: USER    Estimated Free Energy of Binding    =  -11.16 kcal/mol  [=(1)+(2)+(3)-(4)]
DOCKED: USER    Estimated Inhibition Constant, Ki   =    6.61 nM (nanomolar)  [Temperature = 298.15 K]
DOCKED: USER    
DOCKED: USER    (1) Final Intermolecular Energy     =  -12.65 kcal/mol
DOCKED: USER        vdW + Hbond + desolv Energy     =  -12.65 kcal/mol
DOCKED: USER        Electrostatic Energy            =   +0.00 kcal/mol
DOCKED: USER    (2) Final Total Internal Energy     =   -1.02 kcal/mol
DOCKED: USER    (3) Torsional Free Energy           =   +1.49 kcal/mol
DOCKED: USER    (4) Unbound System's Energy  [=(2)] =   -1.02 kcal/mol
DOCKED: USER    
DOCKED: USER    
DOCKED: USER    NEWDPF move ligand.pdbqt
DOCKED: USER    NEWDPF about 0.217000 0.012000 -0.211000
DOCKED: USER    NEWDPF tran0 21.186661 -11.336113 -2.029505
DOCKED: USER    NEWDPF quaternion0 -0.504572 -0.356383 -0.780518 0.095866
DOCKED: USER    NEWDPF axisangle0 -0.506907 -0.358032 -0.784129 168.997615
DOCKED: USER    NEWDPF quat0 -0.506907 -0.358032 -0.784129 168.997615
DOCKED: USER    NEWDPF dihe0 -53.97 59.84 56.30 -57.16 -71.14 
DOCKED: USER  keepresnum = 1 
DOCKED: USER  
DOCKED: REMARK  Name = 
DOCKED: REMARK  5 active torsions:
DOCKED: REMARK  status: ('A' for Active; 'I' for Inactive)
DOCKED: REMARK    1  A    between atoms: S_2  and  N_3
DOCKED: REMARK    2  A    between atoms: S_2  and  C_10
DOCKED: REMARK    3  A    between atoms: N_3  and  C_4
DOCKED: REMARK    4  A    between atoms: C_12  and  C_13
DOCKED: REMARK    5  A    between atoms: C_14  and  C_15
DOCKED: REMARK                            x       y       z     vdW  Elec       q    Type
DOCKED: REMARK                         _______ _______ _______ _____ _____    ______ ____
DOCKED: USER                              x       y       z     vdW  Elec       q    Type
DOCKED: USER                           _______ _______ _______ _____ _____    ______ ____
DOCKED: ROOT
DOCKED: ATOM      1  C   UNL     1      20.949 -10.097  -3.809 -0.43 -0.00    +0.000 A 
DOCKED: ATOM      2  C   UNL     1      20.615 -10.503  -2.510 -0.47 -0.00    +0.000 A 
DOCKED: ATOM      3  C   UNL     1      20.725  -9.604  -1.428 -0.52 -0.00    +0.000 A 
DOCKED: ATOM      4  C   UNL     1      21.189  -8.302  -1.673 -0.44 -0.00    +0.000 A 
DOCKED: ATOM      5  C   UNL     1      21.513  -7.895  -2.970 -0.34 -0.00    +0.000 A 
DOCKED: ATOM      6  C   UNL     1      21.389  -8.787  -4.036 -0.34 -0.00    +0.000 A 
DOCKED: ENDROOT
DOCKED: BRANCH   1   8
DOCKED: ATOM      7  O   UNL     1      20.150 -10.599  -6.327 -0.33 -0.00    +0.000 OA
DOCKED: ATOM      8  S   UNL     1      20.829 -11.236  -5.148 -0.64 -0.00    +0.000 S 
DOCKED: ATOM      9  O   UNL     1      20.022 -12.421  -4.699 -0.73 -0.00    +0.000 OA
DOCKED: BRANCH   8  10
DOCKED: ATOM     10  N   UNL     1      22.411 -11.769  -5.624 -0.54 -0.00    +0.000 N 
DOCKED: ATOM     11  H   UNL     1      22.903 -12.362  -5.011 -0.07 -0.00    +0.000 HD
DOCKED: BRANCH  10  12
DOCKED: ATOM     12  C   UNL     1      23.046 -11.396  -6.860 -0.41 -0.00    +0.000 A 
DOCKED: ATOM     13  C   UNL     1      23.088 -10.059  -7.301 -0.27 -0.00    +0.000 A 
DOCKED: ATOM     14  C   UNL     1      23.724  -9.732  -8.504 -0.17 -0.00    +0.000 A 
DOCKED: ATOM     15  C   UNL     1      24.315 -10.731  -9.279 -0.20 -0.00    +0.000 A 
DOCKED: ATOM     16  C   UNL     1      24.270 -12.061  -8.855 -0.38 -0.00    +0.000 A 
DOCKED: ATOM     17  C   UNL     1      23.637 -12.392  -7.654 -0.42 -0.00    +0.000 A 
DOCKED: ENDBRANCH  10  12
DOCKED: ENDBRANCH   8  10
DOCKED: ENDBRANCH   1   8
DOCKED: BRANCH   3  18
DOCKED: ATOM     18  C   UNL     1      20.408  -9.992  -0.031 -0.61 -0.00    +0.000 C 
DOCKED: ATOM     19  C   UNL     1      20.620 -11.220   0.468 -0.67 -0.00    +0.000 C 
DOCKED: BRANCH  19  20
DOCKED: ATOM     20  C   UNL     1      20.304 -11.598   1.861 -0.78 -0.00    +0.000 C 
DOCKED: ATOM     21  N   UNL     1      20.471 -10.692   2.958 -0.66 -0.00    +0.000 N 
DOCKED: ATOM     22  O   UNL     1      20.267 -11.118   4.226 -1.06 -0.00    +0.000 OA
DOCKED: ATOM     23  O   UNL     1      19.848 -12.752   2.081 -1.59 -0.00    +0.000 OA
DOCKED: ATOM     24  H   UNL     1      20.734  -9.758   2.789 -0.59 -0.00    +0.000 HD
DOCKED: ENDBRANCH  19  20
DOCKED: ENDBRANCH   3  18
DOCKED: TORSDOF 5
DOCKED: TER
DOCKED: ENDMDL
________________________________________________________________________________


	BEGINNING GENETIC ALGORITHM DOCKING 22 of 100
Run: 22 Seed: 1672472734 524791481 [ Run 22 of 100 GA/GALS ]
Beginning LAMARCKIAN GENETIC ALGORITHM (LGA), with a maximum of 2500000 energy evaluations.

Final-Value: -13.994


	FINAL GENETIC ALGORITHM DOCKED STATE
	_______________________________________________


Detailed state:  trans 22.149 -11.159 -2.184 quatxyzw 0.482310 0.405989 0.774650 0.049671 center 0.217 0.012 -0.211 ntor 5 42.0944 -42.3903 -45.3970 82.0827 109.5956
State:	 22.149 -11.159  -2.184   0.483  0.406  0.776 174.306     42.09  -42.39  -45.40   82.08  109.60

DOCKED: MODEL       22
DOCKED: USER    Run = 22
DOCKED: USER    DPF = ligand_dock.biased.dpf
DOCKED: USER  
DOCKED: USER    Estimated Free Energy of Binding    =  -11.24 kcal/mol  [=(1)+(2)+(3)-(4)]
DOCKED: USER    Estimated Inhibition Constant, Ki   =    5.81 nM (nanomolar)  [Temperature = 298.15 K]
DOCKED: USER    
DOCKED: USER    (1) Final Intermolecular Energy     =  -12.73 kcal/mol
DOCKED: USER        vdW + Hbond + desolv Energy     =  -12.73 kcal/mol
DOCKED: USER        Electrostatic Energy            =   +0.00 kcal/mol
DOCKED: USER    (2) Final Total Internal Energy     =   -1.27 kcal/mol
DOCKED: USER    (3) Torsional Free Energy           =   +1.49 kcal/mol
DOCKED: USER    (4) Unbound System's Energy  [=(2)] =   -1.27 kcal/mol
DOCKED: USER    
DOCKED: USER    
DOCKED: USER    NEWDPF move ligand.pdbqt
DOCKED: USER    NEWDPF about 0.217000 0.012000 -0.211000
DOCKED: USER    NEWDPF tran0 22.149017 -11.159144 -2.183615
DOCKED: USER    NEWDPF quaternion0 0.482310 0.405989 0.774650 0.049671
DOCKED: USER    NEWDPF axisangle0 0.482906 0.406491 0.775607 174.305774
DOCKED: USER    NEWDPF quat0 0.482906 0.406491 0.775607 174.305774
DOCKED: USER    NEWDPF dihe0 42.09 -42.39 -45.40 82.08 109.60 
DOCKED: USER  keepresnum = 1 
DOCKED: USER  
DOCKED: REMARK  Name = 
DOCKED: REMARK  5 active torsions:
DOCKED: REMARK  status: ('A' for Active; 'I' for Inactive)
DOCKED: REMARK    1  A    between atoms: S_2  and  N_3
DOCKED: REMARK    2  A    between atoms: S_2  and  C_10
DOCKED: REMARK    3  A    between atoms: N_3  and  C_4
DOCKED: REMARK    4  A    between atoms: C_12  and  C_13
DOCKED: REMARK    5  A    between atoms: C_14  and  C_15
DOCKED: REMARK                            x       y       z     vdW  Elec       q    Type
DOCKED: REMARK                         _______ _______ _______ _____ _____    ______ ____
DOCKED: USER                              x       y       z     vdW  Elec       q    Type
DOCKED: USER                           _______ _______ _______ _____ _____    ______ ____
DOCKED: ROOT
DOCKED: ATOM      1  C   UNL     1      21.404  -9.959  -3.846 -0.43 -0.00    +0.000 A 
DOCKED: ATOM      2  C   UNL     1      21.321 -10.506  -2.558 -0.49 -0.00    +0.000 A 
DOCKED: ATOM      3  C   UNL     1      21.269  -9.668  -1.425 -0.55 -0.00    +0.000 A 
DOCKED: ATOM      4  C   UNL     1      21.317  -8.277  -1.609 -0.44 -0.00    +0.000 A 
DOCKED: ATOM      5  C   UNL     1      21.389  -7.731  -2.894 -0.38 -0.00    +0.000 A 
DOCKED: ATOM      6  C   UNL     1      21.428  -8.568  -4.010 -0.32 -0.00    +0.000 A 
DOCKED: ENDROOT
DOCKED: BRANCH   1   8
DOCKED: ATOM      7  O   UNL     1      22.469 -12.135  -5.012 -0.66 -0.00    +0.000 OA
DOCKED: ATOM      8  S   UNL     1      21.491 -11.019  -5.251 -0.64 -0.00    +0.000 S 
DOCKED: ATOM      9  O   UNL     1      21.945 -10.213  -6.434 -0.34 -0.00    +0.000 OA
DOCKED: BRANCH   8  10
DOCKED: ATOM     10  N   UNL     1      19.928 -11.697  -5.587 -0.42 -0.00    +0.000 N 
DOCKED: ATOM     11  H   UNL     1      19.892 -12.586  -6.008 -0.50 -0.00    +0.000 HD
DOCKED: BRANCH  10  12
DOCKED: ATOM     12  C   UNL     1      18.685 -11.038  -5.286 -0.34 -0.00    +0.000 A 
DOCKED: ATOM     13  C   UNL     1      18.384 -10.570  -3.992 -0.26 -0.00    +0.000 A 
DOCKED: ATOM     14  C   UNL     1      17.169  -9.925  -3.740 -0.23 -0.00    +0.000 A 
DOCKED: ATOM     15  C   UNL     1      16.243  -9.745  -4.770 -0.18 -0.00    +0.000 A 
DOCKED: ATOM     16  C   UNL     1      16.528 -10.213  -6.054 -0.19 -0.00    +0.000 A 
DOCKED: ATOM     17  C   UNL     1      17.741 -10.858  -6.311 -0.30 -0.00    +0.000 A 
DOCKED: ENDBRANCH  10  12
DOCKED: ENDBRANCH   8  10
DOCKED: ENDBRANCH   1   8
DOCKED: BRANCH   3  18
DOCKED: ATOM     18  C   UNL     1      21.206 -10.198  -0.040 -0.70 -0.00    +0.000 C 
DOCKED: ATOM     19  C   UNL     1      20.147 -10.852   0.460 -0.66 -0.00    +0.000 C 
DOCKED: BRANCH  19  20
DOCKED: ATOM     20  C   UNL     1      20.093 -11.379   1.839 -0.75 -0.00    +0.000 C 
DOCKED: ATOM     21  N   UNL     1      20.218 -10.533   2.989 -0.68 -0.00    +0.000 N 
DOCKED: ATOM     22  O   UNL     1      20.267 -11.075   4.228 -1.05 -0.00    +0.000 OA
DOCKED: ATOM     23  O   UNL     1      19.905 -12.614   2.003 -1.68 -0.00    +0.000 OA
DOCKED: ATOM     24  H   UNL     1      20.269  -9.556   2.877 -0.55 -0.00    +0.000 HD
DOCKED: ENDBRANCH  19  20
DOCKED: ENDBRANCH   3  18
DOCKED: TORSDOF 5
DOCKED: TER
DOCKED: ENDMDL
________________________________________________________________________________


	BEGINNING GENETIC ALGORITHM DOCKING 23 of 100
Run: 23 Seed: 1313392226 971351159 [ Run 23 of 100 GA/GALS ]
Beginning LAMARCKIAN GENETIC ALGORITHM (LGA), with a maximum of 2500000 energy evaluations.

Final-Value: -12.961


	FINAL GENETIC ALGORITHM DOCKED STATE
	_______________________________________________


Detailed state:  trans 22.644 -10.250 -4.045 quatxyzw -0.123898 -0.691423 -0.559941 -0.439375 center 0.217 0.012 -0.211 ntor 5 -143.0250 54.4834 -126.4462 -159.0440 -46.7211
State:	 22.644 -10.250  -4.045  -0.138 -0.770 -0.623 -127.872   -143.02   54.48 -126.45 -159.04  -46.72

DOCKED: MODEL       23
DOCKED: USER    Run = 23
DOCKED: USER    DPF = ligand_dock.biased.dpf
DOCKED: USER  
DOCKED: USER    Estimated Free Energy of Binding    =  -10.56 kcal/mol  [=(1)+(2)+(3)-(4)]
DOCKED: USER    Estimated Inhibition Constant, Ki   =   18.29 nM (nanomolar)  [Temperature = 298.15 K]
DOCKED: USER    
DOCKED: USER    (1) Final Intermolecular Energy     =  -12.05 kcal/mol
DOCKED: USER        vdW + Hbond + desolv Energy     =  -12.05 kcal/mol
DOCKED: USER        Electrostatic Energy            =   +0.00 kcal/mol
DOCKED: USER    (2) Final Total Internal Energy     =   -0.91 kcal/mol
DOCKED: USER    (3) Torsional Free Energy           =   +1.49 kcal/mol
DOCKED: USER    (4) Unbound System's Energy  [=(2)] =   -0.91 kcal/mol
DOCKED: USER    
DOCKED: USER    
DOCKED: USER    NEWDPF move ligand.pdbqt
DOCKED: USER    NEWDPF about 0.217000 0.012000 -0.211000
DOCKED: USER    NEWDPF tran0 22.644111 -10.250342 -4.044803
DOCKED: USER    NEWDPF quaternion0 -0.123898 -0.691423 -0.559941 -0.439375
DOCKED: USER    NEWDPF axisangle0 -0.137925 -0.769698 -0.623331 -127.872032
DOCKED: USER    NEWDPF quat0 -0.137925 -0.769698 -0.623331 -127.872032
DOCKED: USER    NEWDPF dihe0 -143.02 54.48 -126.45 -159.04 -46.72 
DOCKED: USER  keepresnum = 1 
DOCKED: USER  
DOCKED: REMARK  Name = 
DOCKED: REMARK  5 active torsions:
DOCKED: REMARK  status: ('A' for Active; 'I' for Inactive)
DOCKED: REMARK    1  A    between atoms: S_2  and  N_3
DOCKED: REMARK    2  A    between atoms: S_2  and  C_10
DOCKED: REMARK    3  A    between atoms: N_3  and  C_4
DOCKED: REMARK    4  A    between atoms: C_12  and  C_13
DOCKED: REMARK    5  A    between atoms: C_14  and  C_15
DOCKED: REMARK                            x       y       z     vdW  Elec       q    Type
DOCKED: REMARK                         _______ _______ _______ _____ _____    ______ ____
DOCKED: USER                              x       y       z     vdW  Elec       q    Type
DOCKED: USER                           _______ _______ _______ _____ _____    ______ ____
DOCKED: ROOT
DOCKED: ATOM      1  C   UNL     1      21.581 -10.850  -5.853 -0.42 -0.00    +0.000 A 
DOCKED: ATOM      2  C   UNL     1      21.854 -10.912  -4.479 -0.39 -0.00    +0.000 A 
DOCKED: ATOM      3  C   UNL     1      20.856 -10.592  -3.535 -0.46 -0.00    +0.000 A 
DOCKED: ATOM      4  C   UNL     1      19.590 -10.195  -3.995 -0.33 -0.00    +0.000 A 
DOCKED: ATOM      5  C   UNL     1      19.315 -10.143  -5.365 -0.27 -0.00    +0.000 A 
DOCKED: ATOM      6  C   UNL     1      20.305 -10.473  -6.291 -0.30 -0.00    +0.000 A 
DOCKED: ENDROOT
DOCKED: BRANCH   1   8
DOCKED: ATOM      7  O   UNL     1      22.243 -11.604  -8.348 -0.37 -0.00    +0.000 OA
DOCKED: ATOM      8  S   UNL     1      22.843 -11.231  -7.021 -0.57 -0.00    +0.000 S 
DOCKED: ATOM      9  O   UNL     1      23.645 -12.391  -6.502 -1.17 -0.00    +0.000 OA
DOCKED: BRANCH   8  10
DOCKED: ATOM     10  N   UNL     1      23.891  -9.863  -7.237 -0.29 -0.00    +0.000 N 
DOCKED: ATOM     11  H   UNL     1      23.502  -8.964  -7.142 -0.01 -0.00    +0.000 HD
DOCKED: BRANCH  10  12
DOCKED: ATOM     12  C   UNL     1      25.292  -9.966  -7.547 -0.28 -0.00    +0.000 A 
DOCKED: ATOM     13  C   UNL     1      25.781 -10.890  -8.491 -0.36 -0.00    +0.000 A 
DOCKED: ATOM     14  C   UNL     1      27.149 -10.954  -8.774 -0.34 -0.00    +0.000 A 
DOCKED: ATOM     15  C   UNL     1      28.042 -10.105  -8.117 -0.42 -0.00    +0.000 A 
DOCKED: ATOM     16  C   UNL     1      27.569  -9.191  -7.173 -0.40 -0.00    +0.000 A 
DOCKED: ATOM     17  C   UNL     1      26.202  -9.123  -6.887 -0.27 -0.00    +0.000 A 
DOCKED: ENDBRANCH  10  12
DOCKED: ENDBRANCH   8  10
DOCKED: ENDBRANCH   1   8
DOCKED: BRANCH   3  18
DOCKED: ATOM     18  C   UNL     1      21.102 -10.618  -2.072 -0.52 -0.00    +0.000 C 
DOCKED: ATOM     19  C   UNL     1      20.159 -10.910  -1.163 -0.48 -0.00    +0.000 C 
DOCKED: BRANCH  19  20
DOCKED: ATOM     20  C   UNL     1      20.412 -10.936   0.293 -0.67 -0.00    +0.000 C 
DOCKED: ATOM     21  N   UNL     1      20.118 -12.081   1.102 -0.66 -0.00    +0.000 N 
DOCKED: ATOM     22  O   UNL     1      20.270 -12.019   2.445 -1.98 -0.00    +0.000 OA
DOCKED: ATOM     23  O   UNL     1      20.928  -9.920   0.830 -0.68 -0.00    +0.000 OA
DOCKED: ATOM     24  H   UNL     1      19.805 -12.915   0.680 -0.44 -0.00    +0.000 HD
DOCKED: ENDBRANCH  19  20
DOCKED: ENDBRANCH   3  18
DOCKED: TORSDOF 5
DOCKED: TER
DOCKED: ENDMDL
________________________________________________________________________________


	BEGINNING GENETIC ALGORITHM DOCKING 24 of 100
Run: 24 Seed: 1577713113 358058629 [ Run 24 of 100 GA/GALS ]
Beginning LAMARCKIAN GENETIC ALGORITHM (LGA), with a maximum of 2500000 energy evaluations.

Final-Value: -12.970


	FINAL GENETIC ALGORITHM DOCKED STATE
	_______________________________________________


Detailed state:  trans 18.325 -10.801 -1.191 quatxyzw -0.627951 0.395020 0.366012 -0.561847 center 0.217 0.012 -0.211 ntor 5 -43.7171 160.9312 -103.4555 158.2609 -64.8112
State:	 18.325 -10.801  -1.191  -0.759  0.478  0.442 -111.633    -43.72  160.93 -103.46  158.26  -64.81

DOCKED: MODEL       24
DOCKED: USER    Run = 24
DOCKED: USER    DPF = ligand_dock.biased.dpf
DOCKED: USER  
DOCKED: USER    Estimated Free Energy of Binding    =  -10.49 kcal/mol  [=(1)+(2)+(3)-(4)]
DOCKED: USER    Estimated Inhibition Constant, Ki   =   20.49 nM (nanomolar)  [Temperature = 298.15 K]
DOCKED: USER    
DOCKED: USER    (1) Final Intermolecular Energy     =  -11.98 kcal/mol
DOCKED: USER        vdW + Hbond + desolv Energy     =  -11.98 kcal/mol
DOCKED: USER        Electrostatic Energy            =   +0.00 kcal/mol
DOCKED: USER    (2) Final Total Internal Energy     =   -0.99 kcal/mol
DOCKED: USER    (3) Torsional Free Energy           =   +1.49 kcal/mol
DOCKED: USER    (4) Unbound System's Energy  [=(2)] =   -0.99 kcal/mol
DOCKED: USER    
DOCKED: USER    
DOCKED: USER    NEWDPF move ligand.pdbqt
DOCKED: USER    NEWDPF about 0.217000 0.012000 -0.211000
DOCKED: USER    NEWDPF tran0 18.324558 -10.800920 -1.190593
DOCKED: USER    NEWDPF quaternion0 -0.627951 0.395020 0.366012 -0.561847
DOCKED: USER    NEWDPF axisangle0 -0.759090 0.477515 0.442449 -111.632743
DOCKED: USER    NEWDPF quat0 -0.759090 0.477515 0.442449 -111.632743
DOCKED: USER    NEWDPF dihe0 -43.72 160.93 -103.46 158.26 -64.81 
DOCKED: USER  keepresnum = 1 
DOCKED: USER  
DOCKED: REMARK  Name = 
DOCKED: REMARK  5 active torsions:
DOCKED: REMARK  status: ('A' for Active; 'I' for Inactive)
DOCKED: REMARK    1  A    between atoms: S_2  and  N_3
DOCKED: REMARK    2  A    between atoms: S_2  and  C_10
DOCKED: REMARK    3  A    between atoms: N_3  and  C_4
DOCKED: REMARK    4  A    between atoms: C_12  and  C_13
DOCKED: REMARK    5  A    between atoms: C_14  and  C_15
DOCKED: REMARK                            x       y       z     vdW  Elec       q    Type
DOCKED: REMARK                         _______ _______ _______ _____ _____    ______ ____
DOCKED: USER                              x       y       z     vdW  Elec       q    Type
DOCKED: USER                           _______ _______ _______ _____ _____    ______ ____
DOCKED: ROOT
DOCKED: ATOM      1  C   UNL     1      20.018 -10.690   0.181 -0.55 -0.00    +0.000 A 
DOCKED: ATOM      2  C   UNL     1      19.418 -10.991  -1.051 -0.42 -0.00    +0.000 A 
DOCKED: ATOM      3  C   UNL     1      19.835 -10.336  -2.229 -0.41 -0.00    +0.000 A 
DOCKED: ATOM      4  C   UNL     1      20.848  -9.369  -2.144 -0.48 -0.00    +0.000 A 
DOCKED: ATOM      5  C   UNL     1      21.453  -9.077  -0.918 -0.47 -0.00    +0.000 A 
DOCKED: ATOM      6  C   UNL     1      21.043  -9.738   0.240 -0.57 -0.00    +0.000 A 
DOCKED: ENDROOT
DOCKED: BRANCH   1   8
DOCKED: ATOM      7  O   UNL     1      20.639 -11.832   2.535 -1.81 -0.00    +0.000 OA
DOCKED: ATOM      8  S   UNL     1      19.472 -11.500   1.647 -0.86 -0.00    +0.000 S 
DOCKED: ATOM      9  O   UNL     1      18.771 -12.770   1.263 -0.93 -0.00    +0.000 OA
DOCKED: BRANCH   8  10
DOCKED: ATOM     10  N   UNL     1      18.371 -10.479   2.519 -0.51 -0.00    +0.000 N 
DOCKED: ATOM     11  H   UNL     1      18.742  -9.709   3.007 -0.10 -0.00    +0.000 HD
DOCKED: BRANCH  10  12
DOCKED: ATOM     12  C   UNL     1      16.949 -10.692   2.571 -0.42 +0.00    +0.000 A 
DOCKED: ATOM     13  C   UNL     1      16.182 -10.327   3.695 -0.41 +0.00    +0.000 A 
DOCKED: ATOM     14  C   UNL     1      14.800 -10.540   3.706 -0.41 +0.00    +0.000 A 
DOCKED: ATOM     15  C   UNL     1      14.171 -11.122   2.604 -0.38 +0.00    +0.000 A 
DOCKED: ATOM     16  C   UNL     1      14.923 -11.496   1.488 -0.39 +0.00    +0.000 A 
DOCKED: ATOM     17  C   UNL     1      16.305 -11.285   1.472 -0.38 +0.00    +0.000 A 
DOCKED: ENDBRANCH  10  12
DOCKED: ENDBRANCH   8  10
DOCKED: ENDBRANCH   1   8
DOCKED: BRANCH   3  18
DOCKED: ATOM     18  C   UNL     1      19.215 -10.600  -3.551 -0.40 -0.00    +0.000 C 
DOCKED: ATOM     19  C   UNL     1      19.911 -10.947  -4.645 -0.47 -0.00    +0.000 C 
DOCKED: BRANCH  19  20
DOCKED: ATOM     20  C   UNL     1      19.287 -11.210  -5.958 -0.40 -0.00    +0.000 C 
DOCKED: ATOM     21  N   UNL     1      17.928 -11.645  -6.087 -0.37 -0.00    +0.000 N 
DOCKED: ATOM     22  O   UNL     1      17.434 -11.973  -7.303 -0.47 -0.00    +0.000 OA
DOCKED: ATOM     23  O   UNL     1      19.972 -11.019  -6.998 -0.34 -0.00    +0.000 OA
DOCKED: ATOM     24  H   UNL     1      17.352 -11.705  -5.290 -0.03 -0.00    +0.000 HD
DOCKED: ENDBRANCH  19  20
DOCKED: ENDBRANCH   3  18
DOCKED: TORSDOF 5
DOCKED: TER
DOCKED: ENDMDL
________________________________________________________________________________


	BEGINNING GENETIC ALGORITHM DOCKING 25 of 100
Run: 25 Seed: 599119612 1348768033 [ Run 25 of 100 GA/GALS ]
Beginning LAMARCKIAN GENETIC ALGORITHM (LGA), with a maximum of 2500000 energy evaluations.

Final-Value: -13.120


	FINAL GENETIC ALGORITHM DOCKED STATE
	_______________________________________________


Detailed state:  trans 18.210 -10.599 -1.068 quatxyzw 0.591632 -0.419142 -0.375877 0.577068 center 0.217 0.012 -0.211 ntor 5 -74.5199 -32.2185 -68.3569 -21.8385 42.7959
State:	 18.210 -10.599  -1.068   0.724 -0.513 -0.460 109.511    -74.52  -32.22  -68.36  -21.84   42.80

DOCKED: MODEL       25
DOCKED: USER    Run = 25
DOCKED: USER    DPF = ligand_dock.biased.dpf
DOCKED: USER  
DOCKED: USER    Estimated Free Energy of Binding    =  -10.40 kcal/mol  [=(1)+(2)+(3)-(4)]
DOCKED: USER    Estimated Inhibition Constant, Ki   =   23.83 nM (nanomolar)  [Temperature = 298.15 K]
DOCKED: USER    
DOCKED: USER    (1) Final Intermolecular Energy     =  -11.89 kcal/mol
DOCKED: USER        vdW + Hbond + desolv Energy     =  -11.89 kcal/mol
DOCKED: USER        Electrostatic Energy            =   +0.00 kcal/mol
DOCKED: USER    (2) Final Total Internal Energy     =   -1.23 kcal/mol
DOCKED: USER    (3) Torsional Free Energy           =   +1.49 kcal/mol
DOCKED: USER    (4) Unbound System's Energy  [=(2)] =   -1.23 kcal/mol
DOCKED: USER    
DOCKED: USER    
DOCKED: USER    NEWDPF move ligand.pdbqt
DOCKED: USER    NEWDPF about 0.217000 0.012000 -0.211000
DOCKED: USER    NEWDPF tran0 18.210121 -10.598823 -1.067530
DOCKED: USER    NEWDPF quaternion0 0.591632 -0.419142 -0.375877 0.577068
DOCKED: USER    NEWDPF axisangle0 0.724422 -0.513216 -0.460242 109.510797
DOCKED: USER    NEWDPF quat0 0.724422 -0.513216 -0.460242 109.510797
DOCKED: USER    NEWDPF dihe0 -74.52 -32.22 -68.36 -21.84 42.80 
DOCKED: USER  keepresnum = 1 
DOCKED: USER  
DOCKED: REMARK  Name = 
DOCKED: REMARK  5 active torsions:
DOCKED: REMARK  status: ('A' for Active; 'I' for Inactive)
DOCKED: REMARK    1  A    between atoms: S_2  and  N_3
DOCKED: REMARK    2  A    between atoms: S_2  and  C_10
DOCKED: REMARK    3  A    between atoms: N_3  and  C_4
DOCKED: REMARK    4  A    between atoms: C_12  and  C_13
DOCKED: REMARK    5  A    between atoms: C_14  and  C_15
DOCKED: REMARK                            x       y       z     vdW  Elec       q    Type
DOCKED: REMARK                         _______ _______ _______ _____ _____    ______ ____
DOCKED: USER                              x       y       z     vdW  Elec       q    Type
DOCKED: USER                           _______ _______ _______ _____ _____    ______ ____
DOCKED: ROOT
DOCKED: ATOM      1  C   UNL     1      19.977 -10.657   0.211 -0.55 -0.00    +0.000 A 
DOCKED: ATOM      2  C   UNL     1      19.296 -10.858  -0.998 -0.43 -0.00    +0.000 A 
DOCKED: ATOM      3  C   UNL     1      19.689 -10.169  -2.164 -0.38 -0.00    +0.000 A 
DOCKED: ATOM      4  C   UNL     1      20.762  -9.267  -2.089 -0.46 -0.00    +0.000 A 
DOCKED: ATOM      5  C   UNL     1      21.447  -9.075  -0.886 -0.47 -0.00    +0.000 A 
DOCKED: ATOM      6  C   UNL     1      21.059  -9.770   0.260 -0.58 -0.00    +0.000 A 
DOCKED: ENDROOT
DOCKED: BRANCH   1   8
DOCKED: ATOM      7  O   UNL     1      18.879 -10.547   2.663 -0.67 -0.00    +0.000 OA
DOCKED: ATOM      8  S   UNL     1      19.461 -11.508   1.665 -0.86 -0.00    +0.000 S 
DOCKED: ATOM      9  O   UNL     1      20.655 -12.185   2.275 -1.86 -0.00    +0.000 OA
DOCKED: BRANCH   8  10
DOCKED: ATOM     10  N   UNL     1      18.267 -12.704   1.267 -0.49 +0.00    +0.000 N 
DOCKED: ATOM     11  H   UNL     1      18.541 -13.649   1.271 -0.31 -0.00    +0.000 HD
DOCKED: BRANCH  10  12
DOCKED: ATOM     12  C   UNL     1      16.902 -12.396   0.932 -0.43 +0.00    +0.000 A 
DOCKED: ATOM     13  C   UNL     1      16.148 -11.460   1.666 -0.39 +0.00    +0.000 A 
DOCKED: ATOM     14  C   UNL     1      14.827 -11.178   1.304 -0.35 +0.00    +0.000 A 
DOCKED: ATOM     15  C   UNL     1      14.243 -11.829   0.216 -0.39 +0.00    +0.000 A 
DOCKED: ATOM     16  C   UNL     1      14.979 -12.766  -0.513 -0.48 +0.00    +0.000 A 
DOCKED: ATOM     17  C   UNL     1      16.300 -13.050  -0.156 -0.48 +0.00    +0.000 A 
DOCKED: ENDBRANCH  10  12
DOCKED: ENDBRANCH   8  10
DOCKED: ENDBRANCH   1   8
DOCKED: BRANCH   3  18
DOCKED: ATOM     18  C   UNL     1      18.986 -10.328  -3.462 -0.37 -0.00    +0.000 C 
DOCKED: ATOM     19  C   UNL     1      19.330 -11.234  -4.390 -0.44 -0.00    +0.000 C 
DOCKED: BRANCH  19  20
DOCKED: ATOM     20  C   UNL     1      18.623 -11.387  -5.678 -0.37 -0.00    +0.000 C 
DOCKED: ATOM     21  N   UNL     1      17.216 -11.645  -5.755 -0.30 -0.00    +0.000 N 
DOCKED: ATOM     22  O   UNL     1      16.635 -11.881  -6.954 -0.42 -0.00    +0.000 OA
DOCKED: ATOM     23  O   UNL     1      19.284 -11.261  -6.744 -0.41 -0.00    +0.000 OA
DOCKED: ATOM     24  H   UNL     1      16.671 -11.650  -4.935 -0.02 -0.00    +0.000 HD
DOCKED: ENDBRANCH  19  20
DOCKED: ENDBRANCH   3  18
DOCKED: TORSDOF 5
DOCKED: TER
DOCKED: ENDMDL
________________________________________________________________________________


	BEGINNING GENETIC ALGORITHM DOCKING 26 of 100
Run: 26 Seed: 684905009 613896167 [ Run 26 of 100 GA/GALS ]
Beginning LAMARCKIAN GENETIC ALGORITHM (LGA), with a maximum of 2500000 energy evaluations.

Final-Value: -13.045


	FINAL GENETIC ALGORITHM DOCKED STATE
	_______________________________________________


Detailed state:  trans 18.664 -11.149 -1.547 quatxyzw -0.708297 0.316041 0.352636 -0.523528 center 0.217 0.012 -0.211 ntor 5 130.1526 180.0000 97.7533 -7.0341 23.9623
State:	 18.664 -11.149  -1.547  -0.831  0.371  0.414 -116.862    130.15  180.00   97.75   -7.03   23.96

DOCKED: MODEL       26
DOCKED: USER    Run = 26
DOCKED: USER    DPF = ligand_dock.biased.dpf
DOCKED: USER  
DOCKED: USER    Estimated Free Energy of Binding    =  -10.18 kcal/mol  [=(1)+(2)+(3)-(4)]
DOCKED: USER    Estimated Inhibition Constant, Ki   =   34.77 nM (nanomolar)  [Temperature = 298.15 K]
DOCKED: USER    
DOCKED: USER    (1) Final Intermolecular Energy     =  -11.67 kcal/mol
DOCKED: USER        vdW + Hbond + desolv Energy     =  -11.67 kcal/mol
DOCKED: USER        Electrostatic Energy            =   +0.00 kcal/mol
DOCKED: USER    (2) Final Total Internal Energy     =   -1.38 kcal/mol
DOCKED: USER    (3) Torsional Free Energy           =   +1.49 kcal/mol
DOCKED: USER    (4) Unbound System's Energy  [=(2)] =   -1.38 kcal/mol
DOCKED: USER    
DOCKED: USER    
DOCKED: USER    NEWDPF move ligand.pdbqt
DOCKED: USER    NEWDPF about 0.217000 0.012000 -0.211000
DOCKED: USER    NEWDPF tran0 18.664156 -11.148750 -1.546737
DOCKED: USER    NEWDPF quaternion0 -0.708297 0.316041 0.352636 -0.523528
DOCKED: USER    NEWDPF axisangle0 -0.831326 0.370936 0.413887 -116.861661
DOCKED: USER    NEWDPF quat0 -0.831326 0.370936 0.413887 -116.861661
DOCKED: USER    NEWDPF dihe0 130.15 180.00 97.75 -7.03 23.96 
DOCKED: USER  keepresnum = 1 
DOCKED: USER  
DOCKED: REMARK  Name = 
DOCKED: REMARK  5 active torsions:
DOCKED: REMARK  status: ('A' for Active; 'I' for Inactive)
DOCKED: REMARK    1  A    between atoms: S_2  and  N_3
DOCKED: REMARK    2  A    between atoms: S_2  and  C_10
DOCKED: REMARK    3  A    between atoms: N_3  and  C_4
DOCKED: REMARK    4  A    between atoms: C_12  and  C_13
DOCKED: REMARK    5  A    between atoms: C_14  and  C_15
DOCKED: REMARK                            x       y       z     vdW  Elec       q    Type
DOCKED: REMARK                         _______ _______ _______ _____ _____    ______ ____
DOCKED: USER                              x       y       z     vdW  Elec       q    Type
DOCKED: USER                           _______ _______ _______ _____ _____    ______ ____
DOCKED: ROOT
DOCKED: ATOM      1  C   UNL     1      20.104 -10.627   0.007 -0.55 -0.00    +0.000 A 
DOCKED: ATOM      2  C   UNL     1      19.743 -11.126  -1.252 -0.29 -0.00    +0.000 A 
DOCKED: ATOM      3  C   UNL     1      20.206 -10.502  -2.430 -0.44 -0.00    +0.000 A 
DOCKED: ATOM      4  C   UNL     1      21.020  -9.364  -2.318 -0.49 -0.00    +0.000 A 
DOCKED: ATOM      5  C   UNL     1      21.388  -8.872  -1.063 -0.48 -0.00    +0.000 A 
DOCKED: ATOM      6  C   UNL     1      20.936  -9.503   0.097 -0.48 -0.00    +0.000 A 
DOCKED: ENDROOT
DOCKED: BRANCH   1   8
DOCKED: ATOM      7  O   UNL     1      18.919 -10.384   2.408 -0.66 -0.00    +0.000 OA
DOCKED: ATOM      8  S   UNL     1      19.501 -11.403   1.469 -0.84 -0.00    +0.000 S 
DOCKED: ATOM      9  O   UNL     1      20.643 -12.101   2.149 -1.90 -0.00    +0.000 OA
DOCKED: BRANCH   8  10
DOCKED: ATOM     10  N   UNL     1      18.277 -12.567   1.067 -0.52 -0.00    +0.000 N 
DOCKED: ATOM     11  H   UNL     1      18.431 -13.505   1.323 -0.33 -0.00    +0.000 HD
DOCKED: BRANCH  10  12
DOCKED: ATOM     12  C   UNL     1      17.054 -12.243   0.383 -0.46 +0.00    +0.000 A 
DOCKED: ATOM     13  C   UNL     1      16.208 -13.239  -0.142 -0.46 +0.00    +0.000 A 
DOCKED: ATOM     14  C   UNL     1      15.021 -12.886  -0.792 -0.45 +0.00    +0.000 A 
DOCKED: ATOM     15  C   UNL     1      14.669 -11.542  -0.931 -0.35 +0.00    +0.000 A 
DOCKED: ATOM     16  C   UNL     1      15.506 -10.547  -0.422 -0.27 +0.00    +0.000 A 
DOCKED: ATOM     17  C   UNL     1      16.692 -10.894   0.229 -0.32 +0.00    +0.000 A 
DOCKED: ENDBRANCH  10  12
DOCKED: ENDBRANCH   8  10
DOCKED: ENDBRANCH   1   8
DOCKED: BRANCH   3  18
DOCKED: ATOM     18  C   UNL     1      19.832 -10.977  -3.786 -0.47 -0.00    +0.000 C 
DOCKED: ATOM     19  C   UNL     1      18.627 -10.774  -4.340 -0.32 -0.00    +0.000 C 
DOCKED: BRANCH  19  20
DOCKED: ATOM     20  C   UNL     1      18.263 -11.247  -5.692 -0.37 -0.00    +0.000 C 
DOCKED: ATOM     21  N   UNL     1      16.929 -11.642  -6.033 -0.32 -0.00    +0.000 N 
DOCKED: ATOM     22  O   UNL     1      16.668 -12.167  -7.252 -0.45 -0.00    +0.000 OA
DOCKED: ATOM     23  O   UNL     1      19.158 -11.278  -6.578 -0.42 -0.00    +0.000 OA
DOCKED: ATOM     24  H   UNL     1      16.201 -11.532  -5.379 -0.02 -0.00    +0.000 HD
DOCKED: ENDBRANCH  19  20
DOCKED: ENDBRANCH   3  18
DOCKED: TORSDOF 5
DOCKED: TER
DOCKED: ENDMDL
________________________________________________________________________________


	BEGINNING GENETIC ALGORITHM DOCKING 27 of 100
Run: 27 Seed: 797714829 1235258458 [ Run 27 of 100 GA/GALS ]
Beginning LAMARCKIAN GENETIC ALGORITHM (LGA), with a maximum of 2500000 energy evaluations.

Final-Value: -13.085


	FINAL GENETIC ALGORITHM DOCKED STATE
	_______________________________________________


Detailed state:  trans 18.419 -11.041 -1.023 quatxyzw -0.672066 0.410164 0.353942 -0.504795 center 0.217 0.012 -0.211 ntor 5 20.0592 153.2652 -157.3297 139.9542 -43.2837
State:	 18.419 -11.041  -1.023  -0.779  0.475  0.410 -119.365     20.06  153.27 -157.33  139.95  -43.28

DOCKED: MODEL       27
DOCKED: USER    Run = 27
DOCKED: USER    DPF = ligand_dock.biased.dpf
DOCKED: USER  
DOCKED: USER    Estimated Free Energy of Binding    =  -10.47 kcal/mol  [=(1)+(2)+(3)-(4)]
DOCKED: USER    Estimated Inhibition Constant, Ki   =   21.08 nM (nanomolar)  [Temperature = 298.15 K]
DOCKED: USER    
DOCKED: USER    (1) Final Intermolecular Energy     =  -11.96 kcal/mol
DOCKED: USER        vdW + Hbond + desolv Energy     =  -11.96 kcal/mol
DOCKED: USER        Electrostatic Energy            =   +0.00 kcal/mol
DOCKED: USER    (2) Final Total Internal Energy     =   -1.12 kcal/mol
DOCKED: USER    (3) Torsional Free Energy           =   +1.49 kcal/mol
DOCKED: USER    (4) Unbound System's Energy  [=(2)] =   -1.12 kcal/mol
DOCKED: USER    
DOCKED: USER    
DOCKED: USER    NEWDPF move ligand.pdbqt
DOCKED: USER    NEWDPF about 0.217000 0.012000 -0.211000
DOCKED: USER    NEWDPF tran0 18.419130 -11.040810 -1.022774
DOCKED: USER    NEWDPF quaternion0 -0.672066 0.410164 0.353942 -0.504795
DOCKED: USER    NEWDPF axisangle0 -0.778539 0.475145 0.410017 -119.364526
DOCKED: USER    NEWDPF quat0 -0.778539 0.475145 0.410017 -119.364526
DOCKED: USER    NEWDPF dihe0 20.06 153.27 -157.33 139.95 -43.28 
DOCKED: USER  keepresnum = 1 
DOCKED: USER  
DOCKED: REMARK  Name = 
DOCKED: REMARK  5 active torsions:
DOCKED: REMARK  status: ('A' for Active; 'I' for Inactive)
DOCKED: REMARK    1  A    between atoms: S_2  and  N_3
DOCKED: REMARK    2  A    between atoms: S_2  and  C_10
DOCKED: REMARK    3  A    between atoms: N_3  and  C_4
DOCKED: REMARK    4  A    between atoms: C_12  and  C_13
DOCKED: REMARK    5  A    between atoms: C_14  and  C_15
DOCKED: REMARK                            x       y       z     vdW  Elec       q    Type
DOCKED: REMARK                         _______ _______ _______ _____ _____    ______ ____
DOCKED: USER                              x       y       z     vdW  Elec       q    Type
DOCKED: USER                           _______ _______ _______ _____ _____    ______ ____
DOCKED: ROOT
DOCKED: ATOM      1  C   UNL     1      20.122 -10.665   0.289 -0.57 -0.00    +0.000 A 
DOCKED: ATOM      2  C   UNL     1      19.522 -11.162  -0.877 -0.41 -0.00    +0.000 A 
DOCKED: ATOM      3  C   UNL     1      19.895 -10.664  -2.143 -0.41 -0.00    +0.000 A 
DOCKED: ATOM      4  C   UNL     1      20.865  -9.651  -2.213 -0.50 -0.00    +0.000 A 
DOCKED: ATOM      5  C   UNL     1      21.470  -9.163  -1.052 -0.46 -0.00    +0.000 A 
DOCKED: ATOM      6  C   UNL     1      21.104  -9.671   0.195 -0.54 -0.00    +0.000 A 
DOCKED: ENDROOT
DOCKED: BRANCH   1   8
DOCKED: ATOM      7  O   UNL     1      20.661 -10.952   2.907 -1.35 -0.00    +0.000 OA
DOCKED: ATOM      8  S   UNL     1      19.630 -11.280   1.865 -0.88 -0.00    +0.000 S 
DOCKED: ATOM      9  O   UNL     1      19.482 -12.772   1.774 -1.47 -0.00    +0.000 OA
DOCKED: BRANCH   8  10
DOCKED: ATOM     10  N   UNL     1      18.110 -10.582   2.332 -0.48 -0.00    +0.000 N 
DOCKED: ATOM     11  H   UNL     1      18.126  -9.762   2.876 -0.04 -0.00    +0.000 HD
DOCKED: BRANCH  10  12
DOCKED: ATOM     12  C   UNL     1      16.829 -11.131   1.972 -0.39 +0.00    +0.000 A 
DOCKED: ATOM     13  C   UNL     1      15.744 -11.137   2.869 -0.45 +0.00    +0.000 A 
DOCKED: ATOM     14  C   UNL     1      14.510 -11.670   2.481 -0.44 +0.00    +0.000 A 
DOCKED: ATOM     15  C   UNL     1      14.349 -12.206   1.201 -0.37 +0.00    +0.000 A 
DOCKED: ATOM     16  C   UNL     1      15.422 -12.213   0.308 -0.44 +0.00    +0.000 A 
DOCKED: ATOM     17  C   UNL     1      16.656 -11.681   0.691 -0.40 +0.00    +0.000 A 
DOCKED: ENDBRANCH  10  12
DOCKED: ENDBRANCH   8  10
DOCKED: ENDBRANCH   1   8
DOCKED: BRANCH   3  18
DOCKED: ATOM     18  C   UNL     1      19.272 -11.138  -3.404 -0.37 -0.00    +0.000 C 
DOCKED: ATOM     19  C   UNL     1      19.608 -10.679  -4.619 -0.42 -0.00    +0.000 C 
DOCKED: BRANCH  19  20
DOCKED: ATOM     20  C   UNL     1      18.985 -11.158  -5.871 -0.40 -0.00    +0.000 C 
DOCKED: ATOM     21  N   UNL     1      17.590 -11.473  -5.962 -0.35 -0.00    +0.000 N 
DOCKED: ATOM     22  O   UNL     1      17.089 -12.007  -7.099 -0.46 -0.00    +0.000 OA
DOCKED: ATOM     23  O   UNL     1      19.708 -11.267  -6.897 -0.36 -0.00    +0.000 OA
DOCKED: ATOM     24  H   UNL     1      16.996 -11.300  -5.195 -0.02 -0.00    +0.000 HD
DOCKED: ENDBRANCH  19  20
DOCKED: ENDBRANCH   3  18
DOCKED: TORSDOF 5
DOCKED: TER
DOCKED: ENDMDL
________________________________________________________________________________


	BEGINNING GENETIC ALGORITHM DOCKING 28 of 100
Run: 28 Seed: 1316074957 1301258140 [ Run 28 of 100 GA/GALS ]
Beginning LAMARCKIAN GENETIC ALGORITHM (LGA), with a maximum of 2500000 energy evaluations.

Final-Value: -13.041


	FINAL GENETIC ALGORITHM DOCKED STATE
	_______________________________________________


Detailed state:  trans 18.272 -10.511 -0.652 quatxyzw -0.563183 0.510291 0.364650 -0.538014 center 0.217 0.012 -0.211 ntor 5 167.5279 163.3543 -110.3068 148.5010 -38.7756
State:	 18.272 -10.511  -0.652  -0.668  0.605  0.433 -114.903    167.53  163.35 -110.31  148.50  -38.78

DOCKED: MODEL       28
DOCKED: USER    Run = 28
DOCKED: USER    DPF = ligand_dock.biased.dpf
DOCKED: USER  
DOCKED: USER    Estimated Free Energy of Binding    =  -10.50 kcal/mol  [=(1)+(2)+(3)-(4)]
DOCKED: USER    Estimated Inhibition Constant, Ki   =   20.10 nM (nanomolar)  [Temperature = 298.15 K]
DOCKED: USER    
DOCKED: USER    (1) Final Intermolecular Energy     =  -11.99 kcal/mol
DOCKED: USER        vdW + Hbond + desolv Energy     =  -11.99 kcal/mol
DOCKED: USER        Electrostatic Energy            =   +0.00 kcal/mol
DOCKED: USER    (2) Final Total Internal Energy     =   -1.05 kcal/mol
DOCKED: USER    (3) Torsional Free Energy           =   +1.49 kcal/mol
DOCKED: USER    (4) Unbound System's Energy  [=(2)] =   -1.05 kcal/mol
DOCKED: USER    
DOCKED: USER    
DOCKED: USER    NEWDPF move ligand.pdbqt
DOCKED: USER    NEWDPF about 0.217000 0.012000 -0.211000
DOCKED: USER    NEWDPF tran0 18.272040 -10.510908 -0.651571
DOCKED: USER    NEWDPF quaternion0 -0.563183 0.510291 0.364650 -0.538014
DOCKED: USER    NEWDPF axisangle0 -0.668121 0.605373 0.432595 -114.902956
DOCKED: USER    NEWDPF quat0 -0.668121 0.605373 0.432595 -114.902956
DOCKED: USER    NEWDPF dihe0 167.53 163.35 -110.31 148.50 -38.78 
DOCKED: USER  keepresnum = 1 
DOCKED: USER  
DOCKED: REMARK  Name = 
DOCKED: REMARK  5 active torsions:
DOCKED: REMARK  status: ('A' for Active; 'I' for Inactive)
DOCKED: REMARK    1  A    between atoms: S_2  and  N_3
DOCKED: REMARK    2  A    between atoms: S_2  and  C_10
DOCKED: REMARK    3  A    between atoms: N_3  and  C_4
DOCKED: REMARK    4  A    between atoms: C_12  and  C_13
DOCKED: REMARK    5  A    between atoms: C_14  and  C_15
DOCKED: REMARK                            x       y       z     vdW  Elec       q    Type
DOCKED: REMARK                         _______ _______ _______ _____ _____    ______ ____
DOCKED: USER                              x       y       z     vdW  Elec       q    Type
DOCKED: USER                           _______ _______ _______ _____ _____    ______ ____
DOCKED: ROOT
DOCKED: ATOM      1  C   UNL     1      20.194 -10.678   0.367 -0.58 -0.00    +0.000 A 
DOCKED: ATOM      2  C   UNL     1      19.322 -10.893  -0.709 -0.45 -0.00    +0.000 A 
DOCKED: ATOM      3  C   UNL     1      19.606 -10.356  -1.982 -0.39 -0.00    +0.000 A 
DOCKED: ATOM      4  C   UNL     1      20.770  -9.587  -2.147 -0.49 -0.00    +0.000 A 
DOCKED: ATOM      5  C   UNL     1      21.645  -9.381  -1.077 -0.34 -0.00    +0.000 A 
DOCKED: ATOM      6  C   UNL     1      21.361  -9.927   0.175 -0.58 -0.00    +0.000 A 
DOCKED: ENDROOT
DOCKED: BRANCH   1   8
DOCKED: ATOM      7  O   UNL     1      21.014 -11.267   2.859 -1.30 -0.00    +0.000 OA
DOCKED: ATOM      8  S   UNL     1      19.815 -11.337   1.956 -0.90 -0.00    +0.000 S 
DOCKED: ATOM      9  O   UNL     1      19.404 -12.772   1.795 -1.41 -0.00    +0.000 OA
DOCKED: BRANCH   8  10
DOCKED: ATOM     10  N   UNL     1      18.510 -10.446   2.677 -0.53 -0.00    +0.000 N 
DOCKED: ATOM     11  H   UNL     1      18.728  -9.614   3.156 -0.11 -0.00    +0.000 HD
DOCKED: BRANCH  10  12
DOCKED: ATOM     12  C   UNL     1      17.131 -10.851   2.616 -0.43 +0.00    +0.000 A 
DOCKED: ATOM     13  C   UNL     1      16.210 -10.511   3.626 -0.45 +0.00    +0.000 A 
DOCKED: ATOM     14  C   UNL     1      14.874 -10.914   3.528 -0.42 +0.00    +0.000 A 
DOCKED: ATOM     15  C   UNL     1      14.445 -11.663   2.431 -0.43 +0.00    +0.000 A 
DOCKED: ATOM     16  C   UNL     1      15.353 -12.013   1.429 -0.43 +0.00    +0.000 A 
DOCKED: ATOM     17  C   UNL     1      16.688 -11.613   1.521 -0.39 +0.00    +0.000 A 
DOCKED: ENDBRANCH  10  12
DOCKED: ENDBRANCH   8  10
DOCKED: ENDBRANCH   1   8
DOCKED: BRANCH   3  18
DOCKED: ATOM     18  C   UNL     1      18.703 -10.534  -3.146 -0.36 -0.00    +0.000 C 
DOCKED: ATOM     19  C   UNL     1      19.124 -10.904  -4.365 -0.41 -0.00    +0.000 C 
DOCKED: BRANCH  19  20
DOCKED: ATOM     20  C   UNL     1      18.217 -11.082  -5.519 -0.35 -0.00    +0.000 C 
DOCKED: ATOM     21  N   UNL     1      18.672 -11.587  -6.780 -0.34 -0.00    +0.000 N 
DOCKED: ATOM     22  O   UNL     1      17.827 -11.633  -7.836 -0.39 -0.00    +0.000 OA
DOCKED: ATOM     23  O   UNL     1      16.998 -10.801  -5.373 -0.29 -0.00    +0.000 OA
DOCKED: ATOM     24  H   UNL     1      19.600 -11.900  -6.879 -0.21 -0.00    +0.000 HD
DOCKED: ENDBRANCH  19  20
DOCKED: ENDBRANCH   3  18
DOCKED: TORSDOF 5
DOCKED: TER
DOCKED: ENDMDL
________________________________________________________________________________


	BEGINNING GENETIC ALGORITHM DOCKING 29 of 100
Run: 29 Seed: 2134918430 2084868822 [ Run 29 of 100 GA/GALS ]
Beginning LAMARCKIAN GENETIC ALGORITHM (LGA), with a maximum of 2500000 energy evaluations.

Final-Value: -12.438


	FINAL GENETIC ALGORITHM DOCKED STATE
	_______________________________________________


Detailed state:  trans 20.129 -7.916 -1.153 quatxyzw -0.648306 0.600434 0.183332 0.430776 center 0.217 0.012 -0.211 ntor 5 -158.4470 -14.7967 -22.9028 -179.1482 -46.0405
State:	 20.129  -7.916  -1.153  -0.718  0.665  0.203 128.966   -158.45  -14.80  -22.90 -179.15  -46.04

DOCKED: MODEL       29
DOCKED: USER    Run = 29
DOCKED: USER    DPF = ligand_dock.biased.dpf
DOCKED: USER  
DOCKED: USER    Estimated Free Energy of Binding    =  -10.06 kcal/mol  [=(1)+(2)+(3)-(4)]
DOCKED: USER    Estimated Inhibition Constant, Ki   =   42.46 nM (nanomolar)  [Temperature = 298.15 K]
DOCKED: USER    
DOCKED: USER    (1) Final Intermolecular Energy     =  -11.55 kcal/mol
DOCKED: USER        vdW + Hbond + desolv Energy     =  -11.55 kcal/mol
DOCKED: USER        Electrostatic Energy            =   +0.00 kcal/mol
DOCKED: USER    (2) Final Total Internal Energy     =   -0.89 kcal/mol
DOCKED: USER    (3) Torsional Free Energy           =   +1.49 kcal/mol
DOCKED: USER    (4) Unbound System's Energy  [=(2)] =   -0.89 kcal/mol
DOCKED: USER    
DOCKED: USER    
DOCKED: USER    NEWDPF move ligand.pdbqt
DOCKED: USER    NEWDPF about 0.217000 0.012000 -0.211000
DOCKED: USER    NEWDPF tran0 20.128880 -7.916395 -1.153312
DOCKED: USER    NEWDPF quaternion0 -0.648306 0.600434 0.183332 0.430776
DOCKED: USER    NEWDPF axisangle0 -0.718377 0.665331 0.203147 128.966337
DOCKED: USER    NEWDPF quat0 -0.718377 0.665331 0.203147 128.966337
DOCKED: USER    NEWDPF dihe0 -158.45 -14.80 -22.90 -179.15 -46.04 
DOCKED: USER  keepresnum = 1 
DOCKED: USER  
DOCKED: REMARK  Name = 
DOCKED: REMARK  5 active torsions:
DOCKED: REMARK  status: ('A' for Active; 'I' for Inactive)
DOCKED: REMARK    1  A    between atoms: S_2  and  N_3
DOCKED: REMARK    2  A    between atoms: S_2  and  C_10
DOCKED: REMARK    3  A    between atoms: N_3  and  C_4
DOCKED: REMARK    4  A    between atoms: C_12  and  C_13
DOCKED: REMARK    5  A    between atoms: C_14  and  C_15
DOCKED: REMARK                            x       y       z     vdW  Elec       q    Type
DOCKED: REMARK                         _______ _______ _______ _____ _____    ______ ____
DOCKED: USER                              x       y       z     vdW  Elec       q    Type
DOCKED: USER                           _______ _______ _______ _____ _____    ______ ____
DOCKED: ROOT
DOCKED: ATOM      1  C   UNL     1      21.369  -7.590  -2.919 -0.38 -0.00    +0.000 A 
DOCKED: ATOM      2  C   UNL     1      21.014  -8.265  -1.742 -0.42 -0.00    +0.000 A 
DOCKED: ATOM      3  C   UNL     1      20.642  -9.625  -1.780 -0.50 -0.00    +0.000 A 
DOCKED: ATOM      4  C   UNL     1      20.617 -10.285  -3.019 -0.46 -0.00    +0.000 A 
DOCKED: ATOM      5  C   UNL     1      20.980  -9.615  -4.191 -0.37 -0.00    +0.000 A 
DOCKED: ATOM      6  C   UNL     1      21.359  -8.273  -4.141 -0.31 -0.00    +0.000 A 
DOCKED: ENDROOT
DOCKED: BRANCH   1   8
DOCKED: ATOM      7  O   UNL     1      22.609  -5.501  -4.073 -0.22 -0.00    +0.000 OA
DOCKED: ATOM      8  S   UNL     1      21.810  -5.885  -2.859 -0.45 -0.00    +0.000 S 
DOCKED: ATOM      9  O   UNL     1      22.640  -5.646  -1.630 -0.49 +0.00    +0.000 OA
DOCKED: BRANCH   8  10
DOCKED: ATOM     10  N   UNL     1      20.382  -4.900  -2.785 -0.26 -0.00    +0.000 N 
DOCKED: ATOM     11  H   UNL     1      19.681  -5.053  -3.458 -0.02 -0.00    +0.000 HD
DOCKED: BRANCH  10  12
DOCKED: ATOM     12  C   UNL     1      20.164  -3.873  -1.801 -0.28 -0.00    +0.000 A 
DOCKED: ATOM     13  C   UNL     1      20.767  -3.921  -0.529 -0.37 +0.00    +0.000 A 
DOCKED: ATOM     14  C   UNL     1      20.540  -2.899   0.399 -0.38 +0.00    +0.000 A 
DOCKED: ATOM     15  C   UNL     1      19.708  -1.827   0.072 -0.24 -0.00    +0.000 A 
DOCKED: ATOM     16  C   UNL     1      19.098  -1.775  -1.183 -0.14 -0.00    +0.000 A 
DOCKED: ATOM     17  C   UNL     1      19.322  -2.793  -2.114 -0.16 -0.00    +0.000 A 
DOCKED: ENDBRANCH  10  12
DOCKED: ENDBRANCH   8  10
DOCKED: ENDBRANCH   1   8
DOCKED: BRANCH   3  18
DOCKED: ATOM     18  C   UNL     1      20.234 -10.377  -0.568 -0.60 -0.00    +0.000 C 
DOCKED: ATOM     19  C   UNL     1      20.897 -10.326   0.598 -0.67 -0.00    +0.000 C 
DOCKED: BRANCH  19  20
DOCKED: ATOM     20  C   UNL     1      20.484 -11.076   1.802 -0.72 -0.00    +0.000 C 
DOCKED: ATOM     21  N   UNL     1      20.560 -10.516   3.119 -0.65 -0.00    +0.000 N 
DOCKED: ATOM     22  O   UNL     1      20.269 -11.278   4.198 -1.10 -0.00    +0.000 OA
DOCKED: ATOM     23  O   UNL     1      20.025 -12.241   1.656 -1.76 -0.00    +0.000 OA
DOCKED: ATOM     24  H   UNL     1      20.825  -9.575   3.238 -0.60 -0.00    +0.000 HD
DOCKED: ENDBRANCH  19  20
DOCKED: ENDBRANCH   3  18
DOCKED: TORSDOF 5
DOCKED: TER
DOCKED: ENDMDL
________________________________________________________________________________


	BEGINNING GENETIC ALGORITHM DOCKING 30 of 100
Run: 30 Seed: 103240732 877143816 [ Run 30 of 100 GA/GALS ]
Beginning LAMARCKIAN GENETIC ALGORITHM (LGA), with a maximum of 2500000 energy evaluations.

Final-Value: -13.060


	FINAL GENETIC ALGORITHM DOCKED STATE
	_______________________________________________


Detailed state:  trans 18.252 -10.658 -0.839 quatxyzw 0.567017 -0.427641 -0.424546 0.561583 center 0.217 0.012 -0.211 ntor 5 136.2326 -38.4622 -69.7421 -6.5952 38.2462
State:	 18.252 -10.658  -0.839   0.685 -0.517 -0.513 111.669    136.23  -38.46  -69.74   -6.60   38.25

DOCKED: MODEL       30
DOCKED: USER    Run = 30
DOCKED: USER    DPF = ligand_dock.biased.dpf
DOCKED: USER  
DOCKED: USER    Estimated Free Energy of Binding    =  -10.26 kcal/mol  [=(1)+(2)+(3)-(4)]
DOCKED: USER    Estimated Inhibition Constant, Ki   =   29.92 nM (nanomolar)  [Temperature = 298.15 K]
DOCKED: USER    
DOCKED: USER    (1) Final Intermolecular Energy     =  -11.76 kcal/mol
DOCKED: USER        vdW + Hbond + desolv Energy     =  -11.76 kcal/mol
DOCKED: USER        Electrostatic Energy            =   +0.00 kcal/mol
DOCKED: USER    (2) Final Total Internal Energy     =   -1.30 kcal/mol
DOCKED: USER    (3) Torsional Free Energy           =   +1.49 kcal/mol
DOCKED: USER    (4) Unbound System's Energy  [=(2)] =   -1.30 kcal/mol
DOCKED: USER    
DOCKED: USER    
DOCKED: USER    NEWDPF move ligand.pdbqt
DOCKED: USER    NEWDPF about 0.217000 0.012000 -0.211000
DOCKED: USER    NEWDPF tran0 18.251660 -10.658268 -0.838722
DOCKED: USER    NEWDPF quaternion0 0.567017 -0.427641 -0.424546 0.561583
DOCKED: USER    NEWDPF axisangle0 0.685283 -0.516837 -0.513096 111.669308
DOCKED: USER    NEWDPF quat0 0.685283 -0.516837 -0.513096 111.669308
DOCKED: USER    NEWDPF dihe0 136.23 -38.46 -69.74 -6.60 38.25 
DOCKED: USER  keepresnum = 1 
DOCKED: USER  
DOCKED: REMARK  Name = 
DOCKED: REMARK  5 active torsions:
DOCKED: REMARK  status: ('A' for Active; 'I' for Inactive)
DOCKED: REMARK    1  A    between atoms: S_2  and  N_3
DOCKED: REMARK    2  A    between atoms: S_2  and  C_10
DOCKED: REMARK    3  A    between atoms: N_3  and  C_4
DOCKED: REMARK    4  A    between atoms: C_12  and  C_13
DOCKED: REMARK    5  A    between atoms: C_14  and  C_15
DOCKED: REMARK                            x       y       z     vdW  Elec       q    Type
DOCKED: REMARK                         _______ _______ _______ _____ _____    ______ ____
DOCKED: USER                              x       y       z     vdW  Elec       q    Type
DOCKED: USER                           _______ _______ _______ _____ _____    ______ ____
DOCKED: ROOT
DOCKED: ATOM      1  C   UNL     1      20.138 -10.702   0.257 -0.57 -0.00    +0.000 A 
DOCKED: ATOM      2  C   UNL     1      19.348 -10.877  -0.888 -0.44 -0.00    +0.000 A 
DOCKED: ATOM      3  C   UNL     1      19.598 -10.124  -2.054 -0.35 -0.00    +0.000 A 
DOCKED: ATOM      4  C   UNL     1      20.641  -9.185  -2.043 -0.44 -0.00    +0.000 A 
DOCKED: ATOM      5  C   UNL     1      21.436  -9.017  -0.905 -0.47 -0.00    +0.000 A 
DOCKED: ATOM      6  C   UNL     1      21.188  -9.775   0.240 -0.58 -0.00    +0.000 A 
DOCKED: ENDROOT
DOCKED: BRANCH   1   8
DOCKED: ATOM      7  O   UNL     1      19.392 -10.726   2.840 -0.80 -0.00    +0.000 OA
DOCKED: ATOM      8  S   UNL     1      19.800 -11.633   1.714 -0.91 -0.00    +0.000 S 
DOCKED: ATOM      9  O   UNL     1      21.043 -12.377   2.108 -1.54 -0.00    +0.000 OA
DOCKED: BRANCH   8  10
DOCKED: ATOM     10  N   UNL     1      18.523 -12.771   1.413 -0.47 -0.00    +0.000 N 
DOCKED: ATOM     11  H   UNL     1      18.716 -13.727   1.546 -0.40 -0.00    +0.000 HD
DOCKED: BRANCH  10  12
DOCKED: ATOM     12  C   UNL     1      17.201 -12.401   0.981 -0.44 +0.00    +0.000 A 
DOCKED: ATOM     13  C   UNL     1      16.453 -11.408   1.643 -0.39 +0.00    +0.000 A 
DOCKED: ATOM     14  C   UNL     1      15.175 -11.067   1.188 -0.33 +0.00    +0.000 A 
DOCKED: ATOM     15  C   UNL     1      14.629 -11.714   0.078 -0.38 +0.00    +0.000 A 
DOCKED: ATOM     16  C   UNL     1      15.360 -12.706  -0.579 -0.46 +0.00    +0.000 A 
DOCKED: ATOM     17  C   UNL     1      16.637 -13.050  -0.130 -0.47 +0.00    +0.000 A 
DOCKED: ENDBRANCH  10  12
DOCKED: ENDBRANCH   8  10
DOCKED: ENDBRANCH   1   8
DOCKED: BRANCH   3  18
DOCKED: ATOM     18  C   UNL     1      18.775 -10.255  -3.282 -0.35 -0.00    +0.000 C 
DOCKED: ATOM     19  C   UNL     1      19.071 -11.087  -4.292 -0.37 -0.00    +0.000 C 
DOCKED: BRANCH  19  20
DOCKED: ATOM     20  C   UNL     1      18.246 -11.214  -5.511 -0.35 -0.00    +0.000 C 
DOCKED: ATOM     21  N   UNL     1      18.789 -11.646  -6.764 -0.31 -0.00    +0.000 N 
DOCKED: ATOM     22  O   UNL     1      18.016 -11.645  -7.875 -0.36 -0.00    +0.000 OA
DOCKED: ATOM     23  O   UNL     1      17.015 -10.954  -5.432 -0.31 -0.00    +0.000 OA
DOCKED: ATOM     24  H   UNL     1      19.726 -11.944  -6.817 -0.24 -0.00    +0.000 HD
DOCKED: ENDBRANCH  19  20
DOCKED: ENDBRANCH   3  18
DOCKED: TORSDOF 5
DOCKED: TER
DOCKED: ENDMDL
________________________________________________________________________________


	BEGINNING GENETIC ALGORITHM DOCKING 31 of 100
Run: 31 Seed: 636112957 954197683 [ Run 31 of 100 GA/GALS ]
Beginning LAMARCKIAN GENETIC ALGORITHM (LGA), with a maximum of 2500000 energy evaluations.

Final-Value: -11.984


	FINAL GENETIC ALGORITHM DOCKED STATE
	_______________________________________________


Detailed state:  trans 16.091 -10.036 4.701 quatxyzw -0.672029 -0.333319 0.365361 0.551169 center 0.217 0.012 -0.211 ntor 5 -99.7137 143.8450 177.7359 -169.9927 178.0515
State:	 16.091 -10.036   4.701  -0.805 -0.399  0.438 113.106    -99.71  143.84  177.74 -169.99  178.05

DOCKED: MODEL       31
DOCKED: USER    Run = 31
DOCKED: USER    DPF = ligand_dock.biased.dpf
DOCKED: USER  
DOCKED: USER    Estimated Free Energy of Binding    =   -9.59 kcal/mol  [=(1)+(2)+(3)-(4)]
DOCKED: USER    Estimated Inhibition Constant, Ki   =   93.12 nM (nanomolar)  [Temperature = 298.15 K]
DOCKED: USER    
DOCKED: USER    (1) Final Intermolecular Energy     =  -11.08 kcal/mol
DOCKED: USER        vdW + Hbond + desolv Energy     =  -11.08 kcal/mol
DOCKED: USER        Electrostatic Energy            =   +0.00 kcal/mol
DOCKED: USER    (2) Final Total Internal Energy     =   -0.90 kcal/mol
DOCKED: USER    (3) Torsional Free Energy           =   +1.49 kcal/mol
DOCKED: USER    (4) Unbound System's Energy  [=(2)] =   -0.90 kcal/mol
DOCKED: USER    
DOCKED: USER    
DOCKED: USER    NEWDPF move ligand.pdbqt
DOCKED: USER    NEWDPF about 0.217000 0.012000 -0.211000
DOCKED: USER    NEWDPF tran0 16.091371 -10.036494 4.701245
DOCKED: USER    NEWDPF quaternion0 -0.672029 -0.333319 0.365361 0.551169
DOCKED: USER    NEWDPF axisangle0 -0.805409 -0.399475 0.437876 113.105552
DOCKED: USER    NEWDPF quat0 -0.805409 -0.399475 0.437876 113.105552
DOCKED: USER    NEWDPF dihe0 -99.71 143.84 177.74 -169.99 178.05 
DOCKED: USER  keepresnum = 1 
DOCKED: USER  
DOCKED: REMARK  Name = 
DOCKED: REMARK  5 active torsions:
DOCKED: REMARK  status: ('A' for Active; 'I' for Inactive)
DOCKED: REMARK    1  A    between atoms: S_2  and  N_3
DOCKED: REMARK    2  A    between atoms: S_2  and  C_10
DOCKED: REMARK    3  A    between atoms: N_3  and  C_4
DOCKED: REMARK    4  A    between atoms: C_12  and  C_13
DOCKED: REMARK    5  A    between atoms: C_14  and  C_15
DOCKED: REMARK                            x       y       z     vdW  Elec       q    Type
DOCKED: REMARK                         _______ _______ _______ _____ _____    ______ ____
DOCKED: USER                              x       y       z     vdW  Elec       q    Type
DOCKED: USER                           _______ _______ _______ _____ _____    ______ ____
DOCKED: ROOT
DOCKED: ATOM      1  C   UNL     1      14.025  -9.647   4.118 -0.34 +0.00    +0.000 A 
DOCKED: ATOM      2  C   UNL     1      15.412  -9.627   3.912 -0.38 +0.00    +0.000 A 
DOCKED: ATOM      3  C   UNL     1      15.987 -10.338   2.838 -0.40 +0.00    +0.000 A 
DOCKED: ATOM      4  C   UNL     1      15.148 -11.077   1.989 -0.38 +0.00    +0.000 A 
DOCKED: ATOM      5  C   UNL     1      13.765 -11.088   2.188 -0.36 +0.00    +0.000 A 
DOCKED: ATOM      6  C   UNL     1      13.204 -10.372   3.246 -0.06 +0.00    +0.000 A 
DOCKED: ENDROOT
DOCKED: BRANCH   1   8
DOCKED: ATOM      7  O   UNL     1      14.234  -7.662   5.920 -0.55 +0.00    +0.000 OA
DOCKED: ATOM      8  S   UNL     1      13.323  -8.773   5.477 -0.59 +0.00    +0.000 S 
DOCKED: ATOM      9  O   UNL     1      13.129  -9.732   6.617 -0.69 +0.00    +0.000 OA
DOCKED: BRANCH   8  10
DOCKED: ATOM     10  N   UNL     1      11.787  -8.100   5.027 -0.26 +0.00    +0.000 N 
DOCKED: ATOM     11  H   UNL     1      11.710  -7.677   4.141 +0.00 +0.00    +0.000 HD
DOCKED: BRANCH  10  12
DOCKED: ATOM     12  C   UNL     1      10.622  -8.124   5.870 -0.24 +0.00    +0.000 A 
DOCKED: ATOM     13  C   UNL     1       9.843  -6.972   6.096 -0.21 +0.00    +0.000 A 
DOCKED: ATOM     14  C   UNL     1       8.710  -7.035   6.914 -0.35 +0.00    +0.000 A 
DOCKED: ATOM     15  C   UNL     1       8.347  -8.240   7.519 -0.47 +0.00    +0.000 A 
DOCKED: ATOM     16  C   UNL     1       9.118  -9.385   7.309 -0.50 +0.00    +0.000 A 
DOCKED: ATOM     17  C   UNL     1      10.251  -9.328   6.492 -0.30 +0.00    +0.000 A 
DOCKED: ENDBRANCH  10  12
DOCKED: ENDBRANCH   8  10
DOCKED: ENDBRANCH   1   8
DOCKED: BRANCH   3  18
DOCKED: ATOM     18  C   UNL     1      17.450 -10.369   2.592 -0.50 +0.00    +0.000 C 
DOCKED: ATOM     19  C   UNL     1      18.074 -11.359   1.935 -0.51 +0.00    +0.000 C 
DOCKED: BRANCH  19  20
DOCKED: ATOM     20  C   UNL     1      19.532 -11.382   1.693 -0.70 -0.00    +0.000 C 
DOCKED: ATOM     21  N   UNL     1      20.141 -10.661   0.615 -0.58 -0.00    +0.000 N 
DOCKED: ATOM     22  O   UNL     1      21.465 -10.798   0.371 -0.73 -0.00    +0.000 OA
DOCKED: ATOM     23  O   UNL     1      20.261 -12.042   2.480 -1.98 -0.00    +0.000 OA
DOCKED: ATOM     24  H   UNL     1      19.596 -10.065   0.052 -0.02 -0.00    +0.000 HD
DOCKED: ENDBRANCH  19  20
DOCKED: ENDBRANCH   3  18
DOCKED: TORSDOF 5
DOCKED: TER
DOCKED: ENDMDL
________________________________________________________________________________


	BEGINNING GENETIC ALGORITHM DOCKING 32 of 100
Run: 32 Seed: 1170682222 267297044 [ Run 32 of 100 GA/GALS ]
Beginning LAMARCKIAN GENETIC ALGORITHM (LGA), with a maximum of 2500000 energy evaluations.

Final-Value: -13.468


	FINAL GENETIC ALGORITHM DOCKED STATE
	_______________________________________________


Detailed state:  trans 21.028 -11.704 -0.987 quatxyzw 0.724343 0.466639 -0.483607 -0.153945 center 0.217 0.012 -0.211 ntor 5 100.0082 23.9167 173.6465 124.4431 171.7023
State:	 21.028 -11.704  -0.987   0.733  0.472 -0.489 -162.289    100.01   23.92  173.65  124.44  171.70

DOCKED: MODEL       32
DOCKED: USER    Run = 32
DOCKED: USER    DPF = ligand_dock.biased.dpf
DOCKED: USER  
DOCKED: USER    Estimated Free Energy of Binding    =  -10.94 kcal/mol  [=(1)+(2)+(3)-(4)]
DOCKED: USER    Estimated Inhibition Constant, Ki   =    9.58 nM (nanomolar)  [Temperature = 298.15 K]
DOCKED: USER    
DOCKED: USER    (1) Final Intermolecular Energy     =  -12.43 kcal/mol
DOCKED: USER        vdW + Hbond + desolv Energy     =  -12.43 kcal/mol
DOCKED: USER        Electrostatic Energy            =   +0.00 kcal/mol
DOCKED: USER    (2) Final Total Internal Energy     =   -1.04 kcal/mol
DOCKED: USER    (3) Torsional Free Energy           =   +1.49 kcal/mol
DOCKED: USER    (4) Unbound System's Energy  [=(2)] =   -1.04 kcal/mol
DOCKED: USER    
DOCKED: USER    
DOCKED: USER    NEWDPF move ligand.pdbqt
DOCKED: USER    NEWDPF about 0.217000 0.012000 -0.211000
DOCKED: USER    NEWDPF tran0 21.028342 -11.704241 -0.987430
DOCKED: USER    NEWDPF quaternion0 0.724343 0.466639 -0.483607 -0.153945
DOCKED: USER    NEWDPF axisangle0 0.733082 0.472269 -0.489441 -162.288746
DOCKED: USER    NEWDPF quat0 0.733082 0.472269 -0.489441 -162.288746
DOCKED: USER    NEWDPF dihe0 100.01 23.92 173.65 124.44 171.70 
DOCKED: USER  keepresnum = 1 
DOCKED: USER  
DOCKED: REMARK  Name = 
DOCKED: REMARK  5 active torsions:
DOCKED: REMARK  status: ('A' for Active; 'I' for Inactive)
DOCKED: REMARK    1  A    between atoms: S_2  and  N_3
DOCKED: REMARK    2  A    between atoms: S_2  and  C_10
DOCKED: REMARK    3  A    between atoms: N_3  and  C_4
DOCKED: REMARK    4  A    between atoms: C_12  and  C_13
DOCKED: REMARK    5  A    between atoms: C_14  and  C_15
DOCKED: REMARK                            x       y       z     vdW  Elec       q    Type
DOCKED: REMARK                         _______ _______ _______ _____ _____    ______ ____
DOCKED: USER                              x       y       z     vdW  Elec       q    Type
DOCKED: USER                           _______ _______ _______ _____ _____    ______ ____
DOCKED: ROOT
DOCKED: ATOM      1  C   UNL     1      19.263 -10.857  -0.025 -0.47 -0.00    +0.000 A 
DOCKED: ATOM      2  C   UNL     1      20.327 -10.834  -0.938 -0.47 -0.00    +0.000 A 
DOCKED: ATOM      3  C   UNL     1      20.079 -10.764  -2.325 -0.39 -0.00    +0.000 A 
DOCKED: ATOM      4  C   UNL     1      18.749 -10.733  -2.774 -0.30 -0.00    +0.000 A 
DOCKED: ATOM      5  C   UNL     1      17.689 -10.746  -1.864 -0.19 -0.00    +0.000 A 
DOCKED: ATOM      6  C   UNL     1      17.944 -10.803  -0.493 -0.32 -0.00    +0.000 A 
DOCKED: ENDROOT
DOCKED: BRANCH   1   8
DOCKED: ATOM      7  O   UNL     1      21.017 -10.609   1.998 -0.76 -0.00    +0.000 OA
DOCKED: ATOM      8  S   UNL     1      19.587 -10.968   1.704 -0.83 -0.00    +0.000 S 
DOCKED: ATOM      9  O   UNL     1      19.333 -12.378   2.151 -1.43 -0.00    +0.000 OA
DOCKED: BRANCH   8  10
DOCKED: ATOM     10  N   UNL     1      18.542  -9.892   2.578 -0.54 -0.00    +0.000 N 
DOCKED: ATOM     11  H   UNL     1      18.939  -9.084   2.976 -0.41 -0.00    +0.000 HD
DOCKED: BRANCH  10  12
DOCKED: ATOM     12  C   UNL     1      17.131 -10.112   2.757 -0.42 +0.00    +0.000 A 
DOCKED: ATOM     13  C   UNL     1      16.524 -11.344   2.445 -0.36 +0.00    +0.000 A 
DOCKED: ATOM     14  C   UNL     1      15.151 -11.524   2.642 -0.46 +0.00    +0.000 A 
DOCKED: ATOM     15  C   UNL     1      14.371 -10.480   3.144 -0.36 +0.00    +0.000 A 
DOCKED: ATOM     16  C   UNL     1      14.962  -9.252   3.448 -0.34 +0.00    +0.000 A 
DOCKED: ATOM     17  C   UNL     1      16.334  -9.067   3.254 -0.33 +0.00    +0.000 A 
DOCKED: ENDBRANCH  10  12
DOCKED: ENDBRANCH   8  10
DOCKED: ENDBRANCH   1   8
DOCKED: BRANCH   3  18
DOCKED: ATOM     18  C   UNL     1      21.168 -10.762  -3.333 -0.49 -0.00    +0.000 C 
DOCKED: ATOM     19  C   UNL     1      21.033 -11.248  -4.577 -0.53 -0.00    +0.000 C 
DOCKED: BRANCH  19  20
DOCKED: ATOM     20  C   UNL     1      22.122 -11.240  -5.575 -0.51 -0.00    +0.000 C 
DOCKED: ATOM     21  N   UNL     1      22.662 -12.446  -6.130 -0.56 -0.00    +0.000 N 
DOCKED: ATOM     22  O   UNL     1      23.728 -12.392  -6.962 -1.11 -0.00    +0.000 OA
DOCKED: ATOM     23  O   UNL     1      22.569 -10.130  -5.967 -0.37 -0.00    +0.000 OA
DOCKED: ATOM     24  H   UNL     1      22.257 -13.315  -5.905 -0.50 -0.00    +0.000 HD
DOCKED: ENDBRANCH  19  20
DOCKED: ENDBRANCH   3  18
DOCKED: TORSDOF 5
DOCKED: TER
DOCKED: ENDMDL
________________________________________________________________________________


	BEGINNING GENETIC ALGORITHM DOCKING 33 of 100
Run: 33 Seed: 373384681 1797324881 [ Run 33 of 100 GA/GALS ]
Beginning LAMARCKIAN GENETIC ALGORITHM (LGA), with a maximum of 2500000 energy evaluations.

Final-Value: -12.864


	FINAL GENETIC ALGORITHM DOCKED STATE
	_______________________________________________


Detailed state:  trans 18.299 -10.690 -1.170 quatxyzw -0.602413 0.420504 0.357447 -0.576634 center 0.217 0.012 -0.211 ntor 5 -55.8070 169.1193 -89.3332 157.6394 -62.7227
State:	 18.299 -10.690  -1.170  -0.737  0.515  0.438 -109.572    -55.81  169.12  -89.33  157.64  -62.72

DOCKED: MODEL       33
DOCKED: USER    Run = 33
DOCKED: USER    DPF = ligand_dock.biased.dpf
DOCKED: USER  
DOCKED: USER    Estimated Free Energy of Binding    =  -10.42 kcal/mol  [=(1)+(2)+(3)-(4)]
DOCKED: USER    Estimated Inhibition Constant, Ki   =   23.15 nM (nanomolar)  [Temperature = 298.15 K]
DOCKED: USER    
DOCKED: USER    (1) Final Intermolecular Energy     =  -11.91 kcal/mol
DOCKED: USER        vdW + Hbond + desolv Energy     =  -11.91 kcal/mol
DOCKED: USER        Electrostatic Energy            =   +0.00 kcal/mol
DOCKED: USER    (2) Final Total Internal Energy     =   -0.96 kcal/mol
DOCKED: USER    (3) Torsional Free Energy           =   +1.49 kcal/mol
DOCKED: USER    (4) Unbound System's Energy  [=(2)] =   -0.96 kcal/mol
DOCKED: USER    
DOCKED: USER    
DOCKED: USER    NEWDPF move ligand.pdbqt
DOCKED: USER    NEWDPF about 0.217000 0.012000 -0.211000
DOCKED: USER    NEWDPF tran0 18.298910 -10.690004 -1.169699
DOCKED: USER    NEWDPF quaternion0 -0.602413 0.420504 0.357447 -0.576634
DOCKED: USER    NEWDPF axisangle0 -0.737345 0.514691 0.437510 -109.571715
DOCKED: USER    NEWDPF quat0 -0.737345 0.514691 0.437510 -109.571715
DOCKED: USER    NEWDPF dihe0 -55.81 169.12 -89.33 157.64 -62.72 
DOCKED: USER  keepresnum = 1 
DOCKED: USER  
DOCKED: REMARK  Name = 
DOCKED: REMARK  5 active torsions:
DOCKED: REMARK  status: ('A' for Active; 'I' for Inactive)
DOCKED: REMARK    1  A    between atoms: S_2  and  N_3
DOCKED: REMARK    2  A    between atoms: S_2  and  C_10
DOCKED: REMARK    3  A    between atoms: N_3  and  C_4
DOCKED: REMARK    4  A    between atoms: C_12  and  C_13
DOCKED: REMARK    5  A    between atoms: C_14  and  C_15
DOCKED: REMARK                            x       y       z     vdW  Elec       q    Type
DOCKED: REMARK                         _______ _______ _______ _____ _____    ______ ____
DOCKED: USER                              x       y       z     vdW  Elec       q    Type
DOCKED: USER                           _______ _______ _______ _____ _____    ______ ____
DOCKED: ROOT
DOCKED: ATOM      1  C   UNL     1      20.029 -10.734   0.160 -0.55 -0.00    +0.000 A 
DOCKED: ATOM      2  C   UNL     1      19.379 -10.961  -1.062 -0.42 -0.00    +0.000 A 
DOCKED: ATOM      3  C   UNL     1      19.813 -10.312  -2.237 -0.41 -0.00    +0.000 A 
DOCKED: ATOM      4  C   UNL     1      20.897  -9.423  -2.157 -0.49 -0.00    +0.000 A 
DOCKED: ATOM      5  C   UNL     1      21.551  -9.204  -0.942 -0.40 -0.00    +0.000 A 
DOCKED: ATOM      6  C   UNL     1      21.122  -9.860   0.213 -0.59 -0.00    +0.000 A 
DOCKED: ENDROOT
DOCKED: BRANCH   1   8
DOCKED: ATOM      7  O   UNL     1      20.620 -11.925   2.497 -1.86 -0.00    +0.000 OA
DOCKED: ATOM      8  S   UNL     1      19.461 -11.534   1.623 -0.86 -0.00    +0.000 S 
DOCKED: ATOM      9  O   UNL     1      18.703 -12.770   1.232 -0.89 -0.00    +0.000 OA
DOCKED: BRANCH   8  10
DOCKED: ATOM     10  N   UNL     1      18.410 -10.477   2.514 -0.52 -0.00    +0.000 N 
DOCKED: ATOM     11  H   UNL     1      18.819  -9.734   3.014 -0.11 -0.00    +0.000 HD
DOCKED: BRANCH  10  12
DOCKED: ATOM     12  C   UNL     1      16.980 -10.622   2.565 -0.42 +0.00    +0.000 A 
DOCKED: ATOM     13  C   UNL     1      16.215 -10.089   3.621 -0.39 +0.00    +0.000 A 
DOCKED: ATOM     14  C   UNL     1      14.825 -10.241   3.632 -0.40 +0.00    +0.000 A 
DOCKED: ATOM     15  C   UNL     1      14.185 -10.930   2.599 -0.37 +0.00    +0.000 A 
DOCKED: ATOM     16  C   UNL     1      14.936 -11.471   1.553 -0.39 +0.00    +0.000 A 
DOCKED: ATOM     17  C   UNL     1      16.325 -11.321   1.537 -0.38 +0.00    +0.000 A 
DOCKED: ENDBRANCH  10  12
DOCKED: ENDBRANCH   8  10
DOCKED: ENDBRANCH   1   8
DOCKED: BRANCH   3  18
DOCKED: ATOM     18  C   UNL     1      19.144 -10.500  -3.548 -0.39 -0.00    +0.000 C 
DOCKED: ATOM     19  C   UNL     1      19.712 -11.125  -4.591 -0.48 -0.00    +0.000 C 
DOCKED: BRANCH  19  20
DOCKED: ATOM     20  C   UNL     1      19.038 -11.310  -5.893 -0.40 -0.00    +0.000 C 
DOCKED: ATOM     21  N   UNL     1      17.639 -11.599  -5.998 -0.35 -0.00    +0.000 N 
DOCKED: ATOM     22  O   UNL     1      17.091 -11.864  -7.207 -0.45 -0.00    +0.000 OA
DOCKED: ATOM     23  O   UNL     1      19.720 -11.183  -6.945 -0.35 -0.00    +0.000 OA
DOCKED: ATOM     24  H   UNL     1      17.076 -11.606  -5.190 -0.03 -0.00    +0.000 HD
DOCKED: ENDBRANCH  19  20
DOCKED: ENDBRANCH   3  18
DOCKED: TORSDOF 5
DOCKED: TER
DOCKED: ENDMDL
________________________________________________________________________________


	BEGINNING GENETIC ALGORITHM DOCKING 34 of 100
Run: 34 Seed: 1420402050 1135416996 [ Run 34 of 100 GA/GALS ]
Beginning LAMARCKIAN GENETIC ALGORITHM (LGA), with a maximum of 2500000 energy evaluations.

Final-Value: -13.736


	FINAL GENETIC ALGORITHM DOCKED STATE
	_______________________________________________


Detailed state:  trans 21.337 -11.661 -2.519 quatxyzw -0.438619 -0.319308 -0.838169 0.055938 center 0.217 0.012 -0.211 ntor 5 -150.7610 -116.1493 141.0173 176.5912 -137.8648
State:	 21.337 -11.661  -2.519  -0.439 -0.320 -0.839 173.587   -150.76 -116.15  141.02  176.59 -137.86

DOCKED: MODEL       34
DOCKED: USER    Run = 34
DOCKED: USER    DPF = ligand_dock.biased.dpf
DOCKED: USER  
DOCKED: USER    Estimated Free Energy of Binding    =  -11.30 kcal/mol  [=(1)+(2)+(3)-(4)]
DOCKED: USER    Estimated Inhibition Constant, Ki   =    5.21 nM (nanomolar)  [Temperature = 298.15 K]
DOCKED: USER    
DOCKED: USER    (1) Final Intermolecular Energy     =  -12.79 kcal/mol
DOCKED: USER        vdW + Hbond + desolv Energy     =  -12.79 kcal/mol
DOCKED: USER        Electrostatic Energy            =   +0.00 kcal/mol
DOCKED: USER    (2) Final Total Internal Energy     =   -0.94 kcal/mol
DOCKED: USER    (3) Torsional Free Energy           =   +1.49 kcal/mol
DOCKED: USER    (4) Unbound System's Energy  [=(2)] =   -0.94 kcal/mol
DOCKED: USER    
DOCKED: USER    
DOCKED: USER    NEWDPF move ligand.pdbqt
DOCKED: USER    NEWDPF about 0.217000 0.012000 -0.211000
DOCKED: USER    NEWDPF tran0 21.336519 -11.661469 -2.519224
DOCKED: USER    NEWDPF quaternion0 -0.438619 -0.319308 -0.838169 0.055938
DOCKED: USER    NEWDPF axisangle0 -0.439307 -0.319809 -0.839483 173.586591
DOCKED: USER    NEWDPF quat0 -0.439307 -0.319809 -0.839483 173.586591
DOCKED: USER    NEWDPF dihe0 -150.76 -116.15 141.02 176.59 -137.86 
DOCKED: USER  keepresnum = 1 
DOCKED: USER  
DOCKED: REMARK  Name = 
DOCKED: REMARK  5 active torsions:
DOCKED: REMARK  status: ('A' for Active; 'I' for Inactive)
DOCKED: REMARK    1  A    between atoms: S_2  and  N_3
DOCKED: REMARK    2  A    between atoms: S_2  and  C_10
DOCKED: REMARK    3  A    between atoms: N_3  and  C_4
DOCKED: REMARK    4  A    between atoms: C_12  and  C_13
DOCKED: REMARK    5  A    between atoms: C_14  and  C_15
DOCKED: REMARK                            x       y       z     vdW  Elec       q    Type
DOCKED: REMARK                         _______ _______ _______ _____ _____    ______ ____
DOCKED: USER                              x       y       z     vdW  Elec       q    Type
DOCKED: USER                           _______ _______ _______ _____ _____    ______ ____
DOCKED: ROOT
DOCKED: ATOM      1  C   UNL     1      21.227 -10.219  -4.153 -0.43 -0.00    +0.000 A 
DOCKED: ATOM      2  C   UNL     1      20.761 -10.817  -2.973 -0.40 -0.00    +0.000 A 
DOCKED: ATOM      3  C   UNL     1      20.642 -10.063  -1.787 -0.51 -0.00    +0.000 A 
DOCKED: ATOM      4  C   UNL     1      21.014  -8.709  -1.804 -0.47 -0.00    +0.000 A 
DOCKED: ATOM      5  C   UNL     1      21.470  -8.111  -2.983 -0.36 -0.00    +0.000 A 
DOCKED: ATOM      6  C   UNL     1      21.572  -8.862  -4.155 -0.30 -0.00    +0.000 A 
DOCKED: ENDROOT
DOCKED: BRANCH   1   8
DOCKED: ATOM      7  O   UNL     1      20.042 -11.600  -6.133 -0.36 -0.00    +0.000 OA
DOCKED: ATOM      8  S   UNL     1      21.391 -11.179  -5.622 -0.62 -0.00    +0.000 S 
DOCKED: ATOM      9  O   UNL     1      22.201 -12.403  -5.308 -0.79 -0.00    +0.000 OA
DOCKED: BRANCH   8  10
DOCKED: ATOM     10  N   UNL     1      22.200 -10.257  -6.851 -0.30 -0.00    +0.000 N 
DOCKED: ATOM     11  H   UNL     1      21.815  -9.387  -7.104 +0.00 -0.00    +0.000 HD
DOCKED: BRANCH  10  12
DOCKED: ATOM     12  C   UNL     1      23.398 -10.688  -7.521 -0.33 -0.00    +0.000 A 
DOCKED: ATOM     13  C   UNL     1      24.539  -9.868  -7.608 -0.27 -0.00    +0.000 A 
DOCKED: ATOM     14  C   UNL     1      25.690 -10.325  -8.259 -0.32 -0.00    +0.000 A 
DOCKED: ATOM     15  C   UNL     1      25.712 -11.598  -8.833 -0.37 -0.00    +0.000 A 
DOCKED: ATOM     16  C   UNL     1      24.583 -12.415  -8.761 -0.40 -0.00    +0.000 A 
DOCKED: ATOM     17  C   UNL     1      23.431 -11.963  -8.111 -0.42 -0.00    +0.000 A 
DOCKED: ENDBRANCH  10  12
DOCKED: ENDBRANCH   8  10
DOCKED: ENDBRANCH   1   8
DOCKED: BRANCH   3  18
DOCKED: ATOM     18  C   UNL     1      20.178 -10.654  -0.507 -0.60 -0.00    +0.000 C 
DOCKED: ATOM     19  C   UNL     1      20.926 -10.704   0.605 -0.68 -0.00    +0.000 C 
DOCKED: BRANCH  19  20
DOCKED: ATOM     20  C   UNL     1      20.456 -11.292   1.877 -0.75 -0.00    +0.000 C 
DOCKED: ATOM     21  N   UNL     1      20.618 -10.628   3.136 -0.65 -0.00    +0.000 N 
DOCKED: ATOM     22  O   UNL     1      20.266 -11.253   4.283 -1.06 -0.00    +0.000 OA
DOCKED: ATOM     23  O   UNL     1      19.870 -12.407   1.842 -1.79 -0.00    +0.000 OA
DOCKED: ATOM     24  H   UNL     1      20.987  -9.715   3.166 -0.61 -0.00    +0.000 HD
DOCKED: ENDBRANCH  19  20
DOCKED: ENDBRANCH   3  18
DOCKED: TORSDOF 5
DOCKED: TER
DOCKED: ENDMDL
________________________________________________________________________________


	BEGINNING GENETIC ALGORITHM DOCKING 35 of 100
Run: 35 Seed: 1411947705 1728843461 [ Run 35 of 100 GA/GALS ]
Beginning LAMARCKIAN GENETIC ALGORITHM (LGA), with a maximum of 2500000 energy evaluations.

Final-Value: -13.010


	FINAL GENETIC ALGORITHM DOCKED STATE
	_______________________________________________


Detailed state:  trans 18.740 -11.173 -1.464 quatxyzw -0.712180 0.314028 0.372919 -0.505092 center 0.217 0.012 -0.211 ntor 5 132.7963 156.6105 106.0298 -21.0317 25.1785
State:	 18.740 -11.173  -1.464  -0.825  0.364  0.432 -119.325    132.80  156.61  106.03  -21.03   25.18

DOCKED: MODEL       35
DOCKED: USER    Run = 35
DOCKED: USER    DPF = ligand_dock.biased.dpf
DOCKED: USER  
DOCKED: USER    Estimated Free Energy of Binding    =  -10.30 kcal/mol  [=(1)+(2)+(3)-(4)]
DOCKED: USER    Estimated Inhibition Constant, Ki   =   27.97 nM (nanomolar)  [Temperature = 298.15 K]
DOCKED: USER    
DOCKED: USER    (1) Final Intermolecular Energy     =  -11.80 kcal/mol
DOCKED: USER        vdW + Hbond + desolv Energy     =  -11.80 kcal/mol
DOCKED: USER        Electrostatic Energy            =   +0.00 kcal/mol
DOCKED: USER    (2) Final Total Internal Energy     =   -1.21 kcal/mol
DOCKED: USER    (3) Torsional Free Energy           =   +1.49 kcal/mol
DOCKED: USER    (4) Unbound System's Energy  [=(2)] =   -1.21 kcal/mol
DOCKED: USER    
DOCKED: USER    
DOCKED: USER    NEWDPF move ligand.pdbqt
DOCKED: USER    NEWDPF about 0.217000 0.012000 -0.211000
DOCKED: USER    NEWDPF tran0 18.740231 -11.173202 -1.463952
DOCKED: USER    NEWDPF quaternion0 -0.712180 0.314028 0.372919 -0.505092
DOCKED: USER    NEWDPF axisangle0 -0.825174 0.363852 0.432087 -119.325074
DOCKED: USER    NEWDPF quat0 -0.825174 0.363852 0.432087 -119.325074
DOCKED: USER    NEWDPF dihe0 132.80 156.61 106.03 -21.03 25.18 
DOCKED: USER  keepresnum = 1 
DOCKED: USER  
DOCKED: REMARK  Name = 
DOCKED: REMARK  5 active torsions:
DOCKED: REMARK  status: ('A' for Active; 'I' for Inactive)
DOCKED: REMARK    1  A    between atoms: S_2  and  N_3
DOCKED: REMARK    2  A    between atoms: S_2  and  C_10
DOCKED: REMARK    3  A    between atoms: N_3  and  C_4
DOCKED: REMARK    4  A    between atoms: C_12  and  C_13
DOCKED: REMARK    5  A    between atoms: C_14  and  C_15
DOCKED: REMARK                            x       y       z     vdW  Elec       q    Type
DOCKED: REMARK                         _______ _______ _______ _____ _____    ______ ____
DOCKED: USER                              x       y       z     vdW  Elec       q    Type
DOCKED: USER                           _______ _______ _______ _____ _____    ______ ____
DOCKED: ROOT
DOCKED: ATOM      1  C   UNL     1      20.212 -10.569   0.029 -0.56 -0.00    +0.000 A 
DOCKED: ATOM      2  C   UNL     1      19.827 -11.103  -1.209 -0.29 -0.00    +0.000 A 
DOCKED: ATOM      3  C   UNL     1      20.223 -10.482  -2.412 -0.45 -0.00    +0.000 A 
DOCKED: ATOM      4  C   UNL     1      20.994  -9.310  -2.347 -0.48 -0.00    +0.000 A 
DOCKED: ATOM      5  C   UNL     1      21.387  -8.784  -1.113 -0.47 -0.00    +0.000 A 
DOCKED: ATOM      6  C   UNL     1      21.001  -9.413   0.072 -0.47 -0.00    +0.000 A 
DOCKED: ENDROOT
DOCKED: BRANCH   1   8
DOCKED: ATOM      7  O   UNL     1      19.076 -10.339   2.455 -0.68 -0.00    +0.000 OA
DOCKED: ATOM      8  S   UNL     1      19.692 -11.344   1.523 -0.87 -0.00    +0.000 S 
DOCKED: ATOM      9  O   UNL     1      20.890 -11.960   2.188 -1.75 -0.00    +0.000 OA
DOCKED: BRANCH   8  10
DOCKED: ATOM     10  N   UNL     1      18.528 -12.585   1.180 -0.52 -0.00    +0.000 N 
DOCKED: ATOM     11  H   UNL     1      18.817 -13.523   1.255 -0.41 -0.00    +0.000 HD
DOCKED: BRANCH  10  12
DOCKED: ATOM     12  C   UNL     1      17.167 -12.325   0.793 -0.45 +0.00    +0.000 A 
DOCKED: ATOM     13  C   UNL     1      16.485 -13.143  -0.130 -0.48 +0.00    +0.000 A 
DOCKED: ATOM     14  C   UNL     1      15.159 -12.865  -0.474 -0.49 +0.00    +0.000 A 
DOCKED: ATOM     15  C   UNL     1      14.502 -11.769   0.089 -0.39 +0.00    +0.000 A 
DOCKED: ATOM     16  C   UNL     1      15.172 -10.947   0.998 -0.31 +0.00    +0.000 A 
DOCKED: ATOM     17  C   UNL     1      16.497 -11.221   1.346 -0.37 +0.00    +0.000 A 
DOCKED: ENDBRANCH  10  12
DOCKED: ENDBRANCH   8  10
DOCKED: ENDBRANCH   1   8
DOCKED: BRANCH   3  18
DOCKED: ATOM     18  C   UNL     1      19.821 -10.993  -3.746 -0.47 -0.00    +0.000 C 
DOCKED: ATOM     19  C   UNL     1      18.645 -10.712  -4.328 -0.33 -0.00    +0.000 C 
DOCKED: BRANCH  19  20
DOCKED: ATOM     20  C   UNL     1      18.253 -11.222  -5.658 -0.37 -0.00    +0.000 C 
DOCKED: ATOM     21  N   UNL     1      16.886 -11.460  -6.016 -0.32 -0.00    +0.000 N 
DOCKED: ATOM     22  O   UNL     1      16.586 -12.026  -7.207 -0.44 -0.00    +0.000 OA
DOCKED: ATOM     23  O   UNL     1      19.156 -11.430  -6.511 -0.42 -0.00    +0.000 OA
DOCKED: ATOM     24  H   UNL     1      16.164 -11.211  -5.394 -0.02 -0.00    +0.000 HD
DOCKED: ENDBRANCH  19  20
DOCKED: ENDBRANCH   3  18
DOCKED: TORSDOF 5
DOCKED: TER
DOCKED: ENDMDL
________________________________________________________________________________


	BEGINNING GENETIC ALGORITHM DOCKING 36 of 100
Run: 36 Seed: 865947703 336440014 [ Run 36 of 100 GA/GALS ]
Beginning LAMARCKIAN GENETIC ALGORITHM (LGA), with a maximum of 2500000 energy evaluations.

Final-Value: -13.535


	FINAL GENETIC ALGORITHM DOCKED STATE
	_______________________________________________


Detailed state:  trans 21.617 -11.622 -2.577 quatxyzw -0.454392 -0.313367 -0.833497 -0.024740 center 0.217 0.012 -0.211 ntor 5 178.1894 43.4068 -175.5319 -142.0329 -97.4506
State:	 21.617 -11.622  -2.577  -0.455 -0.313 -0.834 -177.165    178.19   43.41 -175.53 -142.03  -97.45

DOCKED: MODEL       36
DOCKED: USER    Run = 36
DOCKED: USER    DPF = ligand_dock.biased.dpf
DOCKED: USER  
DOCKED: USER    Estimated Free Energy of Binding    =  -11.15 kcal/mol  [=(1)+(2)+(3)-(4)]
DOCKED: USER    Estimated Inhibition Constant, Ki   =    6.72 nM (nanomolar)  [Temperature = 298.15 K]
DOCKED: USER    
DOCKED: USER    (1) Final Intermolecular Energy     =  -12.64 kcal/mol
DOCKED: USER        vdW + Hbond + desolv Energy     =  -12.64 kcal/mol
DOCKED: USER        Electrostatic Energy            =   +0.00 kcal/mol
DOCKED: USER    (2) Final Total Internal Energy     =   -0.89 kcal/mol
DOCKED: USER    (3) Torsional Free Energy           =   +1.49 kcal/mol
DOCKED: USER    (4) Unbound System's Energy  [=(2)] =   -0.89 kcal/mol
DOCKED: USER    
DOCKED: USER    
DOCKED: USER    NEWDPF move ligand.pdbqt
DOCKED: USER    NEWDPF about 0.217000 0.012000 -0.211000
DOCKED: USER    NEWDPF tran0 21.617007 -11.622011 -2.576980
DOCKED: USER    NEWDPF quaternion0 -0.454392 -0.313367 -0.833497 -0.024740
DOCKED: USER    NEWDPF axisangle0 -0.454532 -0.313463 -0.833752 -177.164709
DOCKED: USER    NEWDPF quat0 -0.454532 -0.313463 -0.833752 -177.164709
DOCKED: USER    NEWDPF dihe0 178.19 43.41 -175.53 -142.03 -97.45 
DOCKED: USER  keepresnum = 1 
DOCKED: USER  
DOCKED: REMARK  Name = 
DOCKED: REMARK  5 active torsions:
DOCKED: REMARK  status: ('A' for Active; 'I' for Inactive)
DOCKED: REMARK    1  A    between atoms: S_2  and  N_3
DOCKED: REMARK    2  A    between atoms: S_2  and  C_10
DOCKED: REMARK    3  A    between atoms: N_3  and  C_4
DOCKED: REMARK    4  A    between atoms: C_12  and  C_13
DOCKED: REMARK    5  A    between atoms: C_14  and  C_15
DOCKED: REMARK                            x       y       z     vdW  Elec       q    Type
DOCKED: REMARK                         _______ _______ _______ _____ _____    ______ ____
DOCKED: USER                              x       y       z     vdW  Elec       q    Type
DOCKED: USER                           _______ _______ _______ _____ _____    ______ ____
DOCKED: ROOT
DOCKED: ATOM      1  C   UNL     1      21.202 -10.087  -4.070 -0.42 -0.00    +0.000 A 
DOCKED: ATOM      2  C   UNL     1      20.910 -10.822  -2.913 -0.39 -0.00    +0.000 A 
DOCKED: ATOM      3  C   UNL     1      20.808 -10.179  -1.662 -0.54 -0.00    +0.000 A 
DOCKED: ATOM      4  C   UNL     1      21.018  -8.793  -1.594 -0.49 -0.00    +0.000 A 
DOCKED: ATOM      5  C   UNL     1      21.298  -8.058  -2.749 -0.40 -0.00    +0.000 A 
DOCKED: ATOM      6  C   UNL     1      21.386  -8.701  -3.985 -0.34 -0.00    +0.000 A 
DOCKED: ENDROOT
DOCKED: BRANCH   1   8
DOCKED: ATOM      7  O   UNL     1      20.169 -10.596  -6.500 -0.32 -0.00    +0.000 OA
DOCKED: ATOM      8  S   UNL     1      21.349 -10.907  -5.623 -0.59 -0.00    +0.000 S 
DOCKED: ATOM      9  O   UNL     1      21.404 -12.388  -5.381 -0.80 -0.00    +0.000 OA
DOCKED: BRANCH   8  10
DOCKED: ATOM     10  N   UNL     1      22.802 -10.404  -6.429 -0.32 -0.00    +0.000 N 
DOCKED: ATOM     11  H   UNL     1      23.263  -9.602  -6.093 -0.02 -0.00    +0.000 HD
DOCKED: BRANCH  10  12
DOCKED: ATOM     12  C   UNL     1      23.373 -11.090  -7.558 -0.38 -0.00    +0.000 A 
DOCKED: ATOM     13  C   UNL     1      22.574 -11.774  -8.495 -0.28 -0.00    +0.000 A 
DOCKED: ATOM     14  C   UNL     1      23.164 -12.421  -9.586 -0.32 -0.00    +0.000 A 
DOCKED: ATOM     15  C   UNL     1      24.550 -12.399  -9.750 -0.32 -0.00    +0.000 A 
DOCKED: ATOM     16  C   UNL     1      25.351 -11.732  -8.821 -0.38 -0.00    +0.000 A 
DOCKED: ATOM     17  C   UNL     1      24.767 -11.083  -7.730 -0.34 -0.00    +0.000 A 
DOCKED: ENDBRANCH  10  12
DOCKED: ENDBRANCH   8  10
DOCKED: ENDBRANCH   1   8
DOCKED: BRANCH   3  18
DOCKED: ATOM     18  C   UNL     1      20.526 -10.916  -0.405 -0.59 -0.00    +0.000 C 
DOCKED: ATOM     19  C   UNL     1      20.767 -10.421   0.819 -0.65 -0.00    +0.000 C 
DOCKED: BRANCH  19  20
DOCKED: ATOM     20  C   UNL     1      20.482 -11.160   2.066 -0.73 -0.00    +0.000 C 
DOCKED: ATOM     21  N   UNL     1      20.422 -10.514   3.344 -0.68 -0.00    +0.000 N 
DOCKED: ATOM     22  O   UNL     1      20.262 -11.249   4.469 -0.92 -0.00    +0.000 OA
DOCKED: ATOM     23  O   UNL     1      20.259 -12.398   1.993 -1.85 -0.00    +0.000 OA
DOCKED: ATOM     24  H   UNL     1      20.498  -9.534   3.404 -0.58 -0.00    +0.000 HD
DOCKED: ENDBRANCH  19  20
DOCKED: ENDBRANCH   3  18
DOCKED: TORSDOF 5
DOCKED: TER
DOCKED: ENDMDL
________________________________________________________________________________


	BEGINNING GENETIC ALGORITHM DOCKING 37 of 100
Run: 37 Seed: 156386015 451638396 [ Run 37 of 100 GA/GALS ]
Beginning LAMARCKIAN GENETIC ALGORITHM (LGA), with a maximum of 2500000 energy evaluations.

Final-Value: -13.796


	FINAL GENETIC ALGORITHM DOCKED STATE
	_______________________________________________


Detailed state:  trans 20.727 -11.672 -2.712 quatxyzw -0.539676 -0.224525 -0.806692 0.087095 center 0.217 0.012 -0.211 ntor 5 -162.4305 34.7285 172.3382 -38.4205 -54.9020
State:	 20.727 -11.672  -2.712  -0.542 -0.225 -0.810 170.007   -162.43   34.73  172.34  -38.42  -54.90

DOCKED: MODEL       37
DOCKED: USER    Run = 37
DOCKED: USER    DPF = ligand_dock.biased.dpf
DOCKED: USER  
DOCKED: USER    Estimated Free Energy of Binding    =  -11.30 kcal/mol  [=(1)+(2)+(3)-(4)]
DOCKED: USER    Estimated Inhibition Constant, Ki   =    5.25 nM (nanomolar)  [Temperature = 298.15 K]
DOCKED: USER    
DOCKED: USER    (1) Final Intermolecular Energy     =  -12.79 kcal/mol
DOCKED: USER        vdW + Hbond + desolv Energy     =  -12.79 kcal/mol
DOCKED: USER        Electrostatic Energy            =   +0.00 kcal/mol
DOCKED: USER    (2) Final Total Internal Energy     =   -1.01 kcal/mol
DOCKED: USER    (3) Torsional Free Energy           =   +1.49 kcal/mol
DOCKED: USER    (4) Unbound System's Energy  [=(2)] =   -1.01 kcal/mol
DOCKED: USER    
DOCKED: USER    
DOCKED: USER    NEWDPF move ligand.pdbqt
DOCKED: USER    NEWDPF about 0.217000 0.012000 -0.211000
DOCKED: USER    NEWDPF tran0 20.726895 -11.671843 -2.711827
DOCKED: USER    NEWDPF quaternion0 -0.539676 -0.224525 -0.806692 0.087095
DOCKED: USER    NEWDPF axisangle0 -0.541735 -0.225381 -0.809770 170.007026
DOCKED: USER    NEWDPF quat0 -0.541735 -0.225381 -0.809770 170.007026
DOCKED: USER    NEWDPF dihe0 -162.43 34.73 172.34 -38.42 -54.90 
DOCKED: USER  keepresnum = 1 
DOCKED: USER  
DOCKED: REMARK  Name = 
DOCKED: REMARK  5 active torsions:
DOCKED: REMARK  status: ('A' for Active; 'I' for Inactive)
DOCKED: REMARK    1  A    between atoms: S_2  and  N_3
DOCKED: REMARK    2  A    between atoms: S_2  and  C_10
DOCKED: REMARK    3  A    between atoms: N_3  and  C_4
DOCKED: REMARK    4  A    between atoms: C_12  and  C_13
DOCKED: REMARK    5  A    between atoms: C_14  and  C_15
DOCKED: REMARK                            x       y       z     vdW  Elec       q    Type
DOCKED: REMARK                         _______ _______ _______ _____ _____    ______ ____
DOCKED: USER                              x       y       z     vdW  Elec       q    Type
DOCKED: USER                           _______ _______ _______ _____ _____    ______ ____
DOCKED: ROOT
DOCKED: ATOM      1  C   UNL     1      20.678 -10.023  -4.140 -0.39 -0.00    +0.000 A 
DOCKED: ATOM      2  C   UNL     1      20.280 -10.678  -2.966 -0.42 -0.00    +0.000 A 
DOCKED: ATOM      3  C   UNL     1      20.506 -10.087  -1.705 -0.50 -0.00    +0.000 A 
DOCKED: ATOM      4  C   UNL     1      21.149  -8.840  -1.647 -0.49 -0.00    +0.000 A 
DOCKED: ATOM      5  C   UNL     1      21.536  -8.183  -2.818 -0.35 -0.00    +0.000 A 
DOCKED: ATOM      6  C   UNL     1      21.297  -8.770  -4.062 -0.33 -0.00    +0.000 A 
DOCKED: ENDROOT
DOCKED: BRANCH   1   8
DOCKED: ATOM      7  O   UNL     1      20.218  -9.743  -6.775 -0.21 -0.00    +0.000 OA
DOCKED: ATOM      8  S   UNL     1      20.410 -10.784  -5.707 -0.51 -0.00    +0.000 S 
DOCKED: ATOM      9  O   UNL     1      19.175 -11.634  -5.624 -0.49 -0.00    +0.000 OA
DOCKED: BRANCH   8  10
DOCKED: ATOM     10  N   UNL     1      21.766 -11.783  -6.127 -0.32 -0.00    +0.000 N 
DOCKED: ATOM     11  H   UNL     1      21.755 -12.723  -5.833 -0.61 -0.00    +0.000 HD
DOCKED: BRANCH  10  12
DOCKED: ATOM     12  C   UNL     1      22.903 -11.321  -6.877 -0.43 -0.00    +0.000 A 
DOCKED: ATOM     13  C   UNL     1      23.250  -9.958  -6.938 -0.25 -0.00    +0.000 A 
DOCKED: ATOM     14  C   UNL     1      24.369  -9.546  -7.670 -0.25 -0.00    +0.000 A 
DOCKED: ATOM     15  C   UNL     1      25.147 -10.485  -8.350 -0.30 -0.00    +0.000 A 
DOCKED: ATOM     16  C   UNL     1      24.805 -11.839  -8.303 -0.41 -0.00    +0.000 A 
DOCKED: ATOM     17  C   UNL     1      23.689 -12.255  -7.573 -0.43 -0.00    +0.000 A 
DOCKED: ENDBRANCH  10  12
DOCKED: ENDBRANCH   8  10
DOCKED: ENDBRANCH   1   8
DOCKED: BRANCH   3  18
DOCKED: ATOM     18  C   UNL     1      20.128 -10.750  -0.432 -0.59 -0.00    +0.000 C 
DOCKED: ATOM     19  C   UNL     1      20.787 -10.575   0.724 -0.67 -0.00    +0.000 C 
DOCKED: BRANCH  19  20
DOCKED: ATOM     20  C   UNL     1      20.402 -11.236   1.988 -0.75 -0.00    +0.000 C 
DOCKED: ATOM     21  N   UNL     1      20.533 -10.592   3.261 -0.67 -0.00    +0.000 N 
DOCKED: ATOM     22  O   UNL     1      20.266 -11.277   4.397 -1.00 -0.00    +0.000 OA
DOCKED: ATOM     23  O   UNL     1      19.919 -12.399   1.934 -1.80 -0.00    +0.000 OA
DOCKED: ATOM     24  H   UNL     1      20.817  -9.651   3.309 -0.59 -0.00    +0.000 HD
DOCKED: ENDBRANCH  19  20
DOCKED: ENDBRANCH   3  18
DOCKED: TORSDOF 5
DOCKED: TER
DOCKED: ENDMDL
________________________________________________________________________________


	BEGINNING GENETIC ALGORITHM DOCKING 38 of 100
Run: 38 Seed: 29691899 1670090741 [ Run 38 of 100 GA/GALS ]
Beginning LAMARCKIAN GENETIC ALGORITHM (LGA), with a maximum of 2500000 energy evaluations.

Final-Value: -13.500


	FINAL GENETIC ALGORITHM DOCKED STATE
	_______________________________________________


Detailed state:  trans 21.899 -11.378 -2.383 quatxyzw -0.500884 -0.424766 -0.754101 -0.004590 center 0.217 0.012 -0.211 ntor 5 19.0148 -155.4370 -21.0445 -27.0170 178.2671
State:	 21.899 -11.378  -2.383  -0.501 -0.425 -0.754 -179.474     19.01 -155.44  -21.04  -27.02  178.27

DOCKED: MODEL       38
DOCKED: USER    Run = 38
DOCKED: USER    DPF = ligand_dock.biased.dpf
DOCKED: USER  
DOCKED: USER    Estimated Free Energy of Binding    =  -10.90 kcal/mol  [=(1)+(2)+(3)-(4)]
DOCKED: USER    Estimated Inhibition Constant, Ki   =   10.20 nM (nanomolar)  [Temperature = 298.15 K]
DOCKED: USER    
DOCKED: USER    (1) Final Intermolecular Energy     =  -12.39 kcal/mol
DOCKED: USER        vdW + Hbond + desolv Energy     =  -12.39 kcal/mol
DOCKED: USER        Electrostatic Energy            =   +0.00 kcal/mol
DOCKED: USER    (2) Final Total Internal Energy     =   -1.11 kcal/mol
DOCKED: USER    (3) Torsional Free Energy           =   +1.49 kcal/mol
DOCKED: USER    (4) Unbound System's Energy  [=(2)] =   -1.11 kcal/mol
DOCKED: USER    
DOCKED: USER    
DOCKED: USER    NEWDPF move ligand.pdbqt
DOCKED: USER    NEWDPF about 0.217000 0.012000 -0.211000
DOCKED: USER    NEWDPF tran0 21.899496 -11.377913 -2.383497
DOCKED: USER    NEWDPF quaternion0 -0.500884 -0.424766 -0.754101 -0.004590
DOCKED: USER    NEWDPF axisangle0 -0.500889 -0.424770 -0.754109 -179.474012
DOCKED: USER    NEWDPF quat0 -0.500889 -0.424770 -0.754109 -179.474012
DOCKED: USER    NEWDPF dihe0 19.01 -155.44 -21.04 -27.02 178.27 
DOCKED: USER  keepresnum = 1 
DOCKED: USER  
DOCKED: REMARK  Name = 
DOCKED: REMARK  5 active torsions:
DOCKED: REMARK  status: ('A' for Active; 'I' for Inactive)
DOCKED: REMARK    1  A    between atoms: S_2  and  N_3
DOCKED: REMARK    2  A    between atoms: S_2  and  C_10
DOCKED: REMARK    3  A    between atoms: N_3  and  C_4
DOCKED: REMARK    4  A    between atoms: C_12  and  C_13
DOCKED: REMARK    5  A    between atoms: C_14  and  C_15
DOCKED: REMARK                            x       y       z     vdW  Elec       q    Type
DOCKED: REMARK                         _______ _______ _______ _____ _____    ______ ____
DOCKED: USER                              x       y       z     vdW  Elec       q    Type
DOCKED: USER                           _______ _______ _______ _____ _____    ______ ____
DOCKED: ROOT
DOCKED: ATOM      1  C   UNL     1      21.212 -10.287  -4.143 -0.43 -0.00    +0.000 A 
DOCKED: ATOM      2  C   UNL     1      21.111 -10.709  -2.810 -0.41 -0.00    +0.000 A 
DOCKED: ATOM      3  C   UNL     1      21.127  -9.770  -1.758 -0.54 -0.00    +0.000 A 
DOCKED: ATOM      4  C   UNL     1      21.262  -8.407  -2.069 -0.44 -0.00    +0.000 A 
DOCKED: ATOM      5  C   UNL     1      21.352  -7.986  -3.398 -0.35 -0.00    +0.000 A 
DOCKED: ATOM      6  C   UNL     1      21.323  -8.922  -4.433 -0.31 -0.00    +0.000 A 
DOCKED: ENDROOT
DOCKED: BRANCH   1   8
DOCKED: ATOM      7  O   UNL     1      20.541 -12.744  -5.006 -0.77 -0.00    +0.000 OA
DOCKED: ATOM      8  S   UNL     1      21.212 -11.474  -5.446 -0.62 -0.00    +0.000 S 
DOCKED: ATOM      9  O   UNL     1      22.635 -11.775  -5.821 -0.61 -0.00    +0.000 OA
DOCKED: BRANCH   8  10
DOCKED: ATOM     10  N   UNL     1      20.377 -10.842  -6.831 -0.30 -0.00    +0.000 N 
DOCKED: ATOM     11  H   UNL     1      20.916 -10.484  -7.572 -0.02 -0.00    +0.000 HD
DOCKED: BRANCH  10  12
DOCKED: ATOM     12  C   UNL     1      18.944 -10.810  -6.959 -0.30 -0.00    +0.000 A 
DOCKED: ATOM     13  C   UNL     1      18.312 -10.534  -8.188 -0.21 -0.00    +0.000 A 
DOCKED: ATOM     14  C   UNL     1      16.917 -10.521  -8.276 -0.20 -0.00    +0.000 A 
DOCKED: ATOM     15  C   UNL     1      16.139 -10.775  -7.145 -0.22 -0.00    +0.000 A 
DOCKED: ATOM     16  C   UNL     1      16.755 -11.041  -5.921 -0.27 -0.00    +0.000 A 
DOCKED: ATOM     17  C   UNL     1      18.150 -11.056  -5.827 -0.32 -0.00    +0.000 A 
DOCKED: ENDBRANCH  10  12
DOCKED: ENDBRANCH   8  10
DOCKED: ENDBRANCH   1   8
DOCKED: BRANCH   3  18
DOCKED: ATOM     18  C   UNL     1      21.049 -10.167  -0.330 -0.70 -0.00    +0.000 C 
DOCKED: ATOM     19  C   UNL     1      20.200 -11.094   0.140 -0.63 -0.00    +0.000 C 
DOCKED: BRANCH  19  20
DOCKED: ATOM     20  C   UNL     1      20.129 -11.486   1.563 -0.75 -0.00    +0.000 C 
DOCKED: ATOM     21  N   UNL     1      20.297 -10.542   2.627 -0.65 -0.00    +0.000 N 
DOCKED: ATOM     22  O   UNL     1      20.328 -10.967   3.912 -1.16 -0.00    +0.000 OA
DOCKED: ATOM     23  O   UNL     1      19.888 -12.690   1.842 -1.64 -0.00    +0.000 OA
DOCKED: ATOM     24  H   UNL     1      20.389  -9.582   2.424 -0.52 -0.00    +0.000 HD
DOCKED: ENDBRANCH  19  20
DOCKED: ENDBRANCH   3  18
DOCKED: TORSDOF 5
DOCKED: TER
DOCKED: ENDMDL
________________________________________________________________________________


	BEGINNING GENETIC ALGORITHM DOCKING 39 of 100
Run: 39 Seed: 610757783 2016923515 [ Run 39 of 100 GA/GALS ]
Beginning LAMARCKIAN GENETIC ALGORITHM (LGA), with a maximum of 2500000 energy evaluations.

Final-Value: -13.479


	FINAL GENETIC ALGORITHM DOCKED STATE
	_______________________________________________


Detailed state:  trans 21.501 -11.451 -2.707 quatxyzw 0.494081 0.252867 0.831630 0.018270 center 0.217 0.012 -0.211 ntor 5 152.5852 -43.3112 -152.1115 120.1317 71.1352
State:	 21.501 -11.451  -2.707   0.494  0.253  0.832 177.906    152.59  -43.31 -152.11  120.13   71.14

DOCKED: MODEL       39
DOCKED: USER    Run = 39
DOCKED: USER    DPF = ligand_dock.biased.dpf
DOCKED: USER  
DOCKED: USER    Estimated Free Energy of Binding    =  -10.83 kcal/mol  [=(1)+(2)+(3)-(4)]
DOCKED: USER    Estimated Inhibition Constant, Ki   =   11.44 nM (nanomolar)  [Temperature = 298.15 K]
DOCKED: USER    
DOCKED: USER    (1) Final Intermolecular Energy     =  -12.33 kcal/mol
DOCKED: USER        vdW + Hbond + desolv Energy     =  -12.33 kcal/mol
DOCKED: USER        Electrostatic Energy            =   +0.00 kcal/mol
DOCKED: USER    (2) Final Total Internal Energy     =   -1.15 kcal/mol
DOCKED: USER    (3) Torsional Free Energy           =   +1.49 kcal/mol
DOCKED: USER    (4) Unbound System's Energy  [=(2)] =   -1.15 kcal/mol
DOCKED: USER    
DOCKED: USER    
DOCKED: USER    NEWDPF move ligand.pdbqt
DOCKED: USER    NEWDPF about 0.217000 0.012000 -0.211000
DOCKED: USER    NEWDPF tran0 21.500618 -11.450826 -2.706515
DOCKED: USER    NEWDPF quaternion0 0.494081 0.252867 0.831630 0.018270
DOCKED: USER    NEWDPF axisangle0 0.494164 0.252909 0.831769 177.906341
DOCKED: USER    NEWDPF quat0 0.494164 0.252909 0.831769 177.906341
DOCKED: USER    NEWDPF dihe0 152.59 -43.31 -152.11 120.13 71.14 
DOCKED: USER  keepresnum = 1 
DOCKED: USER  
DOCKED: REMARK  Name = 
DOCKED: REMARK  5 active torsions:
DOCKED: REMARK  status: ('A' for Active; 'I' for Inactive)
DOCKED: REMARK    1  A    between atoms: S_2  and  N_3
DOCKED: REMARK    2  A    between atoms: S_2  and  C_10
DOCKED: REMARK    3  A    between atoms: N_3  and  C_4
DOCKED: REMARK    4  A    between atoms: C_12  and  C_13
DOCKED: REMARK    5  A    between atoms: C_14  and  C_15
DOCKED: REMARK                            x       y       z     vdW  Elec       q    Type
DOCKED: REMARK                         _______ _______ _______ _____ _____    ______ ____
DOCKED: USER                              x       y       z     vdW  Elec       q    Type
DOCKED: USER                           _______ _______ _______ _____ _____    ______ ____
DOCKED: ROOT
DOCKED: ATOM      1  C   UNL     1      21.138  -9.751  -4.025 -0.40 -0.00    +0.000 A 
DOCKED: ATOM      2  C   UNL     1      20.852 -10.564  -2.920 -0.46 -0.00    +0.000 A 
DOCKED: ATOM      3  C   UNL     1      20.888 -10.036  -1.612 -0.55 -0.00    +0.000 A 
DOCKED: ATOM      4  C   UNL     1      21.231  -8.686  -1.437 -0.47 -0.00    +0.000 A 
DOCKED: ATOM      5  C   UNL     1      21.506  -7.872  -2.539 -0.36 -0.00    +0.000 A 
DOCKED: ATOM      6  C   UNL     1      21.455  -8.401  -3.830 -0.32 -0.00    +0.000 A 
DOCKED: ENDROOT
DOCKED: BRANCH   1   8
DOCKED: ATOM      7  O   UNL     1      22.417 -11.102  -5.965 -0.50 -0.00    +0.000 OA
DOCKED: ATOM      8  S   UNL     1      21.111 -10.430  -5.650 -0.50 -0.00    +0.000 S 
DOCKED: ATOM      9  O   UNL     1      20.882  -9.317  -6.633 -0.19 -0.00    +0.000 OA
DOCKED: BRANCH   8  10
DOCKED: ATOM     10  N   UNL     1      19.828 -11.591  -5.792 -0.40 -0.00    +0.000 N 
DOCKED: ATOM     11  H   UNL     1      20.072 -12.537  -5.910 -0.51 -0.00    +0.000 HD
DOCKED: BRANCH  10  12
DOCKED: ATOM     12  C   UNL     1      18.430 -11.253  -5.748 -0.34 -0.00    +0.000 A 
DOCKED: ATOM     13  C   UNL     1      17.869 -10.543  -4.668 -0.24 -0.00    +0.000 A 
DOCKED: ATOM     14  C   UNL     1      16.507 -10.224  -4.665 -0.21 -0.00    +0.000 A 
DOCKED: ATOM     15  C   UNL     1      15.692 -10.612  -5.730 -0.21 -0.00    +0.000 A 
DOCKED: ATOM     16  C   UNL     1      16.237 -11.324  -6.801 -0.29 -0.00    +0.000 A 
DOCKED: ATOM     17  C   UNL     1      17.597 -11.645  -6.810 -0.32 -0.00    +0.000 A 
DOCKED: ENDBRANCH  10  12
DOCKED: ENDBRANCH   8  10
DOCKED: ENDBRANCH   1   8
DOCKED: BRANCH   3  18
DOCKED: ATOM     18  C   UNL     1      20.618 -10.861  -0.408 -0.62 -0.00    +0.000 C 
DOCKED: ATOM     19  C   UNL     1      20.550 -10.364   0.836 -0.65 -0.00    +0.000 C 
DOCKED: BRANCH  19  20
DOCKED: ATOM     20  C   UNL     1      20.279 -11.191   2.029 -0.76 -0.00    +0.000 C 
DOCKED: ATOM     21  N   UNL     1      20.405 -10.681   3.362 -0.68 -0.00    +0.000 N 
DOCKED: ATOM     22  O   UNL     1      20.247 -11.507   4.422 -0.98 -0.00    +0.000 OA
DOCKED: ATOM     23  O   UNL     1      19.898 -12.381   1.861 -1.80 -0.00    +0.000 OA
DOCKED: ATOM     24  H   UNL     1      20.607  -9.728   3.506 -0.56 -0.00    +0.000 HD
DOCKED: ENDBRANCH  19  20
DOCKED: ENDBRANCH   3  18
DOCKED: TORSDOF 5
DOCKED: TER
DOCKED: ENDMDL
________________________________________________________________________________


	BEGINNING GENETIC ALGORITHM DOCKING 40 of 100
Run: 40 Seed: 2056365323 42752960 [ Run 40 of 100 GA/GALS ]
Beginning LAMARCKIAN GENETIC ALGORITHM (LGA), with a maximum of 2500000 energy evaluations.

Final-Value: -14.222


	FINAL GENETIC ALGORITHM DOCKED STATE
	_______________________________________________


Detailed state:  trans 17.616 -9.414 3.315 quatxyzw 0.111691 -0.936659 -0.182687 -0.277164 center 0.217 0.012 -0.211 ntor 5 128.0129 67.8048 102.7617 -12.3326 -71.3686
State:	 17.616  -9.414   3.315   0.116 -0.975 -0.190 -147.818    128.01   67.80  102.76  -12.33  -71.37

DOCKED: MODEL       40
DOCKED: USER    Run = 40
DOCKED: USER    DPF = ligand_dock.biased.dpf
DOCKED: USER  
DOCKED: USER    Estimated Free Energy of Binding    =  -11.72 kcal/mol  [=(1)+(2)+(3)-(4)]
DOCKED: USER    Estimated Inhibition Constant, Ki   =    2.56 nM (nanomolar)  [Temperature = 298.15 K]
DOCKED: USER    
DOCKED: USER    (1) Final Intermolecular Energy     =  -13.21 kcal/mol
DOCKED: USER        vdW + Hbond + desolv Energy     =  -13.21 kcal/mol
DOCKED: USER        Electrostatic Energy            =   +0.00 kcal/mol
DOCKED: USER    (2) Final Total Internal Energy     =   -1.01 kcal/mol
DOCKED: USER    (3) Torsional Free Energy           =   +1.49 kcal/mol
DOCKED: USER    (4) Unbound System's Energy  [=(2)] =   -1.01 kcal/mol
DOCKED: USER    
DOCKED: USER    
DOCKED: USER    NEWDPF move ligand.pdbqt
DOCKED: USER    NEWDPF about 0.217000 0.012000 -0.211000
DOCKED: USER    NEWDPF tran0 17.616421 -9.413879 3.315316
DOCKED: USER    NEWDPF quaternion0 0.111691 -0.936659 -0.182687 -0.277164
DOCKED: USER    NEWDPF axisangle0 0.116245 -0.974852 -0.190136 -147.817987
DOCKED: USER    NEWDPF quat0 0.116245 -0.974852 -0.190136 -147.817987
DOCKED: USER    NEWDPF dihe0 128.01 67.80 102.76 -12.33 -71.37 
DOCKED: USER  keepresnum = 1 
DOCKED: USER  
DOCKED: REMARK  Name = 
DOCKED: REMARK  5 active torsions:
DOCKED: REMARK  status: ('A' for Active; 'I' for Inactive)
DOCKED: REMARK    1  A    between atoms: S_2  and  N_3
DOCKED: REMARK    2  A    between atoms: S_2  and  C_10
DOCKED: REMARK    3  A    between atoms: N_3  and  C_4
DOCKED: REMARK    4  A    between atoms: C_12  and  C_13
DOCKED: REMARK    5  A    between atoms: C_14  and  C_15
DOCKED: REMARK                            x       y       z     vdW  Elec       q    Type
DOCKED: REMARK                         _______ _______ _______ _____ _____    ______ ____
DOCKED: USER                              x       y       z     vdW  Elec       q    Type
DOCKED: USER                           _______ _______ _______ _____ _____    ______ ____
DOCKED: ROOT
DOCKED: ATOM      1  C   UNL     1      18.317 -11.183   2.247 -0.48 -0.00    +0.000 A 
DOCKED: ATOM      2  C   UNL     1      17.565 -10.529   3.233 -0.35 +0.00    +0.000 A 
DOCKED: ATOM      3  C   UNL     1      16.157 -10.613   3.236 -0.45 +0.00    +0.000 A 
DOCKED: ATOM      4  C   UNL     1      15.522 -11.351   2.224 -0.42 +0.00    +0.000 A 
DOCKED: ATOM      5  C   UNL     1      16.271 -12.011   1.247 -0.42 +0.00    +0.000 A 
DOCKED: ATOM      6  C   UNL     1      17.664 -11.932   1.260 -0.44 +0.00    +0.000 A 
DOCKED: ENDROOT
DOCKED: BRANCH   1   8
DOCKED: ATOM      7  O   UNL     1      20.707 -12.397   2.038 -1.75 -0.00    +0.000 OA
DOCKED: ATOM      8  S   UNL     1      20.073 -11.050   2.244 -0.92 -0.00    +0.000 S 
DOCKED: ATOM      9  O   UNL     1      20.516 -10.497   3.568 -1.07 -0.00    +0.000 OA
DOCKED: BRANCH   8  10
DOCKED: ATOM     10  N   UNL     1      20.590  -9.981   0.976 -0.53 -0.00    +0.000 N 
DOCKED: ATOM     11  H   UNL     1      21.034  -9.141   1.233 -0.44 -0.00    +0.000 HD
DOCKED: BRANCH  10  12
DOCKED: ATOM     12  C   UNL     1      20.407 -10.250  -0.425 -0.56 -0.00    +0.000 A 
DOCKED: ATOM     13  C   UNL     1      19.137 -10.517  -0.973 -0.37 -0.00    +0.000 A 
DOCKED: ATOM     14  C   UNL     1      18.997 -10.763  -2.343 -0.36 -0.00    +0.000 A 
DOCKED: ATOM     15  C   UNL     1      20.117 -10.754  -3.176 -0.42 -0.00    +0.000 A 
DOCKED: ATOM     16  C   UNL     1      21.382 -10.500  -2.641 -0.49 -0.00    +0.000 A 
DOCKED: ATOM     17  C   UNL     1      21.527 -10.252  -1.274 -0.51 -0.00    +0.000 A 
DOCKED: ENDBRANCH  10  12
DOCKED: ENDBRANCH   8  10
DOCKED: ENDBRANCH   1   8
DOCKED: BRANCH   3  18
DOCKED: ATOM     18  C   UNL     1      15.316  -9.919   4.242 -0.43 +0.00    +0.000 C 
DOCKED: ATOM     19  C   UNL     1      15.000  -8.617   4.178 -0.39 +0.00    +0.000 C 
DOCKED: BRANCH  19  20
DOCKED: ATOM     20  C   UNL     1      14.159  -7.933   5.183 -0.44 +0.00    +0.000 C 
DOCKED: ATOM     21  N   UNL     1      14.370  -6.566   5.557 -0.43 +0.00    +0.000 N 
DOCKED: ATOM     22  O   UNL     1      13.642  -6.017   6.557 -1.05 +0.00    +0.000 OA
DOCKED: ATOM     23  O   UNL     1      13.209  -8.574   5.707 -0.50 +0.00    +0.000 OA
DOCKED: ATOM     24  H   UNL     1      15.046  -6.026   5.087 -0.02 +0.00    +0.000 HD
DOCKED: ENDBRANCH  19  20
DOCKED: ENDBRANCH   3  18
DOCKED: TORSDOF 5
DOCKED: TER
DOCKED: ENDMDL
________________________________________________________________________________


	BEGINNING GENETIC ALGORITHM DOCKING 41 of 100
Run: 41 Seed: 217774297 746206223 [ Run 41 of 100 GA/GALS ]
Beginning LAMARCKIAN GENETIC ALGORITHM (LGA), with a maximum of 2500000 energy evaluations.

Final-Value: -12.808


	FINAL GENETIC ALGORITHM DOCKED STATE
	_______________________________________________


Detailed state:  trans 20.365 -7.612 -1.146 quatxyzw 0.607373 -0.565452 -0.113073 -0.546422 center 0.217 0.012 -0.211 ntor 5 -19.3547 51.2825 -163.3741 -56.6789 63.3923
State:	 20.365  -7.612  -1.146   0.725 -0.675 -0.135 -113.756    -19.35   51.28 -163.37  -56.68   63.39

DOCKED: MODEL       41
DOCKED: USER    Run = 41
DOCKED: USER    DPF = ligand_dock.biased.dpf
DOCKED: USER  
DOCKED: USER    Estimated Free Energy of Binding    =  -10.29 kcal/mol  [=(1)+(2)+(3)-(4)]
DOCKED: USER    Estimated Inhibition Constant, Ki   =   28.86 nM (nanomolar)  [Temperature = 298.15 K]
DOCKED: USER    
DOCKED: USER    (1) Final Intermolecular Energy     =  -11.78 kcal/mol
DOCKED: USER        vdW + Hbond + desolv Energy     =  -11.78 kcal/mol
DOCKED: USER        Electrostatic Energy            =   +0.00 kcal/mol
DOCKED: USER    (2) Final Total Internal Energy     =   -1.03 kcal/mol
DOCKED: USER    (3) Torsional Free Energy           =   +1.49 kcal/mol
DOCKED: USER    (4) Unbound System's Energy  [=(2)] =   -1.03 kcal/mol
DOCKED: USER    
DOCKED: USER    
DOCKED: USER    NEWDPF move ligand.pdbqt
DOCKED: USER    NEWDPF about 0.217000 0.012000 -0.211000
DOCKED: USER    NEWDPF tran0 20.364772 -7.612171 -1.145667
DOCKED: USER    NEWDPF quaternion0 0.607373 -0.565452 -0.113073 -0.546422
DOCKED: USER    NEWDPF axisangle0 0.725213 -0.675158 -0.135011 -113.756243
DOCKED: USER    NEWDPF quat0 0.725213 -0.675158 -0.135011 -113.756243
DOCKED: USER    NEWDPF dihe0 -19.35 51.28 -163.37 -56.68 63.39 
DOCKED: USER  keepresnum = 1 
DOCKED: USER  
DOCKED: REMARK  Name = 
DOCKED: REMARK  5 active torsions:
DOCKED: REMARK  status: ('A' for Active; 'I' for Inactive)
DOCKED: REMARK    1  A    between atoms: S_2  and  N_3
DOCKED: REMARK    2  A    between atoms: S_2  and  C_10
DOCKED: REMARK    3  A    between atoms: N_3  and  C_4
DOCKED: REMARK    4  A    between atoms: C_12  and  C_13
DOCKED: REMARK    5  A    between atoms: C_14  and  C_15
DOCKED: REMARK                            x       y       z     vdW  Elec       q    Type
DOCKED: REMARK                         _______ _______ _______ _____ _____    ______ ____
DOCKED: USER                              x       y       z     vdW  Elec       q    Type
DOCKED: USER                           _______ _______ _______ _____ _____    ______ ____
DOCKED: ROOT
DOCKED: ATOM      1  C   UNL     1      21.417  -7.648  -3.057 -0.36 -0.00    +0.000 A 
DOCKED: ATOM      2  C   UNL     1      21.234  -8.023  -1.718 -0.41 -0.00    +0.000 A 
DOCKED: ATOM      3  C   UNL     1      21.011  -9.374  -1.377 -0.55 -0.00    +0.000 A 
DOCKED: ATOM      4  C   UNL     1      20.961 -10.332  -2.402 -0.50 -0.00    +0.000 A 
DOCKED: ATOM      5  C   UNL     1      21.155  -9.959  -3.735 -0.43 -0.00    +0.000 A 
DOCKED: ATOM      6  C   UNL     1      21.386  -8.622  -4.062 -0.33 -0.00    +0.000 A 
DOCKED: ENDROOT
DOCKED: BRANCH   1   8
DOCKED: ATOM      7  O   UNL     1      20.362  -5.277  -3.762 -0.21 -0.00    +0.000 OA
DOCKED: ATOM      8  S   UNL     1      21.672  -5.954  -3.470 -0.38 -0.00    +0.000 S 
DOCKED: ATOM      9  O   UNL     1      22.544  -5.883  -4.690 -0.21 -0.00    +0.000 OA
DOCKED: BRANCH   8  10
DOCKED: ATOM     10  N   UNL     1      22.455  -5.129  -2.158 -0.36 +0.00    +0.000 N 
DOCKED: ATOM     11  H   UNL     1      23.400  -5.341  -1.978 -0.03 +0.00    +0.000 HD
DOCKED: BRANCH  10  12
DOCKED: ATOM     12  C   UNL     1      21.807  -4.156  -1.319 -0.30 +0.00    +0.000 A 
DOCKED: ATOM     13  C   UNL     1      20.474  -4.312  -0.892 -0.39 +0.00    +0.000 A 
DOCKED: ATOM     14  C   UNL     1      19.880  -3.350  -0.068 -0.33 +0.00    +0.000 A 
DOCKED: ATOM     15  C   UNL     1      20.604  -2.224   0.331 -0.36 -0.00    +0.000 A 
DOCKED: ATOM     16  C   UNL     1      21.923  -2.057  -0.095 -0.32 -0.00    +0.000 A 
DOCKED: ATOM     17  C   UNL     1      22.521  -3.015  -0.918 -0.27 +0.00    +0.000 A 
DOCKED: ENDBRANCH  10  12
DOCKED: ENDBRANCH   8  10
DOCKED: ENDBRANCH   1   8
DOCKED: BRANCH   3  18
DOCKED: ATOM     18  C   UNL     1      20.786  -9.819   0.021 -0.65 -0.00    +0.000 C 
DOCKED: ATOM     19  C   UNL     1      20.455 -11.074   0.359 -0.67 -0.00    +0.000 C 
DOCKED: BRANCH  19  20
DOCKED: ATOM     20  C   UNL     1      20.235 -11.510   1.753 -0.77 -0.00    +0.000 C 
DOCKED: ATOM     21  N   UNL     1      20.389 -10.623   2.868 -0.66 -0.00    +0.000 N 
DOCKED: ATOM     22  O   UNL     1      20.279 -11.096   4.131 -1.10 -0.00    +0.000 OA
DOCKED: ATOM     23  O   UNL     1      19.874 -12.700   1.961 -1.63 -0.00    +0.000 OA
DOCKED: ATOM     24  H   UNL     1      20.576  -9.668   2.714 -0.56 -0.00    +0.000 HD
DOCKED: ENDBRANCH  19  20
DOCKED: ENDBRANCH   3  18
DOCKED: TORSDOF 5
DOCKED: TER
DOCKED: ENDMDL
________________________________________________________________________________


	BEGINNING GENETIC ALGORITHM DOCKING 42 of 100
Run: 42 Seed: 1426223575 228600383 [ Run 42 of 100 GA/GALS ]
Beginning LAMARCKIAN GENETIC ALGORITHM (LGA), with a maximum of 2500000 energy evaluations.

Final-Value: -13.793


	FINAL GENETIC ALGORITHM DOCKED STATE
	_______________________________________________


Detailed state:  trans 21.930 -11.354 -2.492 quatxyzw 0.533387 0.382271 0.753574 0.038642 center 0.217 0.012 -0.211 ntor 5 71.9338 -103.5021 -57.5801 151.0559 -123.3481
State:	 21.930 -11.354  -2.492   0.534  0.383  0.754 175.571     71.93 -103.50  -57.58  151.06 -123.35

DOCKED: MODEL       42
DOCKED: USER    Run = 42
DOCKED: USER    DPF = ligand_dock.biased.dpf
DOCKED: USER  
DOCKED: USER    Estimated Free Energy of Binding    =  -11.29 kcal/mol  [=(1)+(2)+(3)-(4)]
DOCKED: USER    Estimated Inhibition Constant, Ki   =    5.29 nM (nanomolar)  [Temperature = 298.15 K]
DOCKED: USER    
DOCKED: USER    (1) Final Intermolecular Energy     =  -12.78 kcal/mol
DOCKED: USER        vdW + Hbond + desolv Energy     =  -12.78 kcal/mol
DOCKED: USER        Electrostatic Energy            =   +0.00 kcal/mol
DOCKED: USER    (2) Final Total Internal Energy     =   -1.01 kcal/mol
DOCKED: USER    (3) Torsional Free Energy           =   +1.49 kcal/mol
DOCKED: USER    (4) Unbound System's Energy  [=(2)] =   -1.01 kcal/mol
DOCKED: USER    
DOCKED: USER    
DOCKED: USER    NEWDPF move ligand.pdbqt
DOCKED: USER    NEWDPF about 0.217000 0.012000 -0.211000
DOCKED: USER    NEWDPF tran0 21.930235 -11.354255 -2.491776
DOCKED: USER    NEWDPF quaternion0 0.533387 0.382271 0.753574 0.038642
DOCKED: USER    NEWDPF axisangle0 0.533785 0.382557 0.754137 175.570901
DOCKED: USER    NEWDPF quat0 0.533785 0.382557 0.754137 175.570901
DOCKED: USER    NEWDPF dihe0 71.93 -103.50 -57.58 151.06 -123.35 
DOCKED: USER  keepresnum = 1 
DOCKED: USER  
DOCKED: REMARK  Name = 
DOCKED: REMARK  5 active torsions:
DOCKED: REMARK  status: ('A' for Active; 'I' for Inactive)
DOCKED: REMARK    1  A    between atoms: S_2  and  N_3
DOCKED: REMARK    2  A    between atoms: S_2  and  C_10
DOCKED: REMARK    3  A    between atoms: N_3  and  C_4
DOCKED: REMARK    4  A    between atoms: C_12  and  C_13
DOCKED: REMARK    5  A    between atoms: C_14  and  C_15
DOCKED: REMARK                            x       y       z     vdW  Elec       q    Type
DOCKED: REMARK                         _______ _______ _______ _____ _____    ______ ____
DOCKED: USER                              x       y       z     vdW  Elec       q    Type
DOCKED: USER                           _______ _______ _______ _____ _____    ______ ____
DOCKED: ROOT
DOCKED: ATOM      1  C   UNL     1      21.132 -10.086  -4.078 -0.42 -0.00    +0.000 A 
DOCKED: ATOM      2  C   UNL     1      21.126 -10.635  -2.788 -0.44 -0.00    +0.000 A 
DOCKED: ATOM      3  C   UNL     1      21.245  -9.804  -1.654 -0.54 -0.00    +0.000 A 
DOCKED: ATOM      4  C   UNL     1      21.387  -8.420  -1.842 -0.45 -0.00    +0.000 A 
DOCKED: ATOM      5  C   UNL     1      21.383  -7.871  -3.128 -0.37 -0.00    +0.000 A 
DOCKED: ATOM      6  C   UNL     1      21.252  -8.700  -4.242 -0.32 -0.00    +0.000 A 
DOCKED: ENDROOT
DOCKED: BRANCH   1   8
DOCKED: ATOM      7  O   UNL     1      19.569 -11.496  -5.751 -0.48 -0.00    +0.000 OA
DOCKED: ATOM      8  S   UNL     1      21.005 -11.139  -5.485 -0.61 -0.00    +0.000 S 
DOCKED: ATOM      9  O   UNL     1      21.781 -12.396  -5.217 -0.73 -0.00    +0.000 OA
DOCKED: BRANCH   8  10
DOCKED: ATOM     10  N   UNL     1      21.661 -10.349  -6.885 -0.29 -0.00    +0.000 N 
DOCKED: ATOM     11  H   UNL     1      21.089  -9.705  -7.362 +0.00 -0.00    +0.000 HD
DOCKED: BRANCH  10  12
DOCKED: ATOM     12  C   UNL     1      22.989 -10.579  -7.389 -0.32 -0.00    +0.000 A 
DOCKED: ATOM     13  C   UNL     1      23.966  -9.565  -7.404 -0.24 -0.00    +0.000 A 
DOCKED: ATOM     14  C   UNL     1      25.250  -9.828  -7.892 -0.29 -0.00    +0.000 A 
DOCKED: ATOM     15  C   UNL     1      25.570 -11.099  -8.375 -0.37 -0.00    +0.000 A 
DOCKED: ATOM     16  C   UNL     1      24.606 -12.109  -8.372 -0.42 -0.00    +0.000 A 
DOCKED: ATOM     17  C   UNL     1      23.322 -11.851  -7.885 -0.43 -0.00    +0.000 A 
DOCKED: ENDBRANCH  10  12
DOCKED: ENDBRANCH   8  10
DOCKED: ENDBRANCH   1   8
DOCKED: BRANCH   3  18
DOCKED: ATOM     18  C   UNL     1      21.269 -10.338  -0.270 -0.71 -0.00    +0.000 C 
DOCKED: ATOM     19  C   UNL     1      20.169 -10.693   0.411 -0.65 -0.00    +0.000 C 
DOCKED: BRANCH  19  20
DOCKED: ATOM     20  C   UNL     1      20.201 -11.226   1.788 -0.75 -0.00    +0.000 C 
DOCKED: ATOM     21  N   UNL     1      20.128 -10.378   2.941 -0.61 -0.00    +0.000 N 
DOCKED: ATOM     22  O   UNL     1      20.267 -10.904   4.180 -1.04 -0.00    +0.000 OA
DOCKED: ATOM     23  O   UNL     1      20.269 -12.474   1.947 -1.77 -0.00    +0.000 OA
DOCKED: ATOM     24  H   UNL     1      19.978  -9.411   2.831 -0.55 -0.00    +0.000 HD
DOCKED: ENDBRANCH  19  20
DOCKED: ENDBRANCH   3  18
DOCKED: TORSDOF 5
DOCKED: TER
DOCKED: ENDMDL
________________________________________________________________________________


	BEGINNING GENETIC ALGORITHM DOCKING 43 of 100
Run: 43 Seed: 25374475 2098273435 [ Run 43 of 100 GA/GALS ]
Beginning LAMARCKIAN GENETIC ALGORITHM (LGA), with a maximum of 2500000 energy evaluations.

Final-Value: -13.994


	FINAL GENETIC ALGORITHM DOCKED STATE
	_______________________________________________


Detailed state:  trans 21.903 -11.055 -2.162 quatxyzw -0.475558 -0.413006 -0.776700 -0.002818 center 0.217 0.012 -0.211 ntor 5 -1.1227 136.5775 -2.2973 89.6181 101.1922
State:	 21.903 -11.055  -2.162  -0.476 -0.413 -0.777 -179.677     -1.12  136.58   -2.30   89.62  101.19

DOCKED: MODEL       43
DOCKED: USER    Run = 43
DOCKED: USER    DPF = ligand_dock.biased.dpf
DOCKED: USER  
DOCKED: USER    Estimated Free Energy of Binding    =  -11.26 kcal/mol  [=(1)+(2)+(3)-(4)]
DOCKED: USER    Estimated Inhibition Constant, Ki   =    5.56 nM (nanomolar)  [Temperature = 298.15 K]
DOCKED: USER    
DOCKED: USER    (1) Final Intermolecular Energy     =  -12.75 kcal/mol
DOCKED: USER        vdW + Hbond + desolv Energy     =  -12.75 kcal/mol
DOCKED: USER        Electrostatic Energy            =   +0.00 kcal/mol
DOCKED: USER    (2) Final Total Internal Energy     =   -1.24 kcal/mol
DOCKED: USER    (3) Torsional Free Energy           =   +1.49 kcal/mol
DOCKED: USER    (4) Unbound System's Energy  [=(2)] =   -1.24 kcal/mol
DOCKED: USER    
DOCKED: USER    
DOCKED: USER    NEWDPF move ligand.pdbqt
DOCKED: USER    NEWDPF about 0.217000 0.012000 -0.211000
DOCKED: USER    NEWDPF tran0 21.902695 -11.055097 -2.161804
DOCKED: USER    NEWDPF quaternion0 -0.475558 -0.413006 -0.776700 -0.002818
DOCKED: USER    NEWDPF axisangle0 -0.475560 -0.413007 -0.776703 -179.677114
DOCKED: USER    NEWDPF quat0 -0.475560 -0.413007 -0.776703 -179.677114
DOCKED: USER    NEWDPF dihe0 -1.12 136.58 -2.30 89.62 101.19 
DOCKED: USER  keepresnum = 1 
DOCKED: USER  
DOCKED: REMARK  Name = 
DOCKED: REMARK  5 active torsions:
DOCKED: REMARK  status: ('A' for Active; 'I' for Inactive)
DOCKED: REMARK    1  A    between atoms: S_2  and  N_3
DOCKED: REMARK    2  A    between atoms: S_2  and  C_10
DOCKED: REMARK    3  A    between atoms: N_3  and  C_4
DOCKED: REMARK    4  A    between atoms: C_12  and  C_13
DOCKED: REMARK    5  A    between atoms: C_14  and  C_15
DOCKED: REMARK                            x       y       z     vdW  Elec       q    Type
DOCKED: REMARK                         _______ _______ _______ _____ _____    ______ ____
DOCKED: USER                              x       y       z     vdW  Elec       q    Type
DOCKED: USER                           _______ _______ _______ _____ _____    ______ ____
DOCKED: ROOT
DOCKED: ATOM      1  C   UNL     1      21.317  -9.906  -3.922 -0.42 -0.00    +0.000 A 
DOCKED: ATOM      2  C   UNL     1      21.136 -10.376  -2.613 -0.49 -0.00    +0.000 A 
DOCKED: ATOM      3  C   UNL     1      21.080  -9.475  -1.529 -0.54 -0.00    +0.000 A 
DOCKED: ATOM      4  C   UNL     1      21.223  -8.101  -1.783 -0.42 -0.00    +0.000 A 
DOCKED: ATOM      5  C   UNL     1      21.393  -7.632  -3.089 -0.37 -0.00    +0.000 A 
DOCKED: ATOM      6  C   UNL     1      21.435  -8.531  -4.156 -0.31 -0.00    +0.000 A 
DOCKED: ENDROOT
DOCKED: BRANCH   1   8
DOCKED: ATOM      7  O   UNL     1      22.454 -12.092  -4.999 -0.66 -0.00    +0.000 OA
DOCKED: ATOM      8  S   UNL     1      21.408 -11.046  -5.263 -0.64 -0.00    +0.000 S 
DOCKED: ATOM      9  O   UNL     1      21.771 -10.292  -6.510 -0.33 -0.00    +0.000 OA
DOCKED: BRANCH   8  10
DOCKED: ATOM     10  N   UNL     1      19.872 -11.824  -5.491 -0.41 -0.00    +0.000 N 
DOCKED: ATOM     11  H   UNL     1      19.871 -12.775  -5.748 -0.54 -0.00    +0.000 HD
DOCKED: BRANCH  10  12
DOCKED: ATOM     12  C   UNL     1      18.604 -11.164  -5.328 -0.34 -0.00    +0.000 A 
DOCKED: ATOM     13  C   UNL     1      17.639 -11.142  -6.354 -0.33 -0.00    +0.000 A 
DOCKED: ATOM     14  C   UNL     1      16.413 -10.499  -6.155 -0.21 -0.00    +0.000 A 
DOCKED: ATOM     15  C   UNL     1      16.140  -9.868  -4.940 -0.18 -0.00    +0.000 A 
DOCKED: ATOM     16  C   UNL     1      17.094  -9.877  -3.920 -0.22 -0.00    +0.000 A 
DOCKED: ATOM     17  C   UNL     1      18.320 -10.518  -4.113 -0.27 -0.00    +0.000 A 
DOCKED: ENDBRANCH  10  12
DOCKED: ENDBRANCH   8  10
DOCKED: ENDBRANCH   1   8
DOCKED: BRANCH   3  18
DOCKED: ATOM     18  C   UNL     1      20.916  -9.923  -0.124 -0.68 -0.00    +0.000 C 
DOCKED: ATOM     19  C   UNL     1      20.340 -11.083   0.225 -0.65 -0.00    +0.000 C 
DOCKED: BRANCH  19  20
DOCKED: ATOM     20  C   UNL     1      20.183 -11.524   1.627 -0.76 -0.00    +0.000 C 
DOCKED: ATOM     21  N   UNL     1      20.305 -10.621   2.733 -0.66 -0.00    +0.000 N 
DOCKED: ATOM     22  O   UNL     1      20.256 -11.091   4.001 -1.16 -0.00    +0.000 OA
DOCKED: ATOM     23  O   UNL     1      19.907 -12.733   1.849 -1.61 -0.00    +0.000 OA
DOCKED: ATOM     24  H   UNL     1      20.424  -9.657   2.570 -0.54 -0.00    +0.000 HD
DOCKED: ENDBRANCH  19  20
DOCKED: ENDBRANCH   3  18
DOCKED: TORSDOF 5
DOCKED: TER
DOCKED: ENDMDL
________________________________________________________________________________


	BEGINNING GENETIC ALGORITHM DOCKING 44 of 100
Run: 44 Seed: 1832441741 1534552108 [ Run 44 of 100 GA/GALS ]
Beginning LAMARCKIAN GENETIC ALGORITHM (LGA), with a maximum of 2500000 energy evaluations.

Final-Value: -13.105


	FINAL GENETIC ALGORITHM DOCKED STATE
	_______________________________________________


Detailed state:  trans 18.280 -10.658 -0.928 quatxyzw -0.616149 0.435857 0.372471 -0.540050 center 0.217 0.012 -0.211 ntor 5 -38.0635 167.7759 -103.2759 136.0099 -34.1601
State:	 18.280 -10.658  -0.928  -0.732  0.518  0.443 -114.626    -38.06  167.78 -103.28  136.01  -34.16

DOCKED: MODEL       44
DOCKED: USER    Run = 44
DOCKED: USER    DPF = ligand_dock.biased.dpf
DOCKED: USER  
DOCKED: USER    Estimated Free Energy of Binding    =  -10.49 kcal/mol  [=(1)+(2)+(3)-(4)]
DOCKED: USER    Estimated Inhibition Constant, Ki   =   20.31 nM (nanomolar)  [Temperature = 298.15 K]
DOCKED: USER    
DOCKED: USER    (1) Final Intermolecular Energy     =  -11.99 kcal/mol
DOCKED: USER        vdW + Hbond + desolv Energy     =  -11.99 kcal/mol
DOCKED: USER        Electrostatic Energy            =   +0.00 kcal/mol
DOCKED: USER    (2) Final Total Internal Energy     =   -1.12 kcal/mol
DOCKED: USER    (3) Torsional Free Energy           =   +1.49 kcal/mol
DOCKED: USER    (4) Unbound System's Energy  [=(2)] =   -1.12 kcal/mol
DOCKED: USER    
DOCKED: USER    
DOCKED: USER    NEWDPF move ligand.pdbqt
DOCKED: USER    NEWDPF about 0.217000 0.012000 -0.211000
DOCKED: USER    NEWDPF tran0 18.279823 -10.657922 -0.927700
DOCKED: USER    NEWDPF quaternion0 -0.616149 0.435857 0.372471 -0.540050
DOCKED: USER    NEWDPF axisangle0 -0.732088 0.517871 0.442558 -114.625851
DOCKED: USER    NEWDPF quat0 -0.732088 0.517871 0.442558 -114.625851
DOCKED: USER    NEWDPF dihe0 -38.06 167.78 -103.28 136.01 -34.16 
DOCKED: USER  keepresnum = 1 
DOCKED: USER  
DOCKED: REMARK  Name = 
DOCKED: REMARK  5 active torsions:
DOCKED: REMARK  status: ('A' for Active; 'I' for Inactive)
DOCKED: REMARK    1  A    between atoms: S_2  and  N_3
DOCKED: REMARK    2  A    between atoms: S_2  and  C_10
DOCKED: REMARK    3  A    between atoms: N_3  and  C_4
DOCKED: REMARK    4  A    between atoms: C_12  and  C_13
DOCKED: REMARK    5  A    between atoms: C_14  and  C_15
DOCKED: REMARK                            x       y       z     vdW  Elec       q    Type
DOCKED: REMARK                         _______ _______ _______ _____ _____    ______ ____
DOCKED: USER                              x       y       z     vdW  Elec       q    Type
DOCKED: USER                           _______ _______ _______ _____ _____    ______ ____
DOCKED: ROOT
DOCKED: ATOM      1  C   UNL     1      20.081 -10.562   0.300 -0.56 -0.00    +0.000 A 
DOCKED: ATOM      2  C   UNL     1      19.374 -10.885  -0.867 -0.44 -0.00    +0.000 A 
DOCKED: ATOM      3  C   UNL     1      19.717 -10.291  -2.100 -0.40 -0.00    +0.000 A 
DOCKED: ATOM      4  C   UNL     1      20.768  -9.362  -2.135 -0.47 -0.00    +0.000 A 
DOCKED: ATOM      5  C   UNL     1      21.480  -9.048  -0.974 -0.43 -0.00    +0.000 A 
DOCKED: ATOM      6  C   UNL     1      21.141  -9.649   0.240 -0.52 -0.00    +0.000 A 
DOCKED: ENDROOT
DOCKED: BRANCH   1   8
DOCKED: ATOM      7  O   UNL     1      20.641 -10.972   2.898 -1.37 -0.00    +0.000 OA
DOCKED: ATOM      8  S   UNL     1      19.627 -11.294   1.837 -0.88 -0.00    +0.000 S 
DOCKED: ATOM      9  O   UNL     1      19.559 -12.784   1.659 -1.46 -0.00    +0.000 OA
DOCKED: BRANCH   8  10
DOCKED: ATOM     10  N   UNL     1      18.072 -10.708   2.342 -0.48 -0.00    +0.000 N 
DOCKED: ATOM     11  H   UNL     1      18.047  -9.958   2.980 -0.03 -0.00    +0.000 HD
DOCKED: BRANCH  10  12
DOCKED: ATOM     12  C   UNL     1      16.821 -11.252   1.886 -0.39 +0.00    +0.000 A 
DOCKED: ATOM     13  C   UNL     1      15.637 -11.130   2.639 -0.44 +0.00    +0.000 A 
DOCKED: ATOM     14  C   UNL     1      14.437 -11.663   2.158 -0.43 +0.00    +0.000 A 
DOCKED: ATOM     15  C   UNL     1      14.405 -12.326   0.930 -0.39 +0.00    +0.000 A 
DOCKED: ATOM     16  C   UNL     1      15.575 -12.460   0.180 -0.47 +0.00    +0.000 A 
DOCKED: ATOM     17  C   UNL     1      16.777 -11.928   0.655 -0.43 +0.00    +0.000 A 
DOCKED: ENDBRANCH  10  12
DOCKED: ENDBRANCH   8  10
DOCKED: ENDBRANCH   1   8
DOCKED: BRANCH   3  18
DOCKED: ATOM     18  C   UNL     1      18.984 -10.580  -3.358 -0.38 -0.00    +0.000 C 
DOCKED: ATOM     19  C   UNL     1      19.577 -10.998  -4.487 -0.46 -0.00    +0.000 C 
DOCKED: BRANCH  19  20
DOCKED: ATOM     20  C   UNL     1      18.839 -11.285  -5.734 -0.41 -0.00    +0.000 C 
DOCKED: ATOM     21  N   UNL     1      17.432 -11.552  -5.750 -0.31 -0.00    +0.000 N 
DOCKED: ATOM     22  O   UNL     1      16.822 -11.912  -6.903 -0.43 -0.00    +0.000 OA
DOCKED: ATOM     23  O   UNL     1      19.473 -11.269  -6.823 -0.39 -0.00    +0.000 OA
DOCKED: ATOM     24  H   UNL     1      16.907 -11.473  -4.920 -0.02 -0.00    +0.000 HD
DOCKED: ENDBRANCH  19  20
DOCKED: ENDBRANCH   3  18
DOCKED: TORSDOF 5
DOCKED: TER
DOCKED: ENDMDL
________________________________________________________________________________


	BEGINNING GENETIC ALGORITHM DOCKING 45 of 100
Run: 45 Seed: 627024358 1760802955 [ Run 45 of 100 GA/GALS ]
Beginning LAMARCKIAN GENETIC ALGORITHM (LGA), with a maximum of 2500000 energy evaluations.

Final-Value: -12.515


	FINAL GENETIC ALGORITHM DOCKED STATE
	_______________________________________________


Detailed state:  trans 20.192 -12.081 -1.634 quatxyzw 0.714218 0.386049 -0.580660 -0.060771 center 0.217 0.012 -0.211 ntor 5 -104.8652 -149.2108 -14.0916 117.0128 -173.4183
State:	 20.192 -12.081  -1.634   0.716  0.387 -0.582 -173.032   -104.87 -149.21  -14.09  117.01 -173.42

DOCKED: MODEL       45
DOCKED: USER    Run = 45
DOCKED: USER    DPF = ligand_dock.biased.dpf
DOCKED: USER  
DOCKED: USER    Estimated Free Energy of Binding    =   -9.95 kcal/mol  [=(1)+(2)+(3)-(4)]
DOCKED: USER    Estimated Inhibition Constant, Ki   =   50.99 nM (nanomolar)  [Temperature = 298.15 K]
DOCKED: USER    
DOCKED: USER    (1) Final Intermolecular Energy     =  -11.44 kcal/mol
DOCKED: USER        vdW + Hbond + desolv Energy     =  -11.44 kcal/mol
DOCKED: USER        Electrostatic Energy            =   +0.00 kcal/mol
DOCKED: USER    (2) Final Total Internal Energy     =   -1.07 kcal/mol
DOCKED: USER    (3) Torsional Free Energy           =   +1.49 kcal/mol
DOCKED: USER    (4) Unbound System's Energy  [=(2)] =   -1.07 kcal/mol
DOCKED: USER    
DOCKED: USER    
DOCKED: USER    NEWDPF move ligand.pdbqt
DOCKED: USER    NEWDPF about 0.217000 0.012000 -0.211000
DOCKED: USER    NEWDPF tran0 20.192364 -12.081092 -1.634492
DOCKED: USER    NEWDPF quaternion0 0.714218 0.386049 -0.580660 -0.060771
DOCKED: USER    NEWDPF axisangle0 0.715540 0.386764 -0.581735 -173.031910
DOCKED: USER    NEWDPF quat0 0.715540 0.386764 -0.581735 -173.031910
DOCKED: USER    NEWDPF dihe0 -104.87 -149.21 -14.09 117.01 -173.42 
DOCKED: USER  keepresnum = 1 
DOCKED: USER  
DOCKED: REMARK  Name = 
DOCKED: REMARK  5 active torsions:
DOCKED: REMARK  status: ('A' for Active; 'I' for Inactive)
DOCKED: REMARK    1  A    between atoms: S_2  and  N_3
DOCKED: REMARK    2  A    between atoms: S_2  and  C_10
DOCKED: REMARK    3  A    between atoms: N_3  and  C_4
DOCKED: REMARK    4  A    between atoms: C_12  and  C_13
DOCKED: REMARK    5  A    between atoms: C_14  and  C_15
DOCKED: REMARK                            x       y       z     vdW  Elec       q    Type
DOCKED: REMARK                         _______ _______ _______ _____ _____    ______ ____
DOCKED: USER                              x       y       z     vdW  Elec       q    Type
DOCKED: USER                           _______ _______ _______ _____ _____    ______ ____
DOCKED: ROOT
DOCKED: ATOM      1  C   UNL     1      18.906 -10.842  -0.382 -0.42 -0.00    +0.000 A 
DOCKED: ATOM      2  C   UNL     1      19.727 -11.073  -1.494 -0.28 -0.00    +0.000 A 
DOCKED: ATOM      3  C   UNL     1      19.210 -10.965  -2.802 -0.35 -0.00    +0.000 A 
DOCKED: ATOM      4  C   UNL     1      17.855 -10.637  -2.970 -0.02 -0.00    +0.000 A 
DOCKED: ATOM      5  C   UNL     1      17.039 -10.396  -1.861 -0.18 -0.00    +0.000 A 
DOCKED: ATOM      6  C   UNL     1      17.562 -10.493  -0.571 -0.17 -0.00    +0.000 A 
DOCKED: ENDROOT
DOCKED: BRANCH   1   8
DOCKED: ATOM      7  O   UNL     1      21.013 -10.620   1.273 -0.79 -0.00    +0.000 OA
DOCKED: ATOM      8  S   UNL     1      19.560 -11.002   1.246 -0.80 -0.00    +0.000 S 
DOCKED: ATOM      9  O   UNL     1      19.421 -12.433   1.681 -1.54 -0.00    +0.000 OA
DOCKED: BRANCH   8  10
DOCKED: ATOM     10  N   UNL     1      18.685  -9.983   2.346 -0.53 -0.00    +0.000 N 
DOCKED: ATOM     11  H   UNL     1      19.171  -9.243   2.775 -0.46 -0.00    +0.000 HD
DOCKED: BRANCH  10  12
DOCKED: ATOM     12  C   UNL     1      17.293 -10.154   2.666 -0.42 +0.00    +0.000 A 
DOCKED: ATOM     13  C   UNL     1      16.527  -9.119   3.235 -0.31 +0.00    +0.000 A 
DOCKED: ATOM     14  C   UNL     1      15.173  -9.319   3.524 -0.36 +0.00    +0.000 A 
DOCKED: ATOM     15  C   UNL     1      14.573 -10.551   3.256 -0.39 +0.00    +0.000 A 
DOCKED: ATOM     16  C   UNL     1      15.326 -11.587   2.700 -0.46 +0.00    +0.000 A 
DOCKED: ATOM     17  C   UNL     1      16.679 -11.392   2.409 -0.31 +0.00    +0.000 A 
DOCKED: ENDBRANCH  10  12
DOCKED: ENDBRANCH   8  10
DOCKED: ENDBRANCH   1   8
DOCKED: BRANCH   3  18
DOCKED: ATOM     18  C   UNL     1      20.031 -11.225  -4.011 -0.49 -0.00    +0.000 C 
DOCKED: ATOM     19  C   UNL     1      21.327 -10.890  -4.117 -0.53 -0.00    +0.000 C 
DOCKED: BRANCH  19  20
DOCKED: ATOM     20  C   UNL     1      22.138 -11.154  -5.323 -0.47 -0.00    +0.000 C 
DOCKED: ATOM     21  N   UNL     1      22.823 -12.396  -5.530 -0.60 -0.00    +0.000 N 
DOCKED: ATOM     22  O   UNL     1      23.638 -12.551  -6.600 -1.16 -0.00    +0.000 OA
DOCKED: ATOM     23  O   UNL     1      22.206 -10.261  -6.209 -0.37 -0.00    +0.000 OA
DOCKED: ATOM     24  H   UNL     1      22.701 -13.137  -4.894 -0.06 -0.00    +0.000 HD
DOCKED: ENDBRANCH  19  20
DOCKED: ENDBRANCH   3  18
DOCKED: TORSDOF 5
DOCKED: TER
DOCKED: ENDMDL
________________________________________________________________________________


	BEGINNING GENETIC ALGORITHM DOCKING 46 of 100
Run: 46 Seed: 800996463 1950945396 [ Run 46 of 100 GA/GALS ]
Beginning LAMARCKIAN GENETIC ALGORITHM (LGA), with a maximum of 2500000 energy evaluations.

Final-Value: -13.041


	FINAL GENETIC ALGORITHM DOCKED STATE
	_______________________________________________


Detailed state:  trans 17.273 -11.838 0.432 quatxyzw -0.274784 -0.433991 0.825244 -0.234773 center 0.217 0.012 -0.211 ntor 5 128.7977 6.5895 43.0125 -16.2314 89.8438
State:	 17.273 -11.838   0.432  -0.283 -0.446  0.849 -152.843    128.80    6.59   43.01  -16.23   89.84

DOCKED: MODEL       46
DOCKED: USER    Run = 46
DOCKED: USER    DPF = ligand_dock.biased.dpf
DOCKED: USER  
DOCKED: USER    Estimated Free Energy of Binding    =  -10.19 kcal/mol  [=(1)+(2)+(3)-(4)]
DOCKED: USER    Estimated Inhibition Constant, Ki   =   33.70 nM (nanomolar)  [Temperature = 298.15 K]
DOCKED: USER    
DOCKED: USER    (1) Final Intermolecular Energy     =  -11.69 kcal/mol
DOCKED: USER        vdW + Hbond + desolv Energy     =  -11.69 kcal/mol
DOCKED: USER        Electrostatic Energy            =   +0.00 kcal/mol
DOCKED: USER    (2) Final Total Internal Energy     =   -1.36 kcal/mol
DOCKED: USER    (3) Torsional Free Energy           =   +1.49 kcal/mol
DOCKED: USER    (4) Unbound System's Energy  [=(2)] =   -1.36 kcal/mol
DOCKED: USER    
DOCKED: USER    
DOCKED: USER    NEWDPF move ligand.pdbqt
DOCKED: USER    NEWDPF about 0.217000 0.012000 -0.211000
DOCKED: USER    NEWDPF tran0 17.272520 -11.837794 0.432491
DOCKED: USER    NEWDPF quaternion0 -0.274784 -0.433991 0.825244 -0.234773
DOCKED: USER    NEWDPF axisangle0 -0.282685 -0.446470 0.848972 -152.843473
DOCKED: USER    NEWDPF quat0 -0.282685 -0.446470 0.848972 -152.843473
DOCKED: USER    NEWDPF dihe0 128.80 6.59 43.01 -16.23 89.84 
DOCKED: USER  keepresnum = 1 
DOCKED: USER  
DOCKED: REMARK  Name = 
DOCKED: REMARK  5 active torsions:
DOCKED: REMARK  status: ('A' for Active; 'I' for Inactive)
DOCKED: REMARK    1  A    between atoms: S_2  and  N_3
DOCKED: REMARK    2  A    between atoms: S_2  and  C_10
DOCKED: REMARK    3  A    between atoms: N_3  and  C_4
DOCKED: REMARK    4  A    between atoms: C_12  and  C_13
DOCKED: REMARK    5  A    between atoms: C_14  and  C_15
DOCKED: REMARK                            x       y       z     vdW  Elec       q    Type
DOCKED: REMARK                         _______ _______ _______ _____ _____    ______ ____
DOCKED: USER                              x       y       z     vdW  Elec       q    Type
DOCKED: USER                           _______ _______ _______ _____ _____    ______ ____
DOCKED: ROOT
DOCKED: ATOM      1  C   UNL     1      18.020 -11.057   2.328 -0.45 +0.00    +0.000 A 
DOCKED: ATOM      2  C   UNL     1      17.314 -10.957   1.121 -0.38 +0.00    +0.000 A 
DOCKED: ATOM      3  C   UNL     1      15.927 -10.702   1.121 -0.31 +0.00    +0.000 A 
DOCKED: ATOM      4  C   UNL     1      15.263 -10.568   2.351 -0.36 +0.00    +0.000 A 
DOCKED: ATOM      5  C   UNL     1      15.969 -10.658   3.554 -0.46 +0.00    +0.000 A 
DOCKED: ATOM      6  C   UNL     1      17.344 -10.897   3.544 -0.26 +0.00    +0.000 A 
DOCKED: ENDROOT
DOCKED: BRANCH   1   8
DOCKED: ATOM      7  O   UNL     1      20.015 -12.763   1.745 -1.56 -0.00    +0.000 OA
DOCKED: ATOM      8  S   UNL     1      19.749 -11.397   2.312 -0.92 -0.00    +0.000 S 
DOCKED: ATOM      9  O   UNL     1      20.263 -11.342   3.722 -1.30 -0.00    +0.000 OA
DOCKED: BRANCH   8  10
DOCKED: ATOM     10  N   UNL     1      20.583 -10.214   1.353 -0.56 -0.00    +0.000 N 
DOCKED: ATOM     11  H   UNL     1      21.176  -9.579   1.816 -0.55 -0.00    +0.000 HD
DOCKED: BRANCH  10  12
DOCKED: ATOM     12  C   UNL     1      20.459 -10.105  -0.076 -0.56 -0.00    +0.000 A 
DOCKED: ATOM     13  C   UNL     1      19.724 -11.039  -0.832 -0.42 -0.00    +0.000 A 
DOCKED: ATOM     14  C   UNL     1      19.617 -10.896  -2.220 -0.39 -0.00    +0.000 A 
DOCKED: ATOM     15  C   UNL     1      20.245  -9.829  -2.866 -0.41 -0.00    +0.000 A 
DOCKED: ATOM     16  C   UNL     1      20.984  -8.903  -2.126 -0.46 -0.00    +0.000 A 
DOCKED: ATOM     17  C   UNL     1      21.093  -9.041  -0.739 -0.51 -0.00    +0.000 A 
DOCKED: ENDBRANCH  10  12
DOCKED: ENDBRANCH   8  10
DOCKED: ENDBRANCH   1   8
DOCKED: BRANCH   3  18
DOCKED: ATOM     18  C   UNL     1      15.130 -10.612  -0.128 -0.31 +0.00    +0.000 C 
DOCKED: ATOM     19  C   UNL     1      15.524 -11.129  -1.302 -0.33 +0.00    +0.000 C 
DOCKED: BRANCH  19  20
DOCKED: ATOM     20  C   UNL     1      14.724 -11.037  -2.541 -0.32 -0.00    +0.000 C 
DOCKED: ATOM     21  N   UNL     1      15.325 -10.925  -3.836 -0.24 -0.00    +0.000 N 
DOCKED: ATOM     22  O   UNL     1      14.551 -10.738  -4.930 -0.25 -0.00    +0.000 OA
DOCKED: ATOM     23  O   UNL     1      13.468 -11.085  -2.449 -0.34 -0.00    +0.000 OA
DOCKED: ATOM     24  H   UNL     1      16.304 -10.983  -3.931 -0.01 -0.00    +0.000 HD
DOCKED: ENDBRANCH  19  20
DOCKED: ENDBRANCH   3  18
DOCKED: TORSDOF 5
DOCKED: TER
DOCKED: ENDMDL
________________________________________________________________________________


	BEGINNING GENETIC ALGORITHM DOCKING 47 of 100
Run: 47 Seed: 1935085818 1247452582 [ Run 47 of 100 GA/GALS ]
Beginning LAMARCKIAN GENETIC ALGORITHM (LGA), with a maximum of 2500000 energy evaluations.

Final-Value: -13.586


	FINAL GENETIC ALGORITHM DOCKED STATE
	_______________________________________________


Detailed state:  trans 21.555 -11.677 -2.610 quatxyzw 0.423217 0.324915 0.845750 -0.004908 center 0.217 0.012 -0.211 ntor 5 -151.7659 -132.3493 158.7153 -162.9605 -121.8286
State:	 21.555 -11.677  -2.610   0.423  0.325  0.846 -179.438   -151.77 -132.35  158.72 -162.96 -121.83

DOCKED: MODEL       47
DOCKED: USER    Run = 47
DOCKED: USER    DPF = ligand_dock.biased.dpf
DOCKED: USER  
DOCKED: USER    Estimated Free Energy of Binding    =  -11.18 kcal/mol  [=(1)+(2)+(3)-(4)]
DOCKED: USER    Estimated Inhibition Constant, Ki   =    6.35 nM (nanomolar)  [Temperature = 298.15 K]
DOCKED: USER    
DOCKED: USER    (1) Final Intermolecular Energy     =  -12.67 kcal/mol
DOCKED: USER        vdW + Hbond + desolv Energy     =  -12.67 kcal/mol
DOCKED: USER        Electrostatic Energy            =   +0.00 kcal/mol
DOCKED: USER    (2) Final Total Internal Energy     =   -0.91 kcal/mol
DOCKED: USER    (3) Torsional Free Energy           =   +1.49 kcal/mol
DOCKED: USER    (4) Unbound System's Energy  [=(2)] =   -0.91 kcal/mol
DOCKED: USER    
DOCKED: USER    
DOCKED: USER    NEWDPF move ligand.pdbqt
DOCKED: USER    NEWDPF about 0.217000 0.012000 -0.211000
DOCKED: USER    NEWDPF tran0 21.555324 -11.676783 -2.610086
DOCKED: USER    NEWDPF quaternion0 0.423217 0.324915 0.845750 -0.004908
DOCKED: USER    NEWDPF axisangle0 0.423222 0.324919 0.845760 -179.437588
DOCKED: USER    NEWDPF quat0 0.423222 0.324919 0.845760 -179.437588
DOCKED: USER    NEWDPF dihe0 -151.77 -132.35 158.72 -162.96 -121.83 
DOCKED: USER  keepresnum = 1 
DOCKED: USER  
DOCKED: REMARK  Name = 
DOCKED: REMARK  5 active torsions:
DOCKED: REMARK  status: ('A' for Active; 'I' for Inactive)
DOCKED: REMARK    1  A    between atoms: S_2  and  N_3
DOCKED: REMARK    2  A    between atoms: S_2  and  C_10
DOCKED: REMARK    3  A    between atoms: N_3  and  C_4
DOCKED: REMARK    4  A    between atoms: C_12  and  C_13
DOCKED: REMARK    5  A    between atoms: C_14  and  C_15
DOCKED: REMARK                            x       y       z     vdW  Elec       q    Type
DOCKED: REMARK                         _______ _______ _______ _____ _____    ______ ____
DOCKED: USER                              x       y       z     vdW  Elec       q    Type
DOCKED: USER                           _______ _______ _______ _____ _____    ______ ____
DOCKED: ROOT
DOCKED: ATOM      1  C   UNL     1      21.297 -10.191  -4.187 -0.42 -0.00    +0.000 A 
DOCKED: ATOM      2  C   UNL     1      20.896 -10.878  -3.032 -0.38 -0.00    +0.000 A 
DOCKED: ATOM      3  C   UNL     1      20.705 -10.186  -1.818 -0.52 -0.00    +0.000 A 
DOCKED: ATOM      4  C   UNL     1      20.939  -8.802  -1.783 -0.45 -0.00    +0.000 A 
DOCKED: ATOM      5  C   UNL     1      21.328  -8.116  -2.937 -0.39 -0.00    +0.000 A 
DOCKED: ATOM      6  C   UNL     1      21.503  -8.807  -4.137 -0.31 -0.00    +0.000 A 
DOCKED: ENDROOT
DOCKED: BRANCH   1   8
DOCKED: ATOM      7  O   UNL     1      20.252 -11.269  -6.418 -0.38 -0.00    +0.000 OA
DOCKED: ATOM      8  S   UNL     1      21.553 -11.072  -5.691 -0.61 -0.00    +0.000 S 
DOCKED: ATOM      9  O   UNL     1      22.142 -12.415  -5.368 -0.82 -0.00    +0.000 OA
DOCKED: BRANCH   8  10
DOCKED: ATOM     10  N   UNL     1      22.648 -10.198  -6.717 -0.31 -0.00    +0.000 N 
DOCKED: ATOM     11  H   UNL     1      22.604  -9.215  -6.708 -0.01 -0.00    +0.000 HD
DOCKED: BRANCH  10  12
DOCKED: ATOM     12  C   UNL     1      23.615 -10.825  -7.579 -0.35 -0.00    +0.000 A 
DOCKED: ATOM     13  C   UNL     1      24.883 -10.259  -7.810 -0.30 -0.00    +0.000 A 
DOCKED: ATOM     14  C   UNL     1      25.802 -10.903  -8.647 -0.35 -0.00    +0.000 A 
DOCKED: ATOM     15  C   UNL     1      25.464 -12.109  -9.264 -0.34 -0.00    +0.000 A 
DOCKED: ATOM     16  C   UNL     1      24.205 -12.673  -9.048 -0.37 -0.00    +0.000 A 
DOCKED: ATOM     17  C   UNL     1      23.284 -12.035  -8.212 -0.41 -0.00    +0.000 A 
DOCKED: ENDBRANCH  10  12
DOCKED: ENDBRANCH   8  10
DOCKED: ENDBRANCH   1   8
DOCKED: BRANCH   3  18
DOCKED: ATOM     18  C   UNL     1      20.306 -10.869  -0.562 -0.58 -0.00    +0.000 C 
DOCKED: ATOM     19  C   UNL     1      20.863 -10.618   0.633 -0.68 -0.00    +0.000 C 
DOCKED: BRANCH  19  20
DOCKED: ATOM     20  C   UNL     1      20.459 -11.301   1.879 -0.75 -0.00    +0.000 C 
DOCKED: ATOM     21  N   UNL     1      20.221 -10.591   3.100 -0.69 -0.00    +0.000 N 
DOCKED: ATOM     22  O   UNL     1      19.955 -11.271   4.239 -1.00 -0.00    +0.000 OA
DOCKED: ATOM     23  O   UNL     1      20.294 -12.550   1.852 -1.66 -0.00    +0.000 OA
DOCKED: ATOM     24  H   UNL     1      20.251  -9.606   3.111 -0.57 -0.00    +0.000 HD
DOCKED: ENDBRANCH  19  20
DOCKED: ENDBRANCH   3  18
DOCKED: TORSDOF 5
DOCKED: TER
DOCKED: ENDMDL
________________________________________________________________________________


	BEGINNING GENETIC ALGORITHM DOCKING 48 of 100
Run: 48 Seed: 1192349796 549586454 [ Run 48 of 100 GA/GALS ]
Beginning LAMARCKIAN GENETIC ALGORITHM (LGA), with a maximum of 2500000 energy evaluations.

Final-Value: -13.553


	FINAL GENETIC ALGORITHM DOCKED STATE
	_______________________________________________


Detailed state:  trans 17.557 -9.817 3.422 quatxyzw 0.074871 -0.920764 -0.289271 -0.250819 center 0.217 0.012 -0.211 ntor 5 -179.2730 -155.3740 -180.0000 -27.1620 -59.9664
State:	 17.557  -9.817   3.422   0.077 -0.951 -0.299 -150.948   -179.27 -155.37 -180.00  -27.16  -59.97

DOCKED: MODEL       48
DOCKED: USER    Run = 48
DOCKED: USER    DPF = ligand_dock.biased.dpf
DOCKED: USER  
DOCKED: USER    Estimated Free Energy of Binding    =  -11.02 kcal/mol  [=(1)+(2)+(3)-(4)]
DOCKED: USER    Estimated Inhibition Constant, Ki   =    8.35 nM (nanomolar)  [Temperature = 298.15 K]
DOCKED: USER    
DOCKED: USER    (1) Final Intermolecular Energy     =  -12.51 kcal/mol
DOCKED: USER        vdW + Hbond + desolv Energy     =  -12.51 kcal/mol
DOCKED: USER        Electrostatic Energy            =   +0.00 kcal/mol
DOCKED: USER    (2) Final Total Internal Energy     =   -1.04 kcal/mol
DOCKED: USER    (3) Torsional Free Energy           =   +1.49 kcal/mol
DOCKED: USER    (4) Unbound System's Energy  [=(2)] =   -1.04 kcal/mol
DOCKED: USER    
DOCKED: USER    
DOCKED: USER    NEWDPF move ligand.pdbqt
DOCKED: USER    NEWDPF about 0.217000 0.012000 -0.211000
DOCKED: USER    NEWDPF tran0 17.556744 -9.816844 3.422344
DOCKED: USER    NEWDPF quaternion0 0.074871 -0.920764 -0.289271 -0.250819
DOCKED: USER    NEWDPF axisangle0 0.077343 -0.951169 -0.298823 -150.948045
DOCKED: USER    NEWDPF quat0 0.077343 -0.951169 -0.298823 -150.948045
DOCKED: USER    NEWDPF dihe0 -179.27 -155.37 -180.00 -27.16 -59.97 
DOCKED: USER  keepresnum = 1 
DOCKED: USER  
DOCKED: REMARK  Name = 
DOCKED: REMARK  5 active torsions:
DOCKED: REMARK  status: ('A' for Active; 'I' for Inactive)
DOCKED: REMARK    1  A    between atoms: S_2  and  N_3
DOCKED: REMARK    2  A    between atoms: S_2  and  C_10
DOCKED: REMARK    3  A    between atoms: N_3  and  C_4
DOCKED: REMARK    4  A    between atoms: C_12  and  C_13
DOCKED: REMARK    5  A    between atoms: C_14  and  C_15
DOCKED: REMARK                            x       y       z     vdW  Elec       q    Type
DOCKED: REMARK                         _______ _______ _______ _____ _____    ______ ____
DOCKED: USER                              x       y       z     vdW  Elec       q    Type
DOCKED: USER                           _______ _______ _______ _____ _____    ______ ____
DOCKED: ROOT
DOCKED: ATOM      1  C   UNL     1      18.033 -11.429   2.031 -0.41 +0.00    +0.000 A 
DOCKED: ATOM      2  C   UNL     1      17.359 -10.879   3.131 -0.41 +0.00    +0.000 A 
DOCKED: ATOM      3  C   UNL     1      15.953 -10.774   3.130 -0.45 +0.00    +0.000 A 
DOCKED: ATOM      4  C   UNL     1      15.241 -11.214   2.003 -0.40 +0.00    +0.000 A 
DOCKED: ATOM      5  C   UNL     1      15.911 -11.772   0.911 -0.40 +0.00    +0.000 A 
DOCKED: ATOM      6  C   UNL     1      17.303 -11.883   0.926 -0.44 +0.00    +0.000 A 
DOCKED: ENDROOT
DOCKED: BRANCH   1   8
DOCKED: ATOM      7  O   UNL     1      20.251 -12.771   1.319 -1.29 -0.00    +0.000 OA
DOCKED: ATOM      8  S   UNL     1      19.791 -11.533   2.036 -0.92 -0.00    +0.000 S 
DOCKED: ATOM      9  O   UNL     1      20.266 -11.586   3.460 -1.43 -0.00    +0.000 OA
DOCKED: BRANCH   8  10
DOCKED: ATOM     10  N   UNL     1      20.476 -10.140   1.257 -0.55 -0.00    +0.000 N 
DOCKED: ATOM     11  H   UNL     1      20.823  -9.417   1.827 -0.51 -0.00    +0.000 HD
DOCKED: BRANCH  10  12
DOCKED: ATOM     12  C   UNL     1      20.565  -9.981  -0.170 -0.56 -0.00    +0.000 A 
DOCKED: ATOM     13  C   UNL     1      21.351  -8.971  -0.758 -0.47 -0.00    +0.000 A 
DOCKED: ATOM     14  C   UNL     1      21.422  -8.853  -2.150 -0.43 -0.00    +0.000 A 
DOCKED: ATOM     15  C   UNL     1      20.707  -9.732  -2.967 -0.44 -0.00    +0.000 A 
DOCKED: ATOM     16  C   UNL     1      19.918 -10.730  -2.393 -0.40 -0.00    +0.000 A 
DOCKED: ATOM     17  C   UNL     1      19.844 -10.853  -1.003 -0.45 -0.00    +0.000 A 
DOCKED: ENDBRANCH  10  12
DOCKED: ENDBRANCH   8  10
DOCKED: ENDBRANCH   1   8
DOCKED: BRANCH   3  18
DOCKED: ATOM     18  C   UNL     1      15.195 -10.177   4.258 -0.48 +0.00    +0.000 C 
DOCKED: ATOM     19  C   UNL     1      13.962  -9.662   4.138 -0.39 +0.00    +0.000 C 
DOCKED: BRANCH  19  20
DOCKED: ATOM     20  C   UNL     1      13.213  -9.071   5.266 -0.44 +0.00    +0.000 C 
DOCKED: ATOM     21  N   UNL     1      11.792  -8.886   5.231 -0.30 +0.00    +0.000 N 
DOCKED: ATOM     22  O   UNL     1      11.167  -8.245   6.246 -0.29 +0.00    +0.000 OA
DOCKED: ATOM     23  O   UNL     1      13.849  -8.744   6.304 -0.63 +0.00    +0.000 OA
DOCKED: ATOM     24  H   UNL     1      11.271  -9.225   4.467 -0.01 +0.00    +0.000 HD
DOCKED: ENDBRANCH  19  20
DOCKED: ENDBRANCH   3  18
DOCKED: TORSDOF 5
DOCKED: TER
DOCKED: ENDMDL
________________________________________________________________________________


	BEGINNING GENETIC ALGORITHM DOCKING 49 of 100
Run: 49 Seed: 1141729136 1777617965 [ Run 49 of 100 GA/GALS ]
Beginning LAMARCKIAN GENETIC ALGORITHM (LGA), with a maximum of 2500000 energy evaluations.

Final-Value: -13.702


	FINAL GENETIC ALGORITHM DOCKED STATE
	_______________________________________________


Detailed state:  trans 21.459 -11.732 -2.615 quatxyzw -0.457355 -0.306617 -0.834697 0.009649 center 0.217 0.012 -0.211 ntor 5 172.7459 60.3046 -179.7496 177.2349 -126.2958
State:	 21.459 -11.732  -2.615  -0.457 -0.307 -0.835 178.894    172.75   60.30 -179.75  177.23 -126.30

DOCKED: MODEL       49
DOCKED: USER    Run = 49
DOCKED: USER    DPF = ligand_dock.biased.dpf
DOCKED: USER  
DOCKED: USER    Estimated Free Energy of Binding    =  -11.28 kcal/mol  [=(1)+(2)+(3)-(4)]
DOCKED: USER    Estimated Inhibition Constant, Ki   =    5.41 nM (nanomolar)  [Temperature = 298.15 K]
DOCKED: USER    
DOCKED: USER    (1) Final Intermolecular Energy     =  -12.77 kcal/mol
DOCKED: USER        vdW + Hbond + desolv Energy     =  -12.77 kcal/mol
DOCKED: USER        Electrostatic Energy            =   +0.00 kcal/mol
DOCKED: USER    (2) Final Total Internal Energy     =   -0.93 kcal/mol
DOCKED: USER    (3) Torsional Free Energy           =   +1.49 kcal/mol
DOCKED: USER    (4) Unbound System's Energy  [=(2)] =   -0.93 kcal/mol
DOCKED: USER    
DOCKED: USER    
DOCKED: USER    NEWDPF move ligand.pdbqt
DOCKED: USER    NEWDPF about 0.217000 0.012000 -0.211000
DOCKED: USER    NEWDPF tran0 21.459133 -11.731517 -2.615443
DOCKED: USER    NEWDPF quaternion0 -0.457355 -0.306617 -0.834697 0.009649
DOCKED: USER    NEWDPF axisangle0 -0.457376 -0.306632 -0.834736 178.894242
DOCKED: USER    NEWDPF quat0 -0.457376 -0.306632 -0.834736 178.894242
DOCKED: USER    NEWDPF dihe0 172.75 60.30 -179.75 177.23 -126.30 
DOCKED: USER  keepresnum = 1 
DOCKED: USER  
DOCKED: REMARK  Name = 
DOCKED: REMARK  5 active torsions:
DOCKED: REMARK  status: ('A' for Active; 'I' for Inactive)
DOCKED: REMARK    1  A    between atoms: S_2  and  N_3
DOCKED: REMARK    2  A    between atoms: S_2  and  C_10
DOCKED: REMARK    3  A    between atoms: N_3  and  C_4
DOCKED: REMARK    4  A    between atoms: C_12  and  C_13
DOCKED: REMARK    5  A    between atoms: C_14  and  C_15
DOCKED: REMARK                            x       y       z     vdW  Elec       q    Type
DOCKED: REMARK                         _______ _______ _______ _____ _____    ______ ____
DOCKED: USER                              x       y       z     vdW  Elec       q    Type
DOCKED: USER                           _______ _______ _______ _____ _____    ______ ____
DOCKED: ROOT
DOCKED: ATOM      1  C   UNL     1      21.170 -10.202  -4.145 -0.42 -0.00    +0.000 A 
DOCKED: ATOM      2  C   UNL     1      20.812 -10.894  -2.979 -0.38 -0.00    +0.000 A 
DOCKED: ATOM      3  C   UNL     1      20.731 -10.221  -1.742 -0.52 -0.00    +0.000 A 
DOCKED: ATOM      4  C   UNL     1      21.030  -8.850  -1.697 -0.49 -0.00    +0.000 A 
DOCKED: ATOM      5  C   UNL     1      21.377  -8.158  -2.860 -0.39 -0.00    +0.000 A 
DOCKED: ATOM      6  C   UNL     1      21.443  -8.830  -4.082 -0.33 -0.00    +0.000 A 
DOCKED: ENDROOT
DOCKED: BRANCH   1   8
DOCKED: ATOM      7  O   UNL     1      19.925 -11.279  -6.271 -0.41 -0.00    +0.000 OA
DOCKED: ATOM      8  S   UNL     1      21.289 -11.061  -5.678 -0.60 -0.00    +0.000 S 
DOCKED: ATOM      9  O   UNL     1      21.937 -12.394  -5.434 -0.81 -0.00    +0.000 OA
DOCKED: BRANCH   8  10
DOCKED: ATOM     10  N   UNL     1      22.256 -10.153  -6.799 -0.29 -0.00    +0.000 N 
DOCKED: ATOM     11  H   UNL     1      21.992  -9.223  -6.989 +0.00 -0.00    +0.000 HD
DOCKED: BRANCH  10  12
DOCKED: ATOM     12  C   UNL     1      23.417 -10.677  -7.467 -0.33 -0.00    +0.000 A 
DOCKED: ATOM     13  C   UNL     1      23.403 -11.927  -8.115 -0.42 -0.00    +0.000 A 
DOCKED: ATOM     14  C   UNL     1      24.549 -12.400  -8.763 -0.41 -0.00    +0.000 A 
DOCKED: ATOM     15  C   UNL     1      25.718 -11.637  -8.766 -0.37 -0.00    +0.000 A 
DOCKED: ATOM     16  C   UNL     1      25.745 -10.400  -8.119 -0.34 -0.00    +0.000 A 
DOCKED: ATOM     17  C   UNL     1      24.603  -9.923  -7.471 -0.24 -0.00    +0.000 A 
DOCKED: ENDBRANCH  10  12
DOCKED: ENDBRANCH   8  10
DOCKED: ENDBRANCH   1   8
DOCKED: BRANCH   3  18
DOCKED: ATOM     18  C   UNL     1      20.381 -10.913  -0.477 -0.58 -0.00    +0.000 C 
DOCKED: ATOM     19  C   UNL     1      20.705 -10.449   0.740 -0.67 -0.00    +0.000 C 
DOCKED: BRANCH  19  20
DOCKED: ATOM     20  C   UNL     1      20.351 -11.142   1.996 -0.74 -0.00    +0.000 C 
DOCKED: ATOM     21  N   UNL     1      20.505 -10.528   3.281 -0.67 -0.00    +0.000 N 
DOCKED: ATOM     22  O   UNL     1      20.266 -11.241   4.406 -0.98 -0.00    +0.000 OA
DOCKED: ATOM     23  O   UNL     1      19.872 -12.306   1.925 -1.79 -0.00    +0.000 OA
DOCKED: ATOM     24  H   UNL     1      20.787  -9.586   3.346 -0.59 -0.00    +0.000 HD
DOCKED: ENDBRANCH  19  20
DOCKED: ENDBRANCH   3  18
DOCKED: TORSDOF 5
DOCKED: TER
DOCKED: ENDMDL
________________________________________________________________________________


	BEGINNING GENETIC ALGORITHM DOCKING 50 of 100
Run: 50 Seed: 1042085619 1366130455 [ Run 50 of 100 GA/GALS ]
Beginning LAMARCKIAN GENETIC ALGORITHM (LGA), with a maximum of 2500000 energy evaluations.

Final-Value: -13.411


	FINAL GENETIC ALGORITHM DOCKED STATE
	_______________________________________________


Detailed state:  trans 22.315 -11.074 -2.478 quatxyzw 0.437909 0.434535 0.779962 0.105236 center 0.217 0.012 -0.211 ntor 5 53.7620 139.5081 -64.7897 42.5147 146.8766
State:	 22.315 -11.074  -2.478   0.440  0.437  0.784 167.919     53.76  139.51  -64.79   42.51  146.88

DOCKED: MODEL       50
DOCKED: USER    Run = 50
DOCKED: USER    DPF = ligand_dock.biased.dpf
DOCKED: USER  
DOCKED: USER    Estimated Free Energy of Binding    =  -10.57 kcal/mol  [=(1)+(2)+(3)-(4)]
DOCKED: USER    Estimated Inhibition Constant, Ki   =   17.87 nM (nanomolar)  [Temperature = 298.15 K]
DOCKED: USER    
DOCKED: USER    (1) Final Intermolecular Energy     =  -12.06 kcal/mol
DOCKED: USER        vdW + Hbond + desolv Energy     =  -12.06 kcal/mol
DOCKED: USER        Electrostatic Energy            =   +0.00 kcal/mol
DOCKED: USER    (2) Final Total Internal Energy     =   -1.35 kcal/mol
DOCKED: USER    (3) Torsional Free Energy           =   +1.49 kcal/mol
DOCKED: USER    (4) Unbound System's Energy  [=(2)] =   -1.35 kcal/mol
DOCKED: USER    
DOCKED: USER    
DOCKED: USER    NEWDPF move ligand.pdbqt
DOCKED: USER    NEWDPF about 0.217000 0.012000 -0.211000
DOCKED: USER    NEWDPF tran0 22.315170 -11.074450 -2.477522
DOCKED: USER    NEWDPF quaternion0 0.437909 0.434535 0.779962 0.105236
DOCKED: USER    NEWDPF axisangle0 0.440354 0.436961 0.784317 167.918509
DOCKED: USER    NEWDPF quat0 0.440354 0.436961 0.784317 167.918509
DOCKED: USER    NEWDPF dihe0 53.76 139.51 -64.79 42.51 146.88 
DOCKED: USER  keepresnum = 1 
DOCKED: USER  
DOCKED: REMARK  Name = 
DOCKED: REMARK  5 active torsions:
DOCKED: REMARK  status: ('A' for Active; 'I' for Inactive)
DOCKED: REMARK    1  A    between atoms: S_2  and  N_3
DOCKED: REMARK    2  A    between atoms: S_2  and  C_10
DOCKED: REMARK    3  A    between atoms: N_3  and  C_4
DOCKED: REMARK    4  A    between atoms: C_12  and  C_13
DOCKED: REMARK    5  A    between atoms: C_14  and  C_15
DOCKED: REMARK                            x       y       z     vdW  Elec       q    Type
DOCKED: REMARK                         _______ _______ _______ _____ _____    ______ ____
DOCKED: USER                              x       y       z     vdW  Elec       q    Type
DOCKED: USER                           _______ _______ _______ _____ _____    ______ ____
DOCKED: ROOT
DOCKED: ATOM      1  C   UNL     1      21.450  -9.964  -4.145 -0.40 -0.00    +0.000 A 
DOCKED: ATOM      2  C   UNL     1      21.411 -10.544  -2.869 -0.46 -0.00    +0.000 A 
DOCKED: ATOM      3  C   UNL     1      21.200  -9.746  -1.725 -0.54 -0.00    +0.000 A 
DOCKED: ATOM      4  C   UNL     1      21.046  -8.360  -1.886 -0.44 -0.00    +0.000 A 
DOCKED: ATOM      5  C   UNL     1      21.075  -7.783  -3.158 -0.37 -0.00    +0.000 A 
DOCKED: ATOM      6  C   UNL     1      21.272  -8.582  -4.285 -0.31 -0.00    +0.000 A 
DOCKED: ENDROOT
DOCKED: BRANCH   1   8
DOCKED: ATOM      7  O   UNL     1      22.093 -12.373  -5.153 -0.70 -0.00    +0.000 OA
DOCKED: ATOM      8  S   UNL     1      21.737 -10.971  -5.562 -0.62 -0.00    +0.000 S 
DOCKED: ATOM      9  O   UNL     1      22.875 -10.384  -6.346 -0.37 -0.00    +0.000 OA
DOCKED: BRANCH   8  10
DOCKED: ATOM     10  N   UNL     1      20.317 -11.015  -6.561 -0.29 -0.00    +0.000 N 
DOCKED: ATOM     11  H   UNL     1      20.394 -11.419  -7.455 -0.21 -0.00    +0.000 HD
DOCKED: BRANCH  10  12
DOCKED: ATOM     12  C   UNL     1      19.036 -10.497  -6.160 -0.29 -0.00    +0.000 A 
DOCKED: ATOM     13  C   UNL     1      18.321  -9.581  -6.957 -0.15 -0.00    +0.000 A 
DOCKED: ATOM     14  C   UNL     1      17.073  -9.107  -6.539 -0.10 -0.00    +0.000 A 
DOCKED: ATOM     15  C   UNL     1      16.531  -9.533  -5.326 -0.15 -0.00    +0.000 A 
DOCKED: ATOM     16  C   UNL     1      17.236 -10.433  -4.524 -0.20 -0.00    +0.000 A 
DOCKED: ATOM     17  C   UNL     1      18.483 -10.911  -4.937 -0.30 -0.00    +0.000 A 
DOCKED: ENDBRANCH  10  12
DOCKED: ENDBRANCH   8  10
DOCKED: ENDBRANCH   1   8
DOCKED: BRANCH   3  18
DOCKED: ATOM     18  C   UNL     1      21.176 -10.308  -0.352 -0.70 -0.00    +0.000 C 
DOCKED: ATOM     19  C   UNL     1      20.071 -10.797   0.233 -0.64 -0.00    +0.000 C 
DOCKED: BRANCH  19  20
DOCKED: ATOM     20  C   UNL     1      20.055 -11.357   1.601 -0.74 -0.00    +0.000 C 
DOCKED: ATOM     21  N   UNL     1      20.181 -10.535   2.767 -0.66 -0.00    +0.000 N 
DOCKED: ATOM     22  O   UNL     1      20.266 -11.105   3.992 -1.17 -0.00    +0.000 OA
DOCKED: ATOM     23  O   UNL     1      19.900 -12.600   1.738 -1.69 -0.00    +0.000 OA
DOCKED: ATOM     24  H   UNL     1      20.207  -9.555   2.678 -0.53 -0.00    +0.000 HD
DOCKED: ENDBRANCH  19  20
DOCKED: ENDBRANCH   3  18
DOCKED: TORSDOF 5
DOCKED: TER
DOCKED: ENDMDL
________________________________________________________________________________


	BEGINNING GENETIC ALGORITHM DOCKING 51 of 100
Run: 51 Seed: 1522068416 1841242050 [ Run 51 of 100 GA/GALS ]
Beginning LAMARCKIAN GENETIC ALGORITHM (LGA), with a maximum of 2500000 energy evaluations.

Final-Value: -13.885


	FINAL GENETIC ALGORITHM DOCKED STATE
	_______________________________________________


Detailed state:  trans 21.475 -11.411 -2.152 quatxyzw -0.545544 -0.390177 -0.738668 0.067184 center 0.217 0.012 -0.211 ntor 5 -9.8775 45.9099 10.9931 -34.6067 -65.4368
State:	 21.475 -11.411  -2.152  -0.547 -0.391 -0.740 172.295     -9.88   45.91   10.99  -34.61  -65.44

DOCKED: MODEL       51
DOCKED: USER    Run = 51
DOCKED: USER    DPF = ligand_dock.biased.dpf
DOCKED: USER  
DOCKED: USER    Estimated Free Energy of Binding    =  -11.32 kcal/mol  [=(1)+(2)+(3)-(4)]
DOCKED: USER    Estimated Inhibition Constant, Ki   =    5.07 nM (nanomolar)  [Temperature = 298.15 K]
DOCKED: USER    
DOCKED: USER    (1) Final Intermolecular Energy     =  -12.81 kcal/mol
DOCKED: USER        vdW + Hbond + desolv Energy     =  -12.81 kcal/mol
DOCKED: USER        Electrostatic Energy            =   +0.00 kcal/mol
DOCKED: USER    (2) Final Total Internal Energy     =   -1.08 kcal/mol
DOCKED: USER    (3) Torsional Free Energy           =   +1.49 kcal/mol
DOCKED: USER    (4) Unbound System's Energy  [=(2)] =   -1.08 kcal/mol
DOCKED: USER    
DOCKED: USER    
DOCKED: USER    NEWDPF move ligand.pdbqt
DOCKED: USER    NEWDPF about 0.217000 0.012000 -0.211000
DOCKED: USER    NEWDPF tran0 21.474530 -11.411223 -2.151906
DOCKED: USER    NEWDPF quaternion0 -0.545544 -0.390177 -0.738668 0.067184
DOCKED: USER    NEWDPF axisangle0 -0.546779 -0.391061 -0.740340 172.295429
DOCKED: USER    NEWDPF quat0 -0.546779 -0.391061 -0.740340 172.295429
DOCKED: USER    NEWDPF dihe0 -9.88 45.91 10.99 -34.61 -65.44 
DOCKED: USER  keepresnum = 1 
DOCKED: USER  
DOCKED: REMARK  Name = 
DOCKED: REMARK  5 active torsions:
DOCKED: REMARK  status: ('A' for Active; 'I' for Inactive)
DOCKED: REMARK    1  A    between atoms: S_2  and  N_3
DOCKED: REMARK    2  A    between atoms: S_2  and  C_10
DOCKED: REMARK    3  A    between atoms: N_3  and  C_4
DOCKED: REMARK    4  A    between atoms: C_12  and  C_13
DOCKED: REMARK    5  A    between atoms: C_14  and  C_15
DOCKED: REMARK                            x       y       z     vdW  Elec       q    Type
DOCKED: REMARK                         _______ _______ _______ _____ _____    ______ ____
DOCKED: USER                              x       y       z     vdW  Elec       q    Type
DOCKED: USER                           _______ _______ _______ _____ _____    ______ ____
DOCKED: ROOT
DOCKED: ATOM      1  C   UNL     1      20.950 -10.270  -3.936 -0.43 -0.00    +0.000 A 
DOCKED: ATOM      2  C   UNL     1      20.808 -10.625  -2.587 -0.44 -0.00    +0.000 A 
DOCKED: ATOM      3  C   UNL     1      21.019  -9.671  -1.569 -0.55 -0.00    +0.000 A 
DOCKED: ATOM      4  C   UNL     1      21.389  -8.366  -1.930 -0.45 -0.00    +0.000 A 
DOCKED: ATOM      5  C   UNL     1      21.520  -8.009  -3.275 -0.33 -0.00    +0.000 A 
DOCKED: ATOM      6  C   UNL     1      21.297  -8.956  -4.275 -0.33 -0.00    +0.000 A 
DOCKED: ENDROOT
DOCKED: BRANCH   1   8
DOCKED: ATOM      7  O   UNL     1      19.967 -10.882  -6.362 -0.37 -0.00    +0.000 OA
DOCKED: ATOM      8  S   UNL     1      20.705 -11.477  -5.195 -0.63 -0.00    +0.000 S 
DOCKED: ATOM      9  O   UNL     1      19.895 -12.607  -4.628 -0.68 -0.00    +0.000 OA
DOCKED: BRANCH   8  10
DOCKED: ATOM     10  N   UNL     1      22.234 -12.088  -5.744 -0.58 -0.00    +0.000 N 
DOCKED: ATOM     11  H   UNL     1      22.588 -12.900  -5.315 -0.13 -0.00    +0.000 HD
DOCKED: BRANCH  10  12
DOCKED: ATOM     12  C   UNL     1      23.016 -11.478  -6.788 -0.40 -0.00    +0.000 A 
DOCKED: ATOM     13  C   UNL     1      23.041 -10.083  -6.981 -0.27 -0.00    +0.000 A 
DOCKED: ATOM     14  C   UNL     1      23.820  -9.526  -7.999 -0.20 -0.00    +0.000 A 
DOCKED: ATOM     15  C   UNL     1      24.574 -10.350  -8.837 -0.22 -0.00    +0.000 A 
DOCKED: ATOM     16  C   UNL     1      24.549 -11.735  -8.660 -0.38 -0.00    +0.000 A 
DOCKED: ATOM     17  C   UNL     1      23.772 -12.297  -7.643 -0.42 -0.00    +0.000 A 
DOCKED: ENDBRANCH  10  12
DOCKED: ENDBRANCH   8  10
DOCKED: ENDBRANCH   1   8
DOCKED: BRANCH   3  18
DOCKED: ATOM     18  C   UNL     1      20.907 -10.003  -0.127 -0.68 -0.00    +0.000 C 
DOCKED: ATOM     19  C   UNL     1      20.381 -11.148   0.336 -0.66 -0.00    +0.000 C 
DOCKED: BRANCH  19  20
DOCKED: ATOM     20  C   UNL     1      20.275 -11.473   1.773 -0.77 -0.00    +0.000 C 
DOCKED: ATOM     21  N   UNL     1      20.571 -10.517   2.799 -0.62 -0.00    +0.000 N 
DOCKED: ATOM     22  O   UNL     1      20.560 -10.893   4.099 -1.05 -0.00    +0.000 OA
DOCKED: ATOM     23  O   UNL     1      19.884 -12.625   2.101 -1.67 -0.00    +0.000 OA
DOCKED: ATOM     24  H   UNL     1      20.784  -9.586   2.558 -0.54 -0.00    +0.000 HD
DOCKED: ENDBRANCH  19  20
DOCKED: ENDBRANCH   3  18
DOCKED: TORSDOF 5
DOCKED: TER
DOCKED: ENDMDL
________________________________________________________________________________


	BEGINNING GENETIC ALGORITHM DOCKING 52 of 100
Run: 52 Seed: 826837764 327135361 [ Run 52 of 100 GA/GALS ]
Beginning LAMARCKIAN GENETIC ALGORITHM (LGA), with a maximum of 2500000 energy evaluations.

Final-Value: -12.379


	FINAL GENETIC ALGORITHM DOCKED STATE
	_______________________________________________


Detailed state:  trans 16.114 -8.838 1.739 quatxyzw -0.173781 -0.769411 0.001632 -0.614658 center 0.217 0.012 -0.211 ntor 5 -16.5886 13.9297 -159.9359 -91.6688 59.4403
State:	 16.114  -8.838   1.739  -0.220 -0.975  0.002 -104.146    -16.59   13.93 -159.94  -91.67   59.44

DOCKED: MODEL       52
DOCKED: USER    Run = 52
DOCKED: USER    DPF = ligand_dock.biased.dpf
DOCKED: USER  
DOCKED: USER    Estimated Free Energy of Binding    =  -10.04 kcal/mol  [=(1)+(2)+(3)-(4)]
DOCKED: USER    Estimated Inhibition Constant, Ki   =   43.81 nM (nanomolar)  [Temperature = 298.15 K]
DOCKED: USER    
DOCKED: USER    (1) Final Intermolecular Energy     =  -11.53 kcal/mol
DOCKED: USER        vdW + Hbond + desolv Energy     =  -11.53 kcal/mol
DOCKED: USER        Electrostatic Energy            =   +0.00 kcal/mol
DOCKED: USER    (2) Final Total Internal Energy     =   -0.85 kcal/mol
DOCKED: USER    (3) Torsional Free Energy           =   +1.49 kcal/mol
DOCKED: USER    (4) Unbound System's Energy  [=(2)] =   -0.85 kcal/mol
DOCKED: USER    
DOCKED: USER    
DOCKED: USER    NEWDPF move ligand.pdbqt
DOCKED: USER    NEWDPF about 0.217000 0.012000 -0.211000
DOCKED: USER    NEWDPF tran0 16.114109 -8.838248 1.739175
DOCKED: USER    NEWDPF quaternion0 -0.173781 -0.769411 0.001632 -0.614658
DOCKED: USER    NEWDPF axisangle0 -0.220312 -0.975427 0.002069 -104.145859
DOCKED: USER    NEWDPF quat0 -0.220312 -0.975427 0.002069 -104.145859
DOCKED: USER    NEWDPF dihe0 -16.59 13.93 -159.94 -91.67 59.44 
DOCKED: USER  keepresnum = 1 
DOCKED: USER  
DOCKED: REMARK  Name = 
DOCKED: REMARK  5 active torsions:
DOCKED: REMARK  status: ('A' for Active; 'I' for Inactive)
DOCKED: REMARK    1  A    between atoms: S_2  and  N_3
DOCKED: REMARK    2  A    between atoms: S_2  and  C_10
DOCKED: REMARK    3  A    between atoms: N_3  and  C_4
DOCKED: REMARK    4  A    between atoms: C_12  and  C_13
DOCKED: REMARK    5  A    between atoms: C_14  and  C_15
DOCKED: REMARK                            x       y       z     vdW  Elec       q    Type
DOCKED: REMARK                         _______ _______ _______ _____ _____    ______ ____
DOCKED: USER                              x       y       z     vdW  Elec       q    Type
DOCKED: USER                           _______ _______ _______ _____ _____    ______ ____
DOCKED: ROOT
DOCKED: ATOM      1  C   UNL     1      15.704 -10.981   1.702 -0.36 +0.00    +0.000 A 
DOCKED: ATOM      2  C   UNL     1      15.982  -9.768   2.348 -0.34 +0.00    +0.000 A 
DOCKED: ATOM      3  C   UNL     1      15.062  -9.216   3.264 -0.33 +0.00    +0.000 A 
DOCKED: ATOM      4  C   UNL     1      13.857  -9.895   3.505 -0.30 +0.00    +0.000 A 
DOCKED: ATOM      5  C   UNL     1      13.585 -11.110   2.870 -0.19 +0.00    +0.000 A 
DOCKED: ATOM      6  C   UNL     1      14.506 -11.654   1.974 -0.43 +0.00    +0.000 A 
DOCKED: ENDROOT
DOCKED: BRANCH   1   8
DOCKED: ATOM      7  O   UNL     1      16.483 -11.246  -0.858 -0.35 -0.00    +0.000 OA
DOCKED: ATOM      8  S   UNL     1      16.852 -11.646   0.543 -0.58 +0.00    +0.000 S 
DOCKED: ATOM      9  O   UNL     1      16.828 -13.144   0.648 -1.21 +0.00    +0.000 OA
DOCKED: BRANCH   8  10
DOCKED: ATOM     10  N   UNL     1      18.454 -11.074   0.892 -0.45 -0.00    +0.000 N 
DOCKED: ATOM     11  H   UNL     1      18.705 -10.953   1.836 -0.00 -0.00    +0.000 HD
DOCKED: BRANCH  10  12
DOCKED: ATOM     12  C   UNL     1      19.434 -10.766  -0.115 -0.47 -0.00    +0.000 A 
DOCKED: ATOM     13  C   UNL     1      19.148 -10.872  -1.490 -0.40 -0.00    +0.000 A 
DOCKED: ATOM     14  C   UNL     1      20.123 -10.555  -2.441 -0.43 -0.00    +0.000 A 
DOCKED: ATOM     15  C   UNL     1      21.391 -10.136  -2.033 -0.52 -0.00    +0.000 A 
DOCKED: ATOM     16  C   UNL     1      21.688 -10.036  -0.672 -0.52 -0.00    +0.000 A 
DOCKED: ATOM     17  C   UNL     1      20.717 -10.352   0.282 -0.61 -0.00    +0.000 A 
DOCKED: ENDBRANCH  10  12
DOCKED: ENDBRANCH   8  10
DOCKED: ENDBRANCH   1   8
DOCKED: BRANCH   3  18
DOCKED: ATOM     18  C   UNL     1      15.298  -7.924   3.954 -0.40 +0.00    +0.000 C 
DOCKED: ATOM     19  C   UNL     1      14.416  -7.353   4.788 -0.42 +0.00    +0.000 C 
DOCKED: BRANCH  19  20
DOCKED: ATOM     20  C   UNL     1      14.659  -6.067   5.474 -0.47 +0.00    +0.000 C 
DOCKED: ATOM     21  N   UNL     1      15.858  -5.307   5.276 -0.42 +0.00    +0.000 N 
DOCKED: ATOM     22  O   UNL     1      16.080  -4.189   6.006 -0.63 +0.00    +0.000 OA
DOCKED: ATOM     23  O   UNL     1      13.765  -5.615   6.238 -1.10 +0.00    +0.000 OA
DOCKED: ATOM     24  H   UNL     1      16.521  -5.599   4.610 -0.59 -0.00    +0.000 HD
DOCKED: ENDBRANCH  19  20
DOCKED: ENDBRANCH   3  18
DOCKED: TORSDOF 5
DOCKED: TER
DOCKED: ENDMDL
________________________________________________________________________________


	BEGINNING GENETIC ALGORITHM DOCKING 53 of 100
Run: 53 Seed: 1847133163 136910302 [ Run 53 of 100 GA/GALS ]
Beginning LAMARCKIAN GENETIC ALGORITHM (LGA), with a maximum of 2500000 energy evaluations.

Final-Value: -13.723


	FINAL GENETIC ALGORITHM DOCKED STATE
	_______________________________________________


Detailed state:  trans 21.966 -11.314 -2.205 quatxyzw 0.486048 0.424201 0.763802 -0.020417 center 0.217 0.012 -0.211 ntor 5 5.7357 90.2702 -8.1526 162.8475 -144.0643
State:	 21.966 -11.314  -2.205   0.486  0.424  0.764 -177.660      5.74   90.27   -8.15  162.85 -144.06

DOCKED: MODEL       53
DOCKED: USER    Run = 53
DOCKED: USER    DPF = ligand_dock.biased.dpf
DOCKED: USER  
DOCKED: USER    Estimated Free Energy of Binding    =  -11.21 kcal/mol  [=(1)+(2)+(3)-(4)]
DOCKED: USER    Estimated Inhibition Constant, Ki   =    6.07 nM (nanomolar)  [Temperature = 298.15 K]
DOCKED: USER    
DOCKED: USER    (1) Final Intermolecular Energy     =  -12.70 kcal/mol
DOCKED: USER        vdW + Hbond + desolv Energy     =  -12.70 kcal/mol
DOCKED: USER        Electrostatic Energy            =   +0.00 kcal/mol
DOCKED: USER    (2) Final Total Internal Energy     =   -1.02 kcal/mol
DOCKED: USER    (3) Torsional Free Energy           =   +1.49 kcal/mol
DOCKED: USER    (4) Unbound System's Energy  [=(2)] =   -1.02 kcal/mol
DOCKED: USER    
DOCKED: USER    
DOCKED: USER    NEWDPF move ligand.pdbqt
DOCKED: USER    NEWDPF about 0.217000 0.012000 -0.211000
DOCKED: USER    NEWDPF tran0 21.966163 -11.313527 -2.205492
DOCKED: USER    NEWDPF quaternion0 0.486048 0.424201 0.763802 -0.020417
DOCKED: USER    NEWDPF axisangle0 0.486150 0.424289 0.763961 -177.660178
DOCKED: USER    NEWDPF quat0 0.486150 0.424289 0.763961 -177.660178
DOCKED: USER    NEWDPF dihe0 5.74 90.27 -8.15 162.85 -144.06 
DOCKED: USER  keepresnum = 1 
DOCKED: USER  
DOCKED: REMARK  Name = 
DOCKED: REMARK  5 active torsions:
DOCKED: REMARK  status: ('A' for Active; 'I' for Inactive)
DOCKED: REMARK    1  A    between atoms: S_2  and  N_3
DOCKED: REMARK    2  A    between atoms: S_2  and  C_10
DOCKED: REMARK    3  A    between atoms: N_3  and  C_4
DOCKED: REMARK    4  A    between atoms: C_12  and  C_13
DOCKED: REMARK    5  A    between atoms: C_14  and  C_15
DOCKED: REMARK                            x       y       z     vdW  Elec       q    Type
DOCKED: REMARK                         _______ _______ _______ _____ _____    ______ ____
DOCKED: USER                              x       y       z     vdW  Elec       q    Type
DOCKED: USER                           _______ _______ _______ _____ _____    ______ ____
DOCKED: ROOT
DOCKED: ATOM      1  C   UNL     1      21.401 -10.235  -4.016 -0.44 -0.00    +0.000 A 
DOCKED: ATOM      2  C   UNL     1      21.219 -10.632  -2.684 -0.43 -0.00    +0.000 A 
DOCKED: ATOM      3  C   UNL     1      21.204  -9.676  -1.647 -0.54 -0.00    +0.000 A 
DOCKED: ATOM      4  C   UNL     1      21.391  -8.323  -1.970 -0.45 -0.00    +0.000 A 
DOCKED: ATOM      5  C   UNL     1      21.563  -7.926  -3.299 -0.31 -0.00    +0.000 A 
DOCKED: ATOM      6  C   UNL     1      21.564  -8.877  -4.320 -0.30 -0.00    +0.000 A 
DOCKED: ENDROOT
DOCKED: BRANCH   1   8
DOCKED: ATOM      7  O   UNL     1      20.136 -12.186  -5.365 -0.63 -0.00    +0.000 OA
DOCKED: ATOM      8  S   UNL     1      21.440 -11.442  -5.299 -0.67 -0.00    +0.000 S 
DOCKED: ATOM      9  O   UNL     1      22.546 -12.416  -5.009 -0.63 -0.00    +0.000 OA
DOCKED: BRANCH   8  10
DOCKED: ATOM     10  N   UNL     1      21.736 -10.679  -6.830 -0.32 -0.00    +0.000 N 
DOCKED: ATOM     11  H   UNL     1      21.024 -10.116  -7.210 -0.00 -0.00    +0.000 HD
DOCKED: BRANCH  10  12
DOCKED: ATOM     12  C   UNL     1      22.958 -10.821  -7.576 -0.33 -0.00    +0.000 A 
DOCKED: ATOM     13  C   UNL     1      23.236 -11.972  -8.338 -0.39 -0.00    +0.000 A 
DOCKED: ATOM     14  C   UNL     1      24.431 -12.070  -9.058 -0.37 -0.00    +0.000 A 
DOCKED: ATOM     15  C   UNL     1      25.360 -11.029  -9.021 -0.31 -0.00    +0.000 A 
DOCKED: ATOM     16  C   UNL     1      25.098  -9.887  -8.261 -0.26 -0.00    +0.000 A 
DOCKED: ATOM     17  C   UNL     1      23.906  -9.784  -7.540 -0.25 -0.00    +0.000 A 
DOCKED: ENDBRANCH  10  12
DOCKED: ENDBRANCH   8  10
DOCKED: ENDBRANCH   1   8
DOCKED: BRANCH   3  18
DOCKED: ATOM     18  C   UNL     1      21.039 -10.048  -0.219 -0.69 -0.00    +0.000 C 
DOCKED: ATOM     19  C   UNL     1      20.331 -11.109   0.198 -0.64 -0.00    +0.000 C 
DOCKED: BRANCH  19  20
DOCKED: ATOM     20  C   UNL     1      20.174 -11.473   1.621 -0.76 -0.00    +0.000 C 
DOCKED: ATOM     21  N   UNL     1      20.317 -10.517   2.678 -0.65 -0.00    +0.000 N 
DOCKED: ATOM     22  O   UNL     1      20.268 -10.921   3.969 -1.15 -0.00    +0.000 OA
DOCKED: ATOM     23  O   UNL     1      19.879 -12.665   1.906 -1.65 -0.00    +0.000 OA
DOCKED: ATOM     24  H   UNL     1      20.452  -9.565   2.465 -0.52 -0.00    +0.000 HD
DOCKED: ENDBRANCH  19  20
DOCKED: ENDBRANCH   3  18
DOCKED: TORSDOF 5
DOCKED: TER
DOCKED: ENDMDL
________________________________________________________________________________


	BEGINNING GENETIC ALGORITHM DOCKING 54 of 100
Run: 54 Seed: 2016340943 1799793933 [ Run 54 of 100 GA/GALS ]
Beginning LAMARCKIAN GENETIC ALGORITHM (LGA), with a maximum of 2500000 energy evaluations.

Final-Value: -12.578


	FINAL GENETIC ALGORITHM DOCKED STATE
	_______________________________________________


Detailed state:  trans 18.800 -10.750 -1.721 quatxyzw 0.673835 -0.296478 -0.352875 0.577518 center 0.217 0.012 -0.211 ntor 5 -172.4583 25.8692 40.4788 -13.2319 28.4660
State:	 18.800 -10.750  -1.721   0.825 -0.363 -0.432 109.448   -172.46   25.87   40.48  -13.23   28.47

DOCKED: MODEL       54
DOCKED: USER    Run = 54
DOCKED: USER    DPF = ligand_dock.biased.dpf
DOCKED: USER  
DOCKED: USER    Estimated Free Energy of Binding    =   -9.73 kcal/mol  [=(1)+(2)+(3)-(4)]
DOCKED: USER    Estimated Inhibition Constant, Ki   =   73.56 nM (nanomolar)  [Temperature = 298.15 K]
DOCKED: USER    
DOCKED: USER    (1) Final Intermolecular Energy     =  -11.22 kcal/mol
DOCKED: USER        vdW + Hbond + desolv Energy     =  -11.22 kcal/mol
DOCKED: USER        Electrostatic Energy            =   +0.00 kcal/mol
DOCKED: USER    (2) Final Total Internal Energy     =   -1.35 kcal/mol
DOCKED: USER    (3) Torsional Free Energy           =   +1.49 kcal/mol
DOCKED: USER    (4) Unbound System's Energy  [=(2)] =   -1.35 kcal/mol
DOCKED: USER    
DOCKED: USER    
DOCKED: USER    NEWDPF move ligand.pdbqt
DOCKED: USER    NEWDPF about 0.217000 0.012000 -0.211000
DOCKED: USER    NEWDPF tran0 18.799588 -10.749796 -1.721158
DOCKED: USER    NEWDPF quaternion0 0.673835 -0.296478 -0.352875 0.577518
DOCKED: USER    NEWDPF axisangle0 0.825396 -0.363162 -0.432244 109.447715
DOCKED: USER    NEWDPF quat0 0.825396 -0.363162 -0.432244 109.447715
DOCKED: USER    NEWDPF dihe0 -172.46 25.87 40.48 -13.23 28.47 
DOCKED: USER  keepresnum = 1 
DOCKED: USER  
DOCKED: REMARK  Name = 
DOCKED: REMARK  5 active torsions:
DOCKED: REMARK  status: ('A' for Active; 'I' for Inactive)
DOCKED: REMARK    1  A    between atoms: S_2  and  N_3
DOCKED: REMARK    2  A    between atoms: S_2  and  C_10
DOCKED: REMARK    3  A    between atoms: N_3  and  C_4
DOCKED: REMARK    4  A    between atoms: C_12  and  C_13
DOCKED: REMARK    5  A    between atoms: C_14  and  C_15
DOCKED: REMARK                            x       y       z     vdW  Elec       q    Type
DOCKED: REMARK                         _______ _______ _______ _____ _____    ______ ____
DOCKED: USER                              x       y       z     vdW  Elec       q    Type
DOCKED: USER                           _______ _______ _______ _____ _____    ______ ____
DOCKED: ROOT
DOCKED: ATOM      1  C   UNL     1      20.204 -10.476  -0.074 -0.55 -0.00    +0.000 A 
DOCKED: ATOM      2  C   UNL     1      19.869 -10.801  -1.396 -0.42 -0.00    +0.000 A 
DOCKED: ATOM      3  C   UNL     1      20.387 -10.050  -2.472 -0.45 -0.00    +0.000 A 
DOCKED: ATOM      4  C   UNL     1      21.231  -8.963  -2.194 -0.46 -0.00    +0.000 A 
DOCKED: ATOM      5  C   UNL     1      21.574  -8.645  -0.877 -0.18 -0.00    +0.000 A 
DOCKED: ATOM      6  C   UNL     1      21.066  -9.402   0.180 -0.42 -0.00    +0.000 A 
DOCKED: ENDROOT
DOCKED: BRANCH   1   8
DOCKED: ATOM      7  O   UNL     1      18.854 -10.505   2.251 -0.65 -0.00    +0.000 OA
DOCKED: ATOM      8  S   UNL     1      19.532 -11.409   1.260 -0.83 -0.00    +0.000 S 
DOCKED: ATOM      9  O   UNL     1      20.649 -12.140   1.948 -1.79 -0.00    +0.000 OA
DOCKED: BRANCH   8  10
DOCKED: ATOM     10  N   UNL     1      18.378 -12.561   0.663 -0.48 -0.00    +0.000 N 
DOCKED: ATOM     11  H   UNL     1      18.590 -13.518   0.754 -0.31 -0.00    +0.000 HD
DOCKED: BRANCH  10  12
DOCKED: ATOM     12  C   UNL     1      17.130 -12.201   0.044 -0.45 +0.00    +0.000 A 
DOCKED: ATOM     13  C   UNL     1      16.865 -10.886  -0.388 -0.31 -0.00    +0.000 A 
DOCKED: ATOM     14  C   UNL     1      15.644 -10.576  -0.996 -0.27 -0.00    +0.000 A 
DOCKED: ATOM     15  C   UNL     1      14.676 -11.566  -1.173 -0.35 +0.00    +0.000 A 
DOCKED: ATOM     16  C   UNL     1      14.925 -12.870  -0.740 -0.44 +0.00    +0.000 A 
DOCKED: ATOM     17  C   UNL     1      16.144 -13.186  -0.133 -0.48 +0.00    +0.000 A 
DOCKED: ENDBRANCH  10  12
DOCKED: ENDBRANCH   8  10
DOCKED: ENDBRANCH   1   8
DOCKED: BRANCH   3  18
DOCKED: ATOM     18  C   UNL     1      20.043 -10.337  -3.887 -0.43 -0.00    +0.000 C 
DOCKED: ATOM     19  C   UNL     1      18.985 -11.073  -4.262 -0.34 -0.00    +0.000 C 
DOCKED: BRANCH  19  20
DOCKED: ATOM     20  C   UNL     1      18.648 -11.352  -5.673 -0.38 -0.00    +0.000 C 
DOCKED: ATOM     21  N   UNL     1      17.312 -11.649  -6.098 -0.34 -0.00    +0.000 N 
DOCKED: ATOM     22  O   UNL     1      17.071 -12.001  -7.382 -0.46 -0.00    +0.000 OA
DOCKED: ATOM     23  O   UNL     1      19.568 -11.301  -6.532 -0.40 -0.00    +0.000 OA
DOCKED: ATOM     24  H   UNL     1      16.568 -11.598  -5.454 -0.03 -0.00    +0.000 HD
DOCKED: ENDBRANCH  19  20
DOCKED: ENDBRANCH   3  18
DOCKED: TORSDOF 5
DOCKED: TER
DOCKED: ENDMDL
________________________________________________________________________________


	BEGINNING GENETIC ALGORITHM DOCKING 55 of 100
Run: 55 Seed: 1565091962 266493608 [ Run 55 of 100 GA/GALS ]
Beginning LAMARCKIAN GENETIC ALGORITHM (LGA), with a maximum of 2500000 energy evaluations.

Final-Value: -13.634


	FINAL GENETIC ALGORITHM DOCKED STATE
	_______________________________________________


Detailed state:  trans 21.367 -11.464 -2.255 quatxyzw 0.568178 0.373950 0.730003 -0.066563 center 0.217 0.012 -0.211 ntor 5 4.4562 -1.6020 1.5033 -11.0152 -76.7073
State:	 21.367 -11.464  -2.255   0.569  0.375  0.732 -172.367      4.46   -1.60    1.50  -11.02  -76.71

DOCKED: MODEL       55
DOCKED: USER    Run = 55
DOCKED: USER    DPF = ligand_dock.biased.dpf
DOCKED: USER  
DOCKED: USER    Estimated Free Energy of Binding    =  -11.05 kcal/mol  [=(1)+(2)+(3)-(4)]
DOCKED: USER    Estimated Inhibition Constant, Ki   =    7.94 nM (nanomolar)  [Temperature = 298.15 K]
DOCKED: USER    
DOCKED: USER    (1) Final Intermolecular Energy     =  -12.54 kcal/mol
DOCKED: USER        vdW + Hbond + desolv Energy     =  -12.54 kcal/mol
DOCKED: USER        Electrostatic Energy            =   +0.00 kcal/mol
DOCKED: USER    (2) Final Total Internal Energy     =   -1.09 kcal/mol
DOCKED: USER    (3) Torsional Free Energy           =   +1.49 kcal/mol
DOCKED: USER    (4) Unbound System's Energy  [=(2)] =   -1.09 kcal/mol
DOCKED: USER    
DOCKED: USER    
DOCKED: USER    NEWDPF move ligand.pdbqt
DOCKED: USER    NEWDPF about 0.217000 0.012000 -0.211000
DOCKED: USER    NEWDPF tran0 21.367097 -11.464129 -2.254705
DOCKED: USER    NEWDPF quaternion0 0.568178 0.373950 0.730003 -0.066563
DOCKED: USER    NEWDPF axisangle0 0.569441 0.374782 0.731626 -172.366790
DOCKED: USER    NEWDPF quat0 0.569441 0.374782 0.731626 -172.366790
DOCKED: USER    NEWDPF dihe0 4.46 -1.60 1.50 -11.02 -76.71 
DOCKED: USER  keepresnum = 1 
DOCKED: USER  
DOCKED: REMARK  Name = 
DOCKED: REMARK  5 active torsions:
DOCKED: REMARK  status: ('A' for Active; 'I' for Inactive)
DOCKED: REMARK    1  A    between atoms: S_2  and  N_3
DOCKED: REMARK    2  A    between atoms: S_2  and  C_10
DOCKED: REMARK    3  A    between atoms: N_3  and  C_4
DOCKED: REMARK    4  A    between atoms: C_12  and  C_13
DOCKED: REMARK    5  A    between atoms: C_14  and  C_15
DOCKED: REMARK                            x       y       z     vdW  Elec       q    Type
DOCKED: REMARK                         _______ _______ _______ _____ _____    ______ ____
DOCKED: USER                              x       y       z     vdW  Elec       q    Type
DOCKED: USER                           _______ _______ _______ _____ _____    ______ ____
DOCKED: ROOT
DOCKED: ATOM      1  C   UNL     1      20.811 -10.266  -3.992 -0.42 -0.00    +0.000 A 
DOCKED: ATOM      2  C   UNL     1      20.712 -10.645  -2.645 -0.43 -0.00    +0.000 A 
DOCKED: ATOM      3  C   UNL     1      20.999  -9.722  -1.618 -0.55 -0.00    +0.000 A 
DOCKED: ATOM      4  C   UNL     1      21.401  -8.423  -1.968 -0.44 -0.00    +0.000 A 
DOCKED: ATOM      5  C   UNL     1      21.489  -8.042  -3.309 -0.33 -0.00    +0.000 A 
DOCKED: ATOM      6  C   UNL     1      21.192  -8.959  -4.319 -0.32 -0.00    +0.000 A 
DOCKED: ENDROOT
DOCKED: BRANCH   1   8
DOCKED: ATOM      7  O   UNL     1      19.485 -10.876  -6.250 -0.37 -0.00    +0.000 OA
DOCKED: ATOM      8  S   UNL     1      20.472 -11.436  -5.264 -0.61 -0.00    +0.000 S 
DOCKED: ATOM      9  O   UNL     1      19.892 -12.673  -4.639 -0.66 -0.00    +0.000 OA
DOCKED: BRANCH   8  10
DOCKED: ATOM     10  N   UNL     1      21.935 -11.851  -6.102 -0.38 -0.00    +0.000 N 
DOCKED: ATOM     11  H   UNL     1      22.247 -12.783  -6.052 -0.50 -0.00    +0.000 HD
DOCKED: BRANCH  10  12
DOCKED: ATOM     12  C   UNL     1      22.718 -10.915  -6.863 -0.37 -0.00    +0.000 A 
DOCKED: ATOM     13  C   UNL     1      22.219  -9.648  -7.226 -0.22 -0.00    +0.000 A 
DOCKED: ATOM     14  C   UNL     1      23.014  -8.760  -7.958 -0.14 -0.00    +0.000 A 
DOCKED: ATOM     15  C   UNL     1      24.306  -9.125  -8.340 -0.16 -0.00    +0.000 A 
DOCKED: ATOM     16  C   UNL     1      24.806 -10.382  -7.993 -0.31 -0.00    +0.000 A 
DOCKED: ATOM     17  C   UNL     1      24.017 -11.273  -7.261 -0.33 -0.00    +0.000 A 
DOCKED: ENDBRANCH  10  12
DOCKED: ENDBRANCH   8  10
DOCKED: ENDBRANCH   1   8
DOCKED: BRANCH   3  18
DOCKED: ATOM     18  C   UNL     1      20.933 -10.081  -0.179 -0.69 -0.00    +0.000 C 
DOCKED: ATOM     19  C   UNL     1      20.230 -11.120   0.298 -0.65 -0.00    +0.000 C 
DOCKED: BRANCH  19  20
DOCKED: ATOM     20  C   UNL     1      20.172 -11.472   1.732 -0.76 -0.00    +0.000 C 
DOCKED: ATOM     21  N   UNL     1      20.447 -10.521   2.767 -0.64 -0.00    +0.000 N 
DOCKED: ATOM     22  O   UNL     1      20.483 -10.918   4.060 -1.07 -0.00    +0.000 OA
DOCKED: ATOM     23  O   UNL     1      19.842 -12.647   2.048 -1.64 -0.00    +0.000 OA
DOCKED: ATOM     24  H   UNL     1      20.611  -9.577   2.538 -0.53 -0.00    +0.000 HD
DOCKED: ENDBRANCH  19  20
DOCKED: ENDBRANCH   3  18
DOCKED: TORSDOF 5
DOCKED: TER
DOCKED: ENDMDL
________________________________________________________________________________


	BEGINNING GENETIC ALGORITHM DOCKING 56 of 100
Run: 56 Seed: 1942030805 364249648 [ Run 56 of 100 GA/GALS ]
Beginning LAMARCKIAN GENETIC ALGORITHM (LGA), with a maximum of 2500000 energy evaluations.

Final-Value: -13.812


	FINAL GENETIC ALGORITHM DOCKED STATE
	_______________________________________________


Detailed state:  trans 21.300 -11.627 -2.781 quatxyzw 0.562297 0.267390 0.782313 0.017603 center 0.217 0.012 -0.211 ntor 5 141.7282 -145.3519 -121.7757 -36.4896 -44.0095
State:	 21.300 -11.627  -2.781   0.562  0.267  0.782 177.983    141.73 -145.35 -121.78  -36.49  -44.01

DOCKED: MODEL       56
DOCKED: USER    Run = 56
DOCKED: USER    DPF = ligand_dock.biased.dpf
DOCKED: USER  
DOCKED: USER    Estimated Free Energy of Binding    =  -11.30 kcal/mol  [=(1)+(2)+(3)-(4)]
DOCKED: USER    Estimated Inhibition Constant, Ki   =    5.24 nM (nanomolar)  [Temperature = 298.15 K]
DOCKED: USER    
DOCKED: USER    (1) Final Intermolecular Energy     =  -12.79 kcal/mol
DOCKED: USER        vdW + Hbond + desolv Energy     =  -12.79 kcal/mol
DOCKED: USER        Electrostatic Energy            =   +0.00 kcal/mol
DOCKED: USER    (2) Final Total Internal Energy     =   -1.02 kcal/mol
DOCKED: USER    (3) Torsional Free Energy           =   +1.49 kcal/mol
DOCKED: USER    (4) Unbound System's Energy  [=(2)] =   -1.02 kcal/mol
DOCKED: USER    
DOCKED: USER    
DOCKED: USER    NEWDPF move ligand.pdbqt
DOCKED: USER    NEWDPF about 0.217000 0.012000 -0.211000
DOCKED: USER    NEWDPF tran0 21.299853 -11.627312 -2.780731
DOCKED: USER    NEWDPF quaternion0 0.562297 0.267390 0.782313 0.017603
DOCKED: USER    NEWDPF axisangle0 0.562384 0.267432 0.782435 177.982715
DOCKED: USER    NEWDPF quat0 0.562384 0.267432 0.782435 177.982715
DOCKED: USER    NEWDPF dihe0 141.73 -145.35 -121.78 -36.49 -44.01 
DOCKED: USER  keepresnum = 1 
DOCKED: USER  
DOCKED: REMARK  Name = 
DOCKED: REMARK  5 active torsions:
DOCKED: REMARK  status: ('A' for Active; 'I' for Inactive)
DOCKED: REMARK    1  A    between atoms: S_2  and  N_3
DOCKED: REMARK    2  A    between atoms: S_2  and  C_10
DOCKED: REMARK    3  A    between atoms: N_3  and  C_4
DOCKED: REMARK    4  A    between atoms: C_12  and  C_13
DOCKED: REMARK    5  A    between atoms: C_14  and  C_15
DOCKED: REMARK                            x       y       z     vdW  Elec       q    Type
DOCKED: REMARK                         _______ _______ _______ _____ _____    ______ ____
DOCKED: USER                              x       y       z     vdW  Elec       q    Type
DOCKED: USER                           _______ _______ _______ _____ _____    ______ ____
DOCKED: ROOT
DOCKED: ATOM      1  C   UNL     1      20.755  -9.988  -4.113 -0.39 -0.00    +0.000 A 
DOCKED: ATOM      2  C   UNL     1      20.639 -10.738  -2.934 -0.42 -0.00    +0.000 A 
DOCKED: ATOM      3  C   UNL     1      20.893 -10.145  -1.680 -0.54 -0.00    +0.000 A 
DOCKED: ATOM      4  C   UNL     1      21.280  -8.796  -1.634 -0.48 -0.00    +0.000 A 
DOCKED: ATOM      5  C   UNL     1      21.386  -8.046  -2.809 -0.40 -0.00    +0.000 A 
DOCKED: ATOM      6  C   UNL     1      21.120  -8.637  -4.044 -0.33 -0.00    +0.000 A 
DOCKED: ENDROOT
DOCKED: BRANCH   1   8
DOCKED: ATOM      7  O   UNL     1      20.193  -9.708  -6.728 -0.21 -0.00    +0.000 OA
DOCKED: ATOM      8  S   UNL     1      20.456 -10.747  -5.674 -0.51 -0.00    +0.000 S 
DOCKED: ATOM      9  O   UNL     1      19.253 -11.638  -5.553 -0.50 -0.00    +0.000 OA
DOCKED: BRANCH   8  10
DOCKED: ATOM     10  N   UNL     1      21.828 -11.700  -6.149 -0.39 -0.00    +0.000 N 
DOCKED: ATOM     11  H   UNL     1      21.844 -12.649  -5.886 -0.56 -0.00    +0.000 HD
DOCKED: BRANCH  10  12
DOCKED: ATOM     12  C   UNL     1      22.941 -11.186  -6.902 -0.40 -0.00    +0.000 A 
DOCKED: ATOM     13  C   UNL     1      23.780 -12.028  -7.658 -0.47 -0.00    +0.000 A 
DOCKED: ATOM     14  C   UNL     1      24.847 -11.491  -8.386 -0.39 -0.00    +0.000 A 
DOCKED: ATOM     15  C   UNL     1      25.092 -10.117  -8.362 -0.27 -0.00    +0.000 A 
DOCKED: ATOM     16  C   UNL     1      24.271  -9.275  -7.609 -0.23 -0.00    +0.000 A 
DOCKED: ATOM     17  C   UNL     1      23.203  -9.806  -6.880 -0.25 -0.00    +0.000 A 
DOCKED: ENDBRANCH  10  12
DOCKED: ENDBRANCH   8  10
DOCKED: ENDBRANCH   1   8
DOCKED: BRANCH   3  18
DOCKED: ATOM     18  C   UNL     1      20.809 -10.902  -0.406 -0.60 -0.00    +0.000 C 
DOCKED: ATOM     19  C   UNL     1      20.369 -10.374   0.747 -0.65 -0.00    +0.000 C 
DOCKED: BRANCH  19  20
DOCKED: ATOM     20  C   UNL     1      20.286 -11.134   2.011 -0.75 -0.00    +0.000 C 
DOCKED: ATOM     21  N   UNL     1      20.232 -10.492   3.290 -0.69 -0.00    +0.000 N 
DOCKED: ATOM     22  O   UNL     1      20.262 -11.233   4.422 -0.96 -0.00    +0.000 OA
DOCKED: ATOM     23  O   UNL     1      20.235 -12.392   1.952 -1.84 -0.00    +0.000 OA
DOCKED: ATOM     24  H   UNL     1      20.174  -9.511   3.346 -0.57 -0.00    +0.000 HD
DOCKED: ENDBRANCH  19  20
DOCKED: ENDBRANCH   3  18
DOCKED: TORSDOF 5
DOCKED: TER
DOCKED: ENDMDL
________________________________________________________________________________


	BEGINNING GENETIC ALGORITHM DOCKING 57 of 100
Run: 57 Seed: 1650351408 536262412 [ Run 57 of 100 GA/GALS ]
Beginning LAMARCKIAN GENETIC ALGORITHM (LGA), with a maximum of 2500000 energy evaluations.

Final-Value: -14.038


	FINAL GENETIC ALGORITHM DOCKED STATE
	_______________________________________________


Detailed state:  trans 17.792 -9.221 2.871 quatxyzw 0.010308 -0.943117 -0.143071 -0.299925 center 0.217 0.012 -0.211 ntor 5 20.4881 -117.3726 -146.7352 -23.9220 -55.3691
State:	 17.792  -9.221   2.871   0.011 -0.989 -0.150 -145.094     20.49 -117.37 -146.74  -23.92  -55.37

DOCKED: MODEL       57
DOCKED: USER    Run = 57
DOCKED: USER    DPF = ligand_dock.biased.dpf
DOCKED: USER  
DOCKED: USER    Estimated Free Energy of Binding    =  -11.45 kcal/mol  [=(1)+(2)+(3)-(4)]
DOCKED: USER    Estimated Inhibition Constant, Ki   =    4.01 nM (nanomolar)  [Temperature = 298.15 K]
DOCKED: USER    
DOCKED: USER    (1) Final Intermolecular Energy     =  -12.95 kcal/mol
DOCKED: USER        vdW + Hbond + desolv Energy     =  -12.95 kcal/mol
DOCKED: USER        Electrostatic Energy            =   +0.00 kcal/mol
DOCKED: USER    (2) Final Total Internal Energy     =   -1.09 kcal/mol
DOCKED: USER    (3) Torsional Free Energy           =   +1.49 kcal/mol
DOCKED: USER    (4) Unbound System's Energy  [=(2)] =   -1.09 kcal/mol
DOCKED: USER    
DOCKED: USER    
DOCKED: USER    NEWDPF move ligand.pdbqt
DOCKED: USER    NEWDPF about 0.217000 0.012000 -0.211000
DOCKED: USER    NEWDPF tran0 17.791684 -9.220539 2.871481
DOCKED: USER    NEWDPF quaternion0 0.010308 -0.943117 -0.143071 -0.299925
DOCKED: USER    NEWDPF axisangle0 0.010805 -0.988631 -0.149975 -145.093851
DOCKED: USER    NEWDPF quat0 0.010805 -0.988631 -0.149975 -145.093851
DOCKED: USER    NEWDPF dihe0 20.49 -117.37 -146.74 -23.92 -55.37 
DOCKED: USER  keepresnum = 1 
DOCKED: USER  
DOCKED: REMARK  Name = 
DOCKED: REMARK  5 active torsions:
DOCKED: REMARK  status: ('A' for Active; 'I' for Inactive)
DOCKED: REMARK    1  A    between atoms: S_2  and  N_3
DOCKED: REMARK    2  A    between atoms: S_2  and  C_10
DOCKED: REMARK    3  A    between atoms: N_3  and  C_4
DOCKED: REMARK    4  A    between atoms: C_12  and  C_13
DOCKED: REMARK    5  A    between atoms: C_14  and  C_15
DOCKED: REMARK                            x       y       z     vdW  Elec       q    Type
DOCKED: REMARK                         _______ _______ _______ _____ _____    ______ ____
DOCKED: USER                              x       y       z     vdW  Elec       q    Type
DOCKED: USER                           _______ _______ _______ _____ _____    ______ ____
DOCKED: ROOT
DOCKED: ATOM      1  C   UNL     1      18.123 -11.206   2.029 -0.46 -0.00    +0.000 A 
DOCKED: ATOM      2  C   UNL     1      17.562 -10.312   2.952 -0.40 +0.00    +0.000 A 
DOCKED: ATOM      3  C   UNL     1      16.162 -10.163   3.045 -0.41 +0.00    +0.000 A 
DOCKED: ATOM      4  C   UNL     1      15.343 -10.912   2.186 -0.38 +0.00    +0.000 A 
DOCKED: ATOM      5  C   UNL     1      15.902 -11.810   1.272 -0.40 +0.00    +0.000 A 
DOCKED: ATOM      6  C   UNL     1      17.287 -11.960   1.196 -0.42 +0.00    +0.000 A 
DOCKED: ENDROOT
DOCKED: BRANCH   1   8
DOCKED: ATOM      7  O   UNL     1      20.250 -12.754   1.475 -1.40 -0.00    +0.000 OA
DOCKED: ATOM      8  S   UNL     1      19.873 -11.365   1.908 -0.91 -0.00    +0.000 S 
DOCKED: ATOM      9  O   UNL     1      20.475 -11.092   3.257 -1.35 -0.00    +0.000 OA
DOCKED: BRANCH   8  10
DOCKED: ATOM     10  N   UNL     1      20.501 -10.224   0.760 -0.60 -0.00    +0.000 N 
DOCKED: ATOM     11  H   UNL     1      20.951  -9.420   1.107 -0.43 -0.00    +0.000 HD
DOCKED: BRANCH  10  12
DOCKED: ATOM     12  C   UNL     1      20.402 -10.382  -0.666 -0.55 -0.00    +0.000 A 
DOCKED: ATOM     13  C   UNL     1      21.524 -10.256  -1.509 -0.48 -0.00    +0.000 A 
DOCKED: ATOM     14  C   UNL     1      21.391 -10.427  -2.891 -0.48 -0.00    +0.000 A 
DOCKED: ATOM     15  C   UNL     1      20.143 -10.718  -3.446 -0.42 -0.00    +0.000 A 
DOCKED: ATOM     16  C   UNL     1      19.024 -10.836  -2.620 -0.35 -0.00    +0.000 A 
DOCKED: ATOM     17  C   UNL     1      19.151 -10.667  -1.238 -0.39 -0.00    +0.000 A 
DOCKED: ENDBRANCH  10  12
DOCKED: ENDBRANCH   8  10
DOCKED: ENDBRANCH   1   8
DOCKED: BRANCH   3  18
DOCKED: ATOM     18  C   UNL     1      15.520  -9.214   3.988 -0.37 +0.00    +0.000 C 
DOCKED: ATOM     19  C   UNL     1      14.203  -9.193   4.242 -0.40 +0.00    +0.000 C 
DOCKED: BRANCH  19  20
DOCKED: ATOM     20  C   UNL     1      13.571  -8.246   5.184 -0.43 +0.00    +0.000 C 
DOCKED: ATOM     21  N   UNL     1      13.990  -6.880   5.296 -0.38 +0.00    +0.000 N 
DOCKED: ATOM     22  O   UNL     1      13.452  -6.081   6.246 -1.05 +0.00    +0.000 OA
DOCKED: ATOM     23  O   UNL     1      12.613  -8.654   5.894 -0.48 +0.00    +0.000 OA
DOCKED: ATOM     24  H   UNL     1      14.671  -6.523   4.680 -0.01 +0.00    +0.000 HD
DOCKED: ENDBRANCH  19  20
DOCKED: ENDBRANCH   3  18
DOCKED: TORSDOF 5
DOCKED: TER
DOCKED: ENDMDL
________________________________________________________________________________


	BEGINNING GENETIC ALGORITHM DOCKING 58 of 100
Run: 58 Seed: 1018919074 160609829 [ Run 58 of 100 GA/GALS ]
Beginning LAMARCKIAN GENETIC ALGORITHM (LGA), with a maximum of 2500000 energy evaluations.

Final-Value: -12.998


	FINAL GENETIC ALGORITHM DOCKED STATE
	_______________________________________________


Detailed state:  trans 20.296 -7.822 -0.778 quatxyzw 0.727126 -0.516136 -0.207464 -0.402306 center 0.217 0.012 -0.211 ntor 5 136.6340 153.8865 40.7999 -130.9044 4.6715
State:	 20.296  -7.822  -0.778   0.794 -0.564 -0.227 -132.555    136.63  153.89   40.80 -130.90    4.67

DOCKED: MODEL       58
DOCKED: USER    Run = 58
DOCKED: USER    DPF = ligand_dock.biased.dpf
DOCKED: USER  
DOCKED: USER    Estimated Free Energy of Binding    =  -10.56 kcal/mol  [=(1)+(2)+(3)-(4)]
DOCKED: USER    Estimated Inhibition Constant, Ki   =   18.18 nM (nanomolar)  [Temperature = 298.15 K]
DOCKED: USER    
DOCKED: USER    (1) Final Intermolecular Energy     =  -12.05 kcal/mol
DOCKED: USER        vdW + Hbond + desolv Energy     =  -12.05 kcal/mol
DOCKED: USER        Electrostatic Energy            =   +0.00 kcal/mol
DOCKED: USER    (2) Final Total Internal Energy     =   -0.95 kcal/mol
DOCKED: USER    (3) Torsional Free Energy           =   +1.49 kcal/mol
DOCKED: USER    (4) Unbound System's Energy  [=(2)] =   -0.95 kcal/mol
DOCKED: USER    
DOCKED: USER    
DOCKED: USER    NEWDPF move ligand.pdbqt
DOCKED: USER    NEWDPF about 0.217000 0.012000 -0.211000
DOCKED: USER    NEWDPF tran0 20.295677 -7.821977 -0.777538
DOCKED: USER    NEWDPF quaternion0 0.727126 -0.516136 -0.207464 -0.402306
DOCKED: USER    NEWDPF axisangle0 0.794235 -0.563772 -0.226612 -132.555186
DOCKED: USER    NEWDPF quat0 0.794235 -0.563772 -0.226612 -132.555186
DOCKED: USER    NEWDPF dihe0 136.63 153.89 40.80 -130.90 4.67 
DOCKED: USER  keepresnum = 1 
DOCKED: USER  
DOCKED: REMARK  Name = 
DOCKED: REMARK  5 active torsions:
DOCKED: REMARK  status: ('A' for Active; 'I' for Inactive)
DOCKED: REMARK    1  A    between atoms: S_2  and  N_3
DOCKED: REMARK    2  A    between atoms: S_2  and  C_10
DOCKED: REMARK    3  A    between atoms: N_3  and  C_4
DOCKED: REMARK    4  A    between atoms: C_12  and  C_13
DOCKED: REMARK    5  A    between atoms: C_14  and  C_15
DOCKED: REMARK                            x       y       z     vdW  Elec       q    Type
DOCKED: REMARK                         _______ _______ _______ _____ _____    ______ ____
DOCKED: USER                              x       y       z     vdW  Elec       q    Type
DOCKED: USER                           _______ _______ _______ _____ _____    ______ ____
DOCKED: ROOT
DOCKED: ATOM      1  C   UNL     1      21.364  -7.005  -2.496 -0.41 -0.00    +0.000 A 
DOCKED: ATOM      2  C   UNL     1      21.193  -7.911  -1.439 -0.31 -0.00    +0.000 A 
DOCKED: ATOM      3  C   UNL     1      21.053  -9.292  -1.694 -0.52 -0.00    +0.000 A 
DOCKED: ATOM      4  C   UNL     1      21.072  -9.740  -3.025 -0.46 -0.00    +0.000 A 
DOCKED: ATOM      5  C   UNL     1      21.253  -8.838  -4.077 -0.34 -0.00    +0.000 A 
DOCKED: ATOM      6  C   UNL     1      21.403  -7.475  -3.814 -0.31 -0.00    +0.000 A 
DOCKED: ENDROOT
DOCKED: BRANCH   1   8
DOCKED: ATOM      7  O   UNL     1      20.971  -4.472  -3.306 -0.20 -0.00    +0.000 OA
DOCKED: ATOM      8  S   UNL     1      21.516  -5.282  -2.163 -0.53 -0.00    +0.000 S 
DOCKED: ATOM      9  O   UNL     1      22.969  -4.954  -1.978 -0.62 +0.00    +0.000 OA
DOCKED: BRANCH   8  10
DOCKED: ATOM     10  N   UNL     1      20.648  -4.873  -0.715 -0.42 +0.00    +0.000 N 
DOCKED: ATOM     11  H   UNL     1      20.137  -5.585  -0.267 -0.08 +0.00    +0.000 HD
DOCKED: BRANCH  10  12
DOCKED: ATOM     12  C   UNL     1      20.632  -3.558  -0.132 -0.32 +0.00    +0.000 A 
DOCKED: ATOM     13  C   UNL     1      19.471  -3.018   0.454 -0.29 -0.00    +0.000 A 
DOCKED: ATOM     14  C   UNL     1      19.496  -1.739   1.020 -0.30 -0.00    +0.000 A 
DOCKED: ATOM     15  C   UNL     1      20.672  -0.986   1.002 -0.28 -0.00    +0.000 A 
DOCKED: ATOM     16  C   UNL     1      21.826  -1.510   0.415 -0.31 -0.00    +0.000 A 
DOCKED: ATOM     17  C   UNL     1      21.807  -2.787  -0.151 -0.32 +0.00    +0.000 A 
DOCKED: ENDBRANCH  10  12
DOCKED: ENDBRANCH   8  10
DOCKED: ENDBRANCH   1   8
DOCKED: BRANCH   3  18
DOCKED: ATOM     18  C   UNL     1      20.845 -10.287  -0.614 -0.67 -0.00    +0.000 C 
DOCKED: ATOM     19  C   UNL     1      20.429  -9.970   0.622 -0.56 -0.00    +0.000 C 
DOCKED: BRANCH  19  20
DOCKED: ATOM     20  C   UNL     1      20.222 -10.968   1.692 -0.73 -0.00    +0.000 C 
DOCKED: ATOM     21  N   UNL     1      20.303 -10.630   3.082 -0.69 -0.00    +0.000 N 
DOCKED: ATOM     22  O   UNL     1      20.209 -11.599   4.022 -1.19 -0.00    +0.000 OA
DOCKED: ATOM     23  O   UNL     1      19.938 -12.150   1.363 -1.64 -0.00    +0.000 OA
DOCKED: ATOM     24  H   UNL     1      20.428  -9.692   3.354 -0.57 -0.00    +0.000 HD
DOCKED: ENDBRANCH  19  20
DOCKED: ENDBRANCH   3  18
DOCKED: TORSDOF 5
DOCKED: TER
DOCKED: ENDMDL
________________________________________________________________________________


	BEGINNING GENETIC ALGORITHM DOCKING 59 of 100
Run: 59 Seed: 525110154 527292556 [ Run 59 of 100 GA/GALS ]
Beginning LAMARCKIAN GENETIC ALGORITHM (LGA), with a maximum of 2500000 energy evaluations.

Final-Value: -13.038


	FINAL GENETIC ALGORITHM DOCKED STATE
	_______________________________________________


Detailed state:  trans 18.489 -11.017 -1.184 quatxyzw -0.659770 0.372440 0.397390 -0.517759 center 0.217 0.012 -0.211 ntor 5 -11.8674 154.6657 -130.8439 151.1746 -67.3741
State:	 18.489 -11.017  -1.184  -0.771  0.435  0.464 -117.636    -11.87  154.67 -130.84  151.17  -67.37

DOCKED: MODEL       59
DOCKED: USER    Run = 59
DOCKED: USER    DPF = ligand_dock.biased.dpf
DOCKED: USER  
DOCKED: USER    Estimated Free Energy of Binding    =  -10.50 kcal/mol  [=(1)+(2)+(3)-(4)]
DOCKED: USER    Estimated Inhibition Constant, Ki   =   20.22 nM (nanomolar)  [Temperature = 298.15 K]
DOCKED: USER    
DOCKED: USER    (1) Final Intermolecular Energy     =  -11.99 kcal/mol
DOCKED: USER        vdW + Hbond + desolv Energy     =  -11.99 kcal/mol
DOCKED: USER        Electrostatic Energy            =   +0.00 kcal/mol
DOCKED: USER    (2) Final Total Internal Energy     =   -1.05 kcal/mol
DOCKED: USER    (3) Torsional Free Energy           =   +1.49 kcal/mol
DOCKED: USER    (4) Unbound System's Energy  [=(2)] =   -1.05 kcal/mol
DOCKED: USER    
DOCKED: USER    
DOCKED: USER    NEWDPF move ligand.pdbqt
DOCKED: USER    NEWDPF about 0.217000 0.012000 -0.211000
DOCKED: USER    NEWDPF tran0 18.488597 -11.016520 -1.183810
DOCKED: USER    NEWDPF quaternion0 -0.659770 0.372440 0.397390 -0.517759
DOCKED: USER    NEWDPF axisangle0 -0.771185 0.435334 0.464497 -117.635944
DOCKED: USER    NEWDPF quat0 -0.771185 0.435334 0.464497 -117.635944
DOCKED: USER    NEWDPF dihe0 -11.87 154.67 -130.84 151.17 -67.37 
DOCKED: USER  keepresnum = 1 
DOCKED: USER  
DOCKED: REMARK  Name = 
DOCKED: REMARK  5 active torsions:
DOCKED: REMARK  status: ('A' for Active; 'I' for Inactive)
DOCKED: REMARK    1  A    between atoms: S_2  and  N_3
DOCKED: REMARK    2  A    between atoms: S_2  and  C_10
DOCKED: REMARK    3  A    between atoms: N_3  and  C_4
DOCKED: REMARK    4  A    between atoms: C_12  and  C_13
DOCKED: REMARK    5  A    between atoms: C_14  and  C_15
DOCKED: REMARK                            x       y       z     vdW  Elec       q    Type
DOCKED: REMARK                         _______ _______ _______ _____ _____    ______ ____
DOCKED: USER                              x       y       z     vdW  Elec       q    Type
DOCKED: USER                           _______ _______ _______ _____ _____    ______ ____
DOCKED: ROOT
DOCKED: ATOM      1  C   UNL     1      20.187 -10.633   0.132 -0.56 -0.00    +0.000 A 
DOCKED: ATOM      2  C   UNL     1      19.600 -11.066  -1.066 -0.38 -0.00    +0.000 A 
DOCKED: ATOM      3  C   UNL     1      19.907 -10.428  -2.286 -0.42 -0.00    +0.000 A 
DOCKED: ATOM      4  C   UNL     1      20.798  -9.342  -2.277 -0.47 -0.00    +0.000 A 
DOCKED: ATOM      5  C   UNL     1      21.390  -8.918  -1.084 -0.49 -0.00    +0.000 A 
DOCKED: ATOM      6  C   UNL     1      21.090  -9.563   0.116 -0.51 -0.00    +0.000 A 
DOCKED: ENDROOT
DOCKED: BRANCH   1   8
DOCKED: ATOM      7  O   UNL     1      21.005 -11.626   2.493 -1.55 -0.00    +0.000 OA
DOCKED: ATOM      8  S   UNL     1      19.776 -11.426   1.651 -0.89 -0.00    +0.000 S 
DOCKED: ATOM      9  O   UNL     1      19.168 -12.764   1.346 -1.16 -0.00    +0.000 OA
DOCKED: BRANCH   8  10
DOCKED: ATOM     10  N   UNL     1      18.633 -10.466   2.537 -0.53 -0.00    +0.000 N 
DOCKED: ATOM     11  H   UNL     1      18.976  -9.710   3.065 -0.16 -0.00    +0.000 HD
DOCKED: BRANCH  10  12
DOCKED: ATOM     12  C   UNL     1      17.215 -10.709   2.544 -0.43 +0.00    +0.000 A 
DOCKED: ATOM     13  C   UNL     1      16.435 -10.530   3.703 -0.39 +0.00    +0.000 A 
DOCKED: ATOM     14  C   UNL     1      15.057 -10.767   3.670 -0.44 +0.00    +0.000 A 
DOCKED: ATOM     15  C   UNL     1      14.445 -11.189   2.488 -0.41 +0.00    +0.000 A 
DOCKED: ATOM     16  C   UNL     1      15.211 -11.378   1.336 -0.37 +0.00    +0.000 A 
DOCKED: ATOM     17  C   UNL     1      16.588 -11.142   1.363 -0.37 +0.00    +0.000 A 
DOCKED: ENDBRANCH  10  12
DOCKED: ENDBRANCH   8  10
DOCKED: ENDBRANCH   1   8
DOCKED: BRANCH   3  18
DOCKED: ATOM     18  C   UNL     1      19.294 -10.831  -3.576 -0.42 -0.00    +0.000 C 
DOCKED: ATOM     19  C   UNL     1      19.879 -10.644  -4.769 -0.42 -0.00    +0.000 C 
DOCKED: BRANCH  19  20
DOCKED: ATOM     20  C   UNL     1      19.264 -11.050  -6.050 -0.39 -0.00    +0.000 C 
DOCKED: ATOM     21  N   UNL     1      17.929 -11.567  -6.129 -0.37 -0.00    +0.000 N 
DOCKED: ATOM     22  O   UNL     1      17.448 -12.023  -7.309 -0.47 -0.00    +0.000 OA
DOCKED: ATOM     23  O   UNL     1      19.933 -10.911  -7.108 -0.35 -0.00    +0.000 OA
DOCKED: ATOM     24  H   UNL     1      17.362 -11.590  -5.325 -0.03 -0.00    +0.000 HD
DOCKED: ENDBRANCH  19  20
DOCKED: ENDBRANCH   3  18
DOCKED: TORSDOF 5
DOCKED: TER
DOCKED: ENDMDL
________________________________________________________________________________


	BEGINNING GENETIC ALGORITHM DOCKING 60 of 100
Run: 60 Seed: 516413546 1795833477 [ Run 60 of 100 GA/GALS ]
Beginning LAMARCKIAN GENETIC ALGORITHM (LGA), with a maximum of 2500000 energy evaluations.

Final-Value: -13.461


	FINAL GENETIC ALGORITHM DOCKED STATE
	_______________________________________________


Detailed state:  trans 21.359 -11.355 -2.197 quatxyzw -0.516032 -0.383907 -0.760522 0.089071 center 0.217 0.012 -0.211 ntor 5 -29.2801 -127.4449 34.3015 -34.7449 161.7122
State:	 21.359 -11.355  -2.197  -0.518 -0.385 -0.764 169.780    -29.28 -127.44   34.30  -34.74  161.71

DOCKED: MODEL       60
DOCKED: USER    Run = 60
DOCKED: USER    DPF = ligand_dock.biased.dpf
DOCKED: USER  
DOCKED: USER    Estimated Free Energy of Binding    =  -10.85 kcal/mol  [=(1)+(2)+(3)-(4)]
DOCKED: USER    Estimated Inhibition Constant, Ki   =   11.17 nM (nanomolar)  [Temperature = 298.15 K]
DOCKED: USER    
DOCKED: USER    (1) Final Intermolecular Energy     =  -12.34 kcal/mol
DOCKED: USER        vdW + Hbond + desolv Energy     =  -12.34 kcal/mol
DOCKED: USER        Electrostatic Energy            =   +0.00 kcal/mol
DOCKED: USER    (2) Final Total Internal Energy     =   -1.12 kcal/mol
DOCKED: USER    (3) Torsional Free Energy           =   +1.49 kcal/mol
DOCKED: USER    (4) Unbound System's Energy  [=(2)] =   -1.12 kcal/mol
DOCKED: USER    
DOCKED: USER    
DOCKED: USER    NEWDPF move ligand.pdbqt
DOCKED: USER    NEWDPF about 0.217000 0.012000 -0.211000
DOCKED: USER    NEWDPF tran0 21.359291 -11.354784 -2.197480
DOCKED: USER    NEWDPF quaternion0 -0.516032 -0.383907 -0.760522 0.089071
DOCKED: USER    NEWDPF axisangle0 -0.518091 -0.385439 -0.763557 169.779651
DOCKED: USER    NEWDPF quat0 -0.518091 -0.385439 -0.763557 169.779651
DOCKED: USER    NEWDPF dihe0 -29.28 -127.44 34.30 -34.74 161.71 
DOCKED: USER  keepresnum = 1 
DOCKED: USER  
DOCKED: REMARK  Name = 
DOCKED: REMARK  5 active torsions:
DOCKED: REMARK  status: ('A' for Active; 'I' for Inactive)
DOCKED: REMARK    1  A    between atoms: S_2  and  N_3
DOCKED: REMARK    2  A    between atoms: S_2  and  C_10
DOCKED: REMARK    3  A    between atoms: N_3  and  C_4
DOCKED: REMARK    4  A    between atoms: C_12  and  C_13
DOCKED: REMARK    5  A    between atoms: C_14  and  C_15
DOCKED: REMARK                            x       y       z     vdW  Elec       q    Type
DOCKED: REMARK                         _______ _______ _______ _____ _____    ______ ____
DOCKED: USER                              x       y       z     vdW  Elec       q    Type
DOCKED: USER                           _______ _______ _______ _____ _____    ______ ____
DOCKED: ROOT
DOCKED: ATOM      1  C   UNL     1      21.004 -10.210  -4.021 -0.43 -0.00    +0.000 A 
DOCKED: ATOM      2  C   UNL     1      20.743 -10.561  -2.688 -0.46 -0.00    +0.000 A 
DOCKED: ATOM      3  C   UNL     1      20.879  -9.608  -1.657 -0.53 -0.00    +0.000 A 
DOCKED: ATOM      4  C   UNL     1      21.296  -8.308  -1.986 -0.44 -0.00    +0.000 A 
DOCKED: ATOM      5  C   UNL     1      21.545  -7.956  -3.315 -0.32 -0.00    +0.000 A 
DOCKED: ATOM      6  C   UNL     1      21.396  -8.902  -4.331 -0.32 -0.00    +0.000 A 
DOCKED: ENDROOT
DOCKED: BRANCH   1   8
DOCKED: ATOM      7  O   UNL     1      20.266 -12.690  -4.753 -0.63 -0.00    +0.000 OA
DOCKED: ATOM      8  S   UNL     1      20.851 -11.416  -5.296 -0.63 -0.00    +0.000 S 
DOCKED: ATOM      9  O   UNL     1      22.216 -11.702  -5.853 -0.61 -0.00    +0.000 OA
DOCKED: BRANCH   8  10
DOCKED: ATOM     10  N   UNL     1      19.828 -10.819  -6.565 -0.32 -0.00    +0.000 N 
DOCKED: ATOM     11  H   UNL     1      20.254 -10.360  -7.324 -0.01 -0.00    +0.000 HD
DOCKED: BRANCH  10  12
DOCKED: ATOM     12  C   UNL     1      18.395 -10.954  -6.573 -0.33 -0.00    +0.000 A 
DOCKED: ATOM     13  C   UNL     1      17.684 -11.268  -7.747 -0.28 -0.00    +0.000 A 
DOCKED: ATOM     14  C   UNL     1      16.292 -11.401  -7.715 -0.29 -0.00    +0.000 A 
DOCKED: ATOM     15  C   UNL     1      15.597 -11.217  -6.518 -0.25 -0.00    +0.000 A 
DOCKED: ATOM     16  C   UNL     1      16.292 -10.897  -5.350 -0.23 -0.00    +0.000 A 
DOCKED: ATOM     17  C   UNL     1      17.683 -10.763  -5.377 -0.27 -0.00    +0.000 A 
DOCKED: ENDBRANCH  10  12
DOCKED: ENDBRANCH   8  10
DOCKED: ENDBRANCH   1   8
DOCKED: BRANCH   3  18
DOCKED: ATOM     18  C   UNL     1      20.639  -9.935  -0.229 -0.65 -0.00    +0.000 C 
DOCKED: ATOM     19  C   UNL     1      20.495 -11.186   0.234 -0.63 -0.00    +0.000 C 
DOCKED: BRANCH  19  20
DOCKED: ATOM     20  C   UNL     1      20.259 -11.504   1.658 -0.77 -0.00    +0.000 C 
DOCKED: ATOM     21  N   UNL     1      20.400 -10.527   2.695 -0.64 -0.00    +0.000 N 
DOCKED: ATOM     22  O   UNL     1      20.275 -10.892   3.992 -1.13 -0.00    +0.000 OA
DOCKED: ATOM     23  O   UNL     1      19.897 -12.673   1.959 -1.65 -0.00    +0.000 OA
DOCKED: ATOM     24  H   UNL     1      20.588  -9.588   2.465 -0.53 -0.00    +0.000 HD
DOCKED: ENDBRANCH  19  20
DOCKED: ENDBRANCH   3  18
DOCKED: TORSDOF 5
DOCKED: TER
DOCKED: ENDMDL
________________________________________________________________________________


	BEGINNING GENETIC ALGORITHM DOCKING 61 of 100
Run: 61 Seed: 1537185584 1896477129 [ Run 61 of 100 GA/GALS ]
Beginning LAMARCKIAN GENETIC ALGORITHM (LGA), with a maximum of 2500000 energy evaluations.

Final-Value: -13.198


	FINAL GENETIC ALGORITHM DOCKED STATE
	_______________________________________________


Detailed state:  trans 17.185 -12.243 0.490 quatxyzw 0.288276 0.310307 -0.878005 0.222965 center 0.217 0.012 -0.211 ntor 5 -180.0000 -166.2556 -13.8359 -18.3200 109.2529
State:	 17.185 -12.243   0.490   0.296  0.318 -0.901 154.233   -180.00 -166.26  -13.84  -18.32  109.25

DOCKED: MODEL       61
DOCKED: USER    Run = 61
DOCKED: USER    DPF = ligand_dock.biased.dpf
DOCKED: USER  
DOCKED: USER    Estimated Free Energy of Binding    =  -10.41 kcal/mol  [=(1)+(2)+(3)-(4)]
DOCKED: USER    Estimated Inhibition Constant, Ki   =   23.44 nM (nanomolar)  [Temperature = 298.15 K]
DOCKED: USER    
DOCKED: USER    (1) Final Intermolecular Energy     =  -11.90 kcal/mol
DOCKED: USER        vdW + Hbond + desolv Energy     =  -11.90 kcal/mol
DOCKED: USER        Electrostatic Energy            =   +0.00 kcal/mol
DOCKED: USER    (2) Final Total Internal Energy     =   -1.30 kcal/mol
DOCKED: USER    (3) Torsional Free Energy           =   +1.49 kcal/mol
DOCKED: USER    (4) Unbound System's Energy  [=(2)] =   -1.30 kcal/mol
DOCKED: USER    
DOCKED: USER    
DOCKED: USER    NEWDPF move ligand.pdbqt
DOCKED: USER    NEWDPF about 0.217000 0.012000 -0.211000
DOCKED: USER    NEWDPF tran0 17.184589 -12.242939 0.490431
DOCKED: USER    NEWDPF quaternion0 0.288276 0.310307 -0.878005 0.222965
DOCKED: USER    NEWDPF axisangle0 0.295720 0.318320 -0.900679 154.233463
DOCKED: USER    NEWDPF quat0 0.295720 0.318320 -0.900679 154.233463
DOCKED: USER    NEWDPF dihe0 -180.00 -166.26 -13.84 -18.32 109.25 
DOCKED: USER  keepresnum = 1 
DOCKED: USER  
DOCKED: REMARK  Name = 
DOCKED: REMARK  5 active torsions:
DOCKED: REMARK  status: ('A' for Active; 'I' for Inactive)
DOCKED: REMARK    1  A    between atoms: S_2  and  N_3
DOCKED: REMARK    2  A    between atoms: S_2  and  C_10
DOCKED: REMARK    3  A    between atoms: N_3  and  C_4
DOCKED: REMARK    4  A    between atoms: C_12  and  C_13
DOCKED: REMARK    5  A    between atoms: C_14  and  C_15
DOCKED: REMARK                            x       y       z     vdW  Elec       q    Type
DOCKED: REMARK                         _______ _______ _______ _____ _____    ______ ____
DOCKED: USER                              x       y       z     vdW  Elec       q    Type
DOCKED: USER                           _______ _______ _______ _____ _____    ______ ____
DOCKED: ROOT
DOCKED: ATOM      1  C   UNL     1      18.064 -11.030   2.076 -0.46 -0.00    +0.000 A 
DOCKED: ATOM      2  C   UNL     1      17.291 -11.216   0.921 -0.39 +0.00    +0.000 A 
DOCKED: ATOM      3  C   UNL     1      15.914 -10.912   0.924 -0.32 +0.00    +0.000 A 
DOCKED: ATOM      4  C   UNL     1      15.328 -10.435   2.107 -0.33 +0.00    +0.000 A 
DOCKED: ATOM      5  C   UNL     1      16.100 -10.240   3.256 -0.43 +0.00    +0.000 A 
DOCKED: ATOM      6  C   UNL     1      17.465 -10.532   3.240 -0.36 +0.00    +0.000 A 
DOCKED: ENDROOT
DOCKED: BRANCH   1   8
DOCKED: ATOM      7  O   UNL     1      20.003 -12.769   1.411 -1.44 -0.00    +0.000 OA
DOCKED: ATOM      8  S   UNL     1      19.779 -11.435   2.065 -0.91 -0.00    +0.000 S 
DOCKED: ATOM      9  O   UNL     1      20.268 -11.495   3.483 -1.41 -0.00    +0.000 OA
DOCKED: BRANCH   8  10
DOCKED: ATOM     10  N   UNL     1      20.674 -10.223   1.202 -0.57 -0.00    +0.000 N 
DOCKED: ATOM     11  H   UNL     1      21.258  -9.624   1.720 -0.55 -0.00    +0.000 HD
DOCKED: BRANCH  10  12
DOCKED: ATOM     12  C   UNL     1      20.613 -10.043  -0.225 -0.58 -0.00    +0.000 A 
DOCKED: ATOM     13  C   UNL     1      21.385  -9.068  -0.885 -0.52 -0.00    +0.000 A 
DOCKED: ATOM     14  C   UNL     1      21.307  -8.928  -2.275 -0.45 -0.00    +0.000 A 
DOCKED: ATOM     15  C   UNL     1      20.457  -9.750  -3.016 -0.42 -0.00    +0.000 A 
DOCKED: ATOM     16  C   UNL     1      19.680 -10.714  -2.369 -0.40 -0.00    +0.000 A 
DOCKED: ATOM     17  C   UNL     1      19.755 -10.858  -0.981 -0.45 -0.00    +0.000 A 
DOCKED: ENDBRANCH  10  12
DOCKED: ENDBRANCH   8  10
DOCKED: ENDBRANCH   1   8
DOCKED: BRANCH   3  18
DOCKED: ATOM     18  C   UNL     1      15.048 -11.115  -0.264 -0.35 +0.00    +0.000 C 
DOCKED: ATOM     19  C   UNL     1      15.453 -10.906  -1.526 -0.32 -0.00    +0.000 C 
DOCKED: BRANCH  19  20
DOCKED: ATOM     20  C   UNL     1      14.586 -11.113  -2.704 -0.33 -0.00    +0.000 C 
DOCKED: ATOM     21  N   UNL     1      15.112 -11.252  -4.029 -0.26 -0.00    +0.000 N 
DOCKED: ATOM     22  O   UNL     1      14.272 -11.335  -5.087 -0.31 -0.00    +0.000 OA
DOCKED: ATOM     23  O   UNL     1      13.341 -11.193  -2.526 -0.32 -0.00    +0.000 OA
DOCKED: ATOM     24  H   UNL     1      16.086 -11.288  -4.170 -0.01 -0.00    +0.000 HD
DOCKED: ENDBRANCH  19  20
DOCKED: ENDBRANCH   3  18
DOCKED: TORSDOF 5
DOCKED: TER
DOCKED: ENDMDL
________________________________________________________________________________


	BEGINNING GENETIC ALGORITHM DOCKING 62 of 100
Run: 62 Seed: 1271870383 13127168 [ Run 62 of 100 GA/GALS ]
Beginning LAMARCKIAN GENETIC ALGORITHM (LGA), with a maximum of 2500000 energy evaluations.

Final-Value: -13.352


	FINAL GENETIC ALGORITHM DOCKED STATE
	_______________________________________________


Detailed state:  trans 22.223 -11.421 -2.497 quatxyzw -0.476211 -0.374802 -0.791159 -0.082542 center 0.217 0.012 -0.211 ntor 5 106.8131 57.5056 -101.5317 68.4696 127.6679
State:	 22.223 -11.421  -2.497  -0.478 -0.376 -0.794 -170.531    106.81   57.51 -101.53   68.47  127.67

DOCKED: MODEL       62
DOCKED: USER    Run = 62
DOCKED: USER    DPF = ligand_dock.biased.dpf
DOCKED: USER  
DOCKED: USER    Estimated Free Energy of Binding    =  -10.69 kcal/mol  [=(1)+(2)+(3)-(4)]
DOCKED: USER    Estimated Inhibition Constant, Ki   =   14.65 nM (nanomolar)  [Temperature = 298.15 K]
DOCKED: USER    
DOCKED: USER    (1) Final Intermolecular Energy     =  -12.18 kcal/mol
DOCKED: USER        vdW + Hbond + desolv Energy     =  -12.18 kcal/mol
DOCKED: USER        Electrostatic Energy            =   +0.00 kcal/mol
DOCKED: USER    (2) Final Total Internal Energy     =   -1.17 kcal/mol
DOCKED: USER    (3) Torsional Free Energy           =   +1.49 kcal/mol
DOCKED: USER    (4) Unbound System's Energy  [=(2)] =   -1.17 kcal/mol
DOCKED: USER    
DOCKED: USER    
DOCKED: USER    NEWDPF move ligand.pdbqt
DOCKED: USER    NEWDPF about 0.217000 0.012000 -0.211000
DOCKED: USER    NEWDPF tran0 22.223288 -11.420503 -2.496660
DOCKED: USER    NEWDPF quaternion0 -0.476211 -0.374802 -0.791159 -0.082542
DOCKED: USER    NEWDPF axisangle0 -0.477842 -0.376085 -0.793868 -170.530634
DOCKED: USER    NEWDPF quat0 -0.477842 -0.376085 -0.793868 -170.530634
DOCKED: USER    NEWDPF dihe0 106.81 57.51 -101.53 68.47 127.67 
DOCKED: USER  keepresnum = 1 
DOCKED: USER  
DOCKED: REMARK  Name = 
DOCKED: REMARK  5 active torsions:
DOCKED: REMARK  status: ('A' for Active; 'I' for Inactive)
DOCKED: REMARK    1  A    between atoms: S_2  and  N_3
DOCKED: REMARK    2  A    between atoms: S_2  and  C_10
DOCKED: REMARK    3  A    between atoms: N_3  and  C_4
DOCKED: REMARK    4  A    between atoms: C_12  and  C_13
DOCKED: REMARK    5  A    between atoms: C_14  and  C_15
DOCKED: REMARK                            x       y       z     vdW  Elec       q    Type
DOCKED: REMARK                         _______ _______ _______ _____ _____    ______ ____
DOCKED: USER                              x       y       z     vdW  Elec       q    Type
DOCKED: USER                           _______ _______ _______ _____ _____    ______ ____
DOCKED: ROOT
DOCKED: ATOM      1  C   UNL     1      21.441 -10.088  -4.037 -0.42 -0.00    +0.000 A 
DOCKED: ATOM      2  C   UNL     1      21.378 -10.756  -2.806 -0.37 -0.00    +0.000 A 
DOCKED: ATOM      3  C   UNL     1      21.312 -10.029  -1.598 -0.55 -0.00    +0.000 A 
DOCKED: ATOM      4  C   UNL     1      21.326  -8.626  -1.651 -0.46 -0.00    +0.000 A 
DOCKED: ATOM      5  C   UNL     1      21.378  -7.960  -2.879 -0.39 -0.00    +0.000 A 
DOCKED: ATOM      6  C   UNL     1      21.431  -8.688  -4.069 -0.32 -0.00    +0.000 A 
DOCKED: ENDROOT
DOCKED: BRANCH   1   8
DOCKED: ATOM      7  O   UNL     1      22.189 -12.345  -5.292 -0.77 -0.00    +0.000 OA
DOCKED: ATOM      8  S   UNL     1      21.545 -11.009  -5.535 -0.62 -0.00    +0.000 S 
DOCKED: ATOM      9  O   UNL     1      22.377 -10.235  -6.518 -0.36 -0.00    +0.000 OA
DOCKED: BRANCH   8  10
DOCKED: ATOM     10  N   UNL     1      19.959 -11.256  -6.197 -0.35 -0.00    +0.000 N 
DOCKED: ATOM     11  H   UNL     1      19.851 -11.948  -6.890 -0.24 -0.00    +0.000 HD
DOCKED: BRANCH  10  12
DOCKED: ATOM     12  C   UNL     1      18.796 -10.512  -5.795 -0.29 -0.00    +0.000 A 
DOCKED: ATOM     13  C   UNL     1      18.822  -9.112  -5.647 -0.15 -0.00    +0.000 A 
DOCKED: ATOM     14  C   UNL     1      17.668  -8.421  -5.264 -0.14 -0.00    +0.000 A 
DOCKED: ATOM     15  C   UNL     1      16.482  -9.116  -5.019 -0.15 -0.00    +0.000 A 
DOCKED: ATOM     16  C   UNL     1      16.448 -10.506  -5.153 -0.22 -0.00    +0.000 A 
DOCKED: ATOM     17  C   UNL     1      17.599 -11.201  -5.537 -0.25 -0.00    +0.000 A 
DOCKED: ENDBRANCH  10  12
DOCKED: ENDBRANCH   8  10
DOCKED: ENDBRANCH   1   8
DOCKED: BRANCH   3  18
DOCKED: ATOM     18  C   UNL     1      21.270 -10.688  -0.269 -0.67 -0.00    +0.000 C 
DOCKED: ATOM     19  C   UNL     1      20.304 -10.474   0.638 -0.66 -0.00    +0.000 C 
DOCKED: BRANCH  19  20
DOCKED: ATOM     20  C   UNL     1      20.268 -11.136   1.958 -0.75 -0.00    +0.000 C 
DOCKED: ATOM     21  N   UNL     1      20.197 -10.398   3.185 -0.64 -0.00    +0.000 N 
DOCKED: ATOM     22  O   UNL     1      20.271 -11.045   4.371 -0.97 -0.00    +0.000 OA
DOCKED: ATOM     23  O   UNL     1      20.275 -12.395   1.999 -1.86 -0.00    +0.000 OA
DOCKED: ATOM     24  H   UNL     1      20.093  -9.419   3.164 -0.58 -0.00    +0.000 HD
DOCKED: ENDBRANCH  19  20
DOCKED: ENDBRANCH   3  18
DOCKED: TORSDOF 5
DOCKED: TER
DOCKED: ENDMDL
________________________________________________________________________________


	BEGINNING GENETIC ALGORITHM DOCKING 63 of 100
Run: 63 Seed: 612158141 1513987763 [ Run 63 of 100 GA/GALS ]
Beginning LAMARCKIAN GENETIC ALGORITHM (LGA), with a maximum of 2500000 energy evaluations.

Final-Value: -13.197


	FINAL GENETIC ALGORITHM DOCKED STATE
	_______________________________________________


Detailed state:  trans 21.210 -11.503 -2.279 quatxyzw -0.464287 -0.376282 -0.795994 0.096137 center 0.217 0.012 -0.211 ntor 5 -85.2082 97.0813 79.7812 -4.9438 165.1728
State:	 21.210 -11.503  -2.279  -0.466 -0.378 -0.800 168.967    -85.21   97.08   79.78   -4.94  165.17

DOCKED: MODEL       63
DOCKED: USER    Run = 63
DOCKED: USER    DPF = ligand_dock.biased.dpf
DOCKED: USER  
DOCKED: USER    Estimated Free Energy of Binding    =  -10.53 kcal/mol  [=(1)+(2)+(3)-(4)]
DOCKED: USER    Estimated Inhibition Constant, Ki   =   19.06 nM (nanomolar)  [Temperature = 298.15 K]
DOCKED: USER    
DOCKED: USER    (1) Final Intermolecular Energy     =  -12.02 kcal/mol
DOCKED: USER        vdW + Hbond + desolv Energy     =  -12.02 kcal/mol
DOCKED: USER        Electrostatic Energy            =   +0.00 kcal/mol
DOCKED: USER    (2) Final Total Internal Energy     =   -1.17 kcal/mol
DOCKED: USER    (3) Torsional Free Energy           =   +1.49 kcal/mol
DOCKED: USER    (4) Unbound System's Energy  [=(2)] =   -1.17 kcal/mol
DOCKED: USER    
DOCKED: USER    
DOCKED: USER    NEWDPF move ligand.pdbqt
DOCKED: USER    NEWDPF about 0.217000 0.012000 -0.211000
DOCKED: USER    NEWDPF tran0 21.209691 -11.503027 -2.279171
DOCKED: USER    NEWDPF quaternion0 -0.464287 -0.376282 -0.795994 0.096137
DOCKED: USER    NEWDPF axisangle0 -0.466448 -0.378033 -0.799698 168.966508
DOCKED: USER    NEWDPF quat0 -0.466448 -0.378033 -0.799698 168.966508
DOCKED: USER    NEWDPF dihe0 -85.21 97.08 79.78 -4.94 165.17 
DOCKED: USER  keepresnum = 1 
DOCKED: USER  
DOCKED: REMARK  Name = 
DOCKED: REMARK  5 active torsions:
DOCKED: REMARK  status: ('A' for Active; 'I' for Inactive)
DOCKED: REMARK    1  A    between atoms: S_2  and  N_3
DOCKED: REMARK    2  A    between atoms: S_2  and  C_10
DOCKED: REMARK    3  A    between atoms: N_3  and  C_4
DOCKED: REMARK    4  A    between atoms: C_12  and  C_13
DOCKED: REMARK    5  A    between atoms: C_14  and  C_15
DOCKED: REMARK                            x       y       z     vdW  Elec       q    Type
DOCKED: REMARK                         _______ _______ _______ _____ _____    ______ ____
DOCKED: USER                              x       y       z     vdW  Elec       q    Type
DOCKED: USER                           _______ _______ _______ _____ _____    ______ ____
DOCKED: ROOT
DOCKED: ATOM      1  C   UNL     1      21.046 -10.325  -4.108 -0.43 -0.00    +0.000 A 
DOCKED: ATOM      2  C   UNL     1      20.635 -10.714  -2.825 -0.42 -0.00    +0.000 A 
DOCKED: ATOM      3  C   UNL     1      20.617  -9.783  -1.765 -0.51 -0.00    +0.000 A 
DOCKED: ATOM      4  C   UNL     1      21.033  -8.465  -2.015 -0.44 -0.00    +0.000 A 
DOCKED: ATOM      5  C   UNL     1      21.433  -8.075  -3.296 -0.35 -0.00    +0.000 A 
DOCKED: ATOM      6  C   UNL     1      21.435  -9.000  -4.341 -0.32 -0.00    +0.000 A 
DOCKED: ENDROOT
DOCKED: BRANCH   1   8
DOCKED: ATOM      7  O   UNL     1      20.399 -12.776  -5.004 -0.76 -0.00    +0.000 OA
DOCKED: ATOM      8  S   UNL     1      21.084 -11.504  -5.417 -0.62 -0.00    +0.000 S 
DOCKED: ATOM      9  O   UNL     1      22.516 -11.804  -5.752 -0.65 -0.00    +0.000 OA
DOCKED: BRANCH   8  10
DOCKED: ATOM     10  N   UNL     1      20.290 -10.863  -6.822 -0.31 -0.00    +0.000 N 
DOCKED: ATOM     11  H   UNL     1      20.804 -10.811  -7.659 -0.06 -0.00    +0.000 HD
DOCKED: BRANCH  10  12
DOCKED: ATOM     12  C   UNL     1      18.926 -10.405  -6.835 -0.27 -0.00    +0.000 A 
DOCKED: ATOM     13  C   UNL     1      18.577  -9.096  -6.450 -0.12 -0.00    +0.000 A 
DOCKED: ATOM     14  C   UNL     1      17.241  -8.682  -6.485 -0.09 -0.00    +0.000 A 
DOCKED: ATOM     15  C   UNL     1      16.243  -9.567  -6.897 -0.11 -0.00    +0.000 A 
DOCKED: ATOM     16  C   UNL     1      16.578 -10.870  -7.273 -0.26 -0.00    +0.000 A 
DOCKED: ATOM     17  C   UNL     1      17.911 -11.288  -7.240 -0.33 -0.00    +0.000 A 
DOCKED: ENDBRANCH  10  12
DOCKED: ENDBRANCH   8  10
DOCKED: ENDBRANCH   1   8
DOCKED: BRANCH   3  18
DOCKED: ATOM     18  C   UNL     1      20.215 -10.150  -0.385 -0.59 -0.00    +0.000 C 
DOCKED: ATOM     19  C   UNL     1      20.806 -11.121   0.330 -0.64 -0.00    +0.000 C 
DOCKED: BRANCH  19  20
DOCKED: ATOM     20  C   UNL     1      20.402 -11.479   1.705 -0.77 -0.00    +0.000 C 
DOCKED: ATOM     21  N   UNL     1      20.589 -10.593   2.815 -0.63 -0.00    +0.000 N 
DOCKED: ATOM     22  O   UNL     1      20.299 -11.008   4.070 -1.11 -0.00    +0.000 OA
DOCKED: ATOM     23  O   UNL     1      19.851 -12.596   1.896 -1.68 -0.00    +0.000 OA
DOCKED: ATOM     24  H   UNL     1      20.929  -9.681   2.664 -0.58 -0.00    +0.000 HD
DOCKED: ENDBRANCH  19  20
DOCKED: ENDBRANCH   3  18
DOCKED: TORSDOF 5
DOCKED: TER
DOCKED: ENDMDL
________________________________________________________________________________


	BEGINNING GENETIC ALGORITHM DOCKING 64 of 100
Run: 64 Seed: 1164082693 1259903892 [ Run 64 of 100 GA/GALS ]
Beginning LAMARCKIAN GENETIC ALGORITHM (LGA), with a maximum of 2500000 energy evaluations.

Final-Value: -12.213


	FINAL GENETIC ALGORITHM DOCKED STATE
	_______________________________________________


Detailed state:  trans 15.610 -9.259 4.237 quatxyzw 0.851290 -0.010671 -0.431790 -0.297907 center 0.217 0.012 -0.211 ntor 5 -172.4525 -137.7418 -61.6712 126.8720 116.8677
State:	 15.610  -9.259   4.237   0.892 -0.011 -0.452 -145.336   -172.45 -137.74  -61.67  126.87  116.87

DOCKED: MODEL       64
DOCKED: USER    Run = 64
DOCKED: USER    DPF = ligand_dock.biased.dpf
DOCKED: USER  
DOCKED: USER    Estimated Free Energy of Binding    =   -9.68 kcal/mol  [=(1)+(2)+(3)-(4)]
DOCKED: USER    Estimated Inhibition Constant, Ki   =   79.69 nM (nanomolar)  [Temperature = 298.15 K]
DOCKED: USER    
DOCKED: USER    (1) Final Intermolecular Energy     =  -11.18 kcal/mol
DOCKED: USER        vdW + Hbond + desolv Energy     =  -11.18 kcal/mol
DOCKED: USER        Electrostatic Energy            =   +0.00 kcal/mol
DOCKED: USER    (2) Final Total Internal Energy     =   -1.04 kcal/mol
DOCKED: USER    (3) Torsional Free Energy           =   +1.49 kcal/mol
DOCKED: USER    (4) Unbound System's Energy  [=(2)] =   -1.04 kcal/mol
DOCKED: USER    
DOCKED: USER    
DOCKED: USER    NEWDPF move ligand.pdbqt
DOCKED: USER    NEWDPF about 0.217000 0.012000 -0.211000
DOCKED: USER    NEWDPF tran0 15.609616 -9.258630 4.236669
DOCKED: USER    NEWDPF quaternion0 0.851290 -0.010671 -0.431790 -0.297907
DOCKED: USER    NEWDPF axisangle0 0.891781 -0.011178 -0.452328 -145.336106
DOCKED: USER    NEWDPF quat0 0.891781 -0.011178 -0.452328 -145.336106
DOCKED: USER    NEWDPF dihe0 -172.45 -137.74 -61.67 126.87 116.87 
DOCKED: USER  keepresnum = 1 
DOCKED: USER  
DOCKED: REMARK  Name = 
DOCKED: REMARK  5 active torsions:
DOCKED: REMARK  status: ('A' for Active; 'I' for Inactive)
DOCKED: REMARK    1  A    between atoms: S_2  and  N_3
DOCKED: REMARK    2  A    between atoms: S_2  and  C_10
DOCKED: REMARK    3  A    between atoms: N_3  and  C_4
DOCKED: REMARK    4  A    between atoms: C_12  and  C_13
DOCKED: REMARK    5  A    between atoms: C_14  and  C_15
DOCKED: REMARK                            x       y       z     vdW  Elec       q    Type
DOCKED: REMARK                         _______ _______ _______ _____ _____    ______ ____
DOCKED: USER                              x       y       z     vdW  Elec       q    Type
DOCKED: USER                           _______ _______ _______ _____ _____    ______ ____
DOCKED: ROOT
DOCKED: ATOM      1  C   UNL     1      14.808  -7.345   3.561 -0.30 +0.00    +0.000 A 
DOCKED: ATOM      2  C   UNL     1      15.743  -8.390   3.544 -0.31 +0.00    +0.000 A 
DOCKED: ATOM      3  C   UNL     1      15.937  -9.159   2.377 -0.31 +0.00    +0.000 A 
DOCKED: ATOM      4  C   UNL     1      15.168  -8.869   1.240 -0.24 +0.00    +0.000 A 
DOCKED: ATOM      5  C   UNL     1      14.244  -7.820   1.253 -0.22 +0.00    +0.000 A 
DOCKED: ATOM      6  C   UNL     1      14.067  -7.058   2.408 -0.20 +0.00    +0.000 A 
DOCKED: ENDROOT
DOCKED: BRANCH   1   8
DOCKED: ATOM      7  O   UNL     1      14.641  -7.293   6.244 -0.49 +0.00    +0.000 OA
DOCKED: ATOM      8  S   UNL     1      14.560  -6.408   5.032 -0.56 +0.00    +0.000 S 
DOCKED: ATOM      9  O   UNL     1      13.199  -5.776   4.976 -0.40 +0.00    +0.000 OA
DOCKED: BRANCH   8  10
DOCKED: ATOM     10  N   UNL     1      15.764  -5.163   5.159 -0.48 +0.00    +0.000 N 
DOCKED: ATOM     11  H   UNL     1      16.488  -5.286   5.814 -0.59 -0.00    +0.000 HD
DOCKED: BRANCH  10  12
DOCKED: ATOM     12  C   UNL     1      15.765  -3.963   4.365 -0.43 -0.00    +0.000 A 
DOCKED: ATOM     13  C   UNL     1      16.959  -3.306   4.010 -0.39 -0.00    +0.000 A 
DOCKED: ATOM     14  C   UNL     1      16.922  -2.147   3.228 -0.42 -0.00    +0.000 A 
DOCKED: ATOM     15  C   UNL     1      15.698  -1.628   2.800 -0.24 -0.00    +0.000 A 
DOCKED: ATOM     16  C   UNL     1      14.508  -2.267   3.155 -0.32 -0.00    +0.000 A 
DOCKED: ATOM     17  C   UNL     1      14.540  -3.426   3.935 -0.32 -0.00    +0.000 A 
DOCKED: ENDBRANCH  10  12
DOCKED: ENDBRANCH   8  10
DOCKED: ENDBRANCH   1   8
DOCKED: BRANCH   3  18
DOCKED: ATOM     18  C   UNL     1      16.895 -10.290   2.316 -0.46 +0.00    +0.000 C 
DOCKED: ATOM     19  C   UNL     1      18.205 -10.145   2.063 -0.48 -0.00    +0.000 C 
DOCKED: BRANCH  19  20
DOCKED: ATOM     20  C   UNL     1      19.153 -11.277   2.006 -0.66 -0.00    +0.000 C 
DOCKED: ATOM     21  N   UNL     1      20.553 -11.119   2.266 -0.68 -0.00    +0.000 N 
DOCKED: ATOM     22  O   UNL     1      21.396 -12.164   2.099 -1.32 -0.00    +0.000 OA
DOCKED: ATOM     23  O   UNL     1      18.703 -12.424   1.742 -0.99 -0.00    +0.000 OA
DOCKED: ATOM     24  H   UNL     1      20.902 -10.248   2.567 -0.37 -0.00    +0.000 HD
DOCKED: ENDBRANCH  19  20
DOCKED: ENDBRANCH   3  18
DOCKED: TORSDOF 5
DOCKED: TER
DOCKED: ENDMDL
________________________________________________________________________________


	BEGINNING GENETIC ALGORITHM DOCKING 65 of 100
Run: 65 Seed: 1761455715 1972893252 [ Run 65 of 100 GA/GALS ]
Beginning LAMARCKIAN GENETIC ALGORITHM (LGA), with a maximum of 2500000 energy evaluations.

Final-Value: -13.227


	FINAL GENETIC ALGORITHM DOCKED STATE
	_______________________________________________


Detailed state:  trans 18.423 -11.107 -1.207 quatxyzw 0.658029 -0.365662 -0.374720 0.541178 center 0.217 0.012 -0.211 ntor 5 -9.6601 153.2943 -133.1893 -12.4335 29.5210
State:	 18.423 -11.107  -1.207   0.783 -0.435 -0.446 114.472     -9.66  153.29 -133.19  -12.43   29.52

DOCKED: MODEL       65
DOCKED: USER    Run = 65
DOCKED: USER    DPF = ligand_dock.biased.dpf
DOCKED: USER  
DOCKED: USER    Estimated Free Energy of Binding    =  -10.52 kcal/mol  [=(1)+(2)+(3)-(4)]
DOCKED: USER    Estimated Inhibition Constant, Ki   =   19.57 nM (nanomolar)  [Temperature = 298.15 K]
DOCKED: USER    
DOCKED: USER    (1) Final Intermolecular Energy     =  -12.01 kcal/mol
DOCKED: USER        vdW + Hbond + desolv Energy     =  -12.01 kcal/mol
DOCKED: USER        Electrostatic Energy            =   +0.00 kcal/mol
DOCKED: USER    (2) Final Total Internal Energy     =   -1.22 kcal/mol
DOCKED: USER    (3) Torsional Free Energy           =   +1.49 kcal/mol
DOCKED: USER    (4) Unbound System's Energy  [=(2)] =   -1.22 kcal/mol
DOCKED: USER    
DOCKED: USER    
DOCKED: USER    NEWDPF move ligand.pdbqt
DOCKED: USER    NEWDPF about 0.217000 0.012000 -0.211000
DOCKED: USER    NEWDPF tran0 18.423146 -11.106663 -1.206899
DOCKED: USER    NEWDPF quaternion0 0.658029 -0.365662 -0.374720 0.541178
DOCKED: USER    NEWDPF axisangle0 0.782522 -0.434842 -0.445614 114.472243
DOCKED: USER    NEWDPF quat0 0.782522 -0.434842 -0.445614 114.472243
DOCKED: USER    NEWDPF dihe0 -9.66 153.29 -133.19 -12.43 29.52 
DOCKED: USER  keepresnum = 1 
DOCKED: USER  
DOCKED: REMARK  Name = 
DOCKED: REMARK  5 active torsions:
DOCKED: REMARK  status: ('A' for Active; 'I' for Inactive)
DOCKED: REMARK    1  A    between atoms: S_2  and  N_3
DOCKED: REMARK    2  A    between atoms: S_2  and  C_10
DOCKED: REMARK    3  A    between atoms: N_3  and  C_4
DOCKED: REMARK    4  A    between atoms: C_12  and  C_13
DOCKED: REMARK    5  A    between atoms: C_14  and  C_15
DOCKED: REMARK                            x       y       z     vdW  Elec       q    Type
DOCKED: REMARK                         _______ _______ _______ _____ _____    ______ ____
DOCKED: USER                              x       y       z     vdW  Elec       q    Type
DOCKED: USER                           _______ _______ _______ _____ _____    ______ ____
DOCKED: ROOT
DOCKED: ATOM      1  C   UNL     1      20.061 -10.810   0.204 -0.56 -0.00    +0.000 A 
DOCKED: ATOM      2  C   UNL     1      19.525 -11.197  -1.032 -0.37 -0.00    +0.000 A 
DOCKED: ATOM      3  C   UNL     1      19.918 -10.546  -2.220 -0.43 -0.00    +0.000 A 
DOCKED: ATOM      4  C   UNL     1      20.843  -9.492  -2.140 -0.49 -0.00    +0.000 A 
DOCKED: ATOM      5  C   UNL     1      21.385  -9.113  -0.909 -0.53 -0.00    +0.000 A 
DOCKED: ATOM      6  C   UNL     1      20.999  -9.772   0.260 -0.58 -0.00    +0.000 A 
DOCKED: ENDROOT
DOCKED: BRANCH   1   8
DOCKED: ATOM      7  O   UNL     1      19.034 -10.619   2.682 -0.71 -0.00    +0.000 OA
DOCKED: ATOM      8  S   UNL     1      19.543 -11.618   1.682 -0.88 -0.00    +0.000 S 
DOCKED: ATOM      9  O   UNL     1      20.719 -12.345   2.269 -1.77 -0.00    +0.000 OA
DOCKED: BRANCH   8  10
DOCKED: ATOM     10  N   UNL     1      18.283 -12.760   1.329 -0.47 +0.00    +0.000 N 
DOCKED: ATOM     11  H   UNL     1      18.472 -13.715   1.475 -0.33 -0.00    +0.000 HD
DOCKED: BRANCH  10  12
DOCKED: ATOM     12  C   UNL     1      16.982 -12.393   0.838 -0.44 +0.00    +0.000 A 
DOCKED: ATOM     13  C   UNL     1      16.309 -13.161  -0.133 -0.48 +0.00    +0.000 A 
DOCKED: ATOM     14  C   UNL     1      15.040 -12.779  -0.580 -0.47 +0.00    +0.000 A 
DOCKED: ATOM     15  C   UNL     1      14.433 -11.629  -0.071 -0.37 +0.00    +0.000 A 
DOCKED: ATOM     16  C   UNL     1      15.095 -10.857   0.886 -0.29 +0.00    +0.000 A 
DOCKED: ATOM     17  C   UNL     1      16.363 -11.234   1.336 -0.37 +0.00    +0.000 A 
DOCKED: ENDBRANCH  10  12
DOCKED: ENDBRANCH   8  10
DOCKED: ENDBRANCH   1   8
DOCKED: BRANCH   3  18
DOCKED: ATOM     18  C   UNL     1      19.361 -10.901  -3.549 -0.43 -0.00    +0.000 C 
DOCKED: ATOM     19  C   UNL     1      19.996 -10.669  -4.708 -0.43 -0.00    +0.000 C 
DOCKED: BRANCH  19  20
DOCKED: ATOM     20  C   UNL     1      19.436 -11.028  -6.028 -0.39 -0.00    +0.000 C 
DOCKED: ATOM     21  N   UNL     1      18.092 -11.498  -6.189 -0.38 -0.00    +0.000 N 
DOCKED: ATOM     22  O   UNL     1      17.660 -11.913  -7.402 -0.45 -0.00    +0.000 OA
DOCKED: ATOM     23  O   UNL     1      20.164 -10.888  -7.047 -0.35 -0.00    +0.000 OA
DOCKED: ATOM     24  H   UNL     1      17.483 -11.520  -5.416 -0.03 -0.00    +0.000 HD
DOCKED: ENDBRANCH  19  20
DOCKED: ENDBRANCH   3  18
DOCKED: TORSDOF 5
DOCKED: TER
DOCKED: ENDMDL
________________________________________________________________________________


	BEGINNING GENETIC ALGORITHM DOCKING 66 of 100
Run: 66 Seed: 1187847834 111217722 [ Run 66 of 100 GA/GALS ]
Beginning LAMARCKIAN GENETIC ALGORITHM (LGA), with a maximum of 2500000 energy evaluations.

Final-Value: -13.568


	FINAL GENETIC ALGORITHM DOCKED STATE
	_______________________________________________


Detailed state:  trans 21.479 -11.459 -2.574 quatxyzw -0.473684 -0.269685 -0.838212 -0.017168 center 0.217 0.012 -0.211 ntor 5 168.2215 -45.6212 -168.9799 121.3061 74.5592
State:	 21.479 -11.459  -2.574  -0.474 -0.270 -0.838 -178.033    168.22  -45.62 -168.98  121.31   74.56

DOCKED: MODEL       66
DOCKED: USER    Run = 66
DOCKED: USER    DPF = ligand_dock.biased.dpf
DOCKED: USER  
DOCKED: USER    Estimated Free Energy of Binding    =  -10.93 kcal/mol  [=(1)+(2)+(3)-(4)]
DOCKED: USER    Estimated Inhibition Constant, Ki   =    9.67 nM (nanomolar)  [Temperature = 298.15 K]
DOCKED: USER    
DOCKED: USER    (1) Final Intermolecular Energy     =  -12.43 kcal/mol
DOCKED: USER        vdW + Hbond + desolv Energy     =  -12.43 kcal/mol
DOCKED: USER        Electrostatic Energy            =   +0.00 kcal/mol
DOCKED: USER    (2) Final Total Internal Energy     =   -1.14 kcal/mol
DOCKED: USER    (3) Torsional Free Energy           =   +1.49 kcal/mol
DOCKED: USER    (4) Unbound System's Energy  [=(2)] =   -1.14 kcal/mol
DOCKED: USER    
DOCKED: USER    
DOCKED: USER    NEWDPF move ligand.pdbqt
DOCKED: USER    NEWDPF about 0.217000 0.012000 -0.211000
DOCKED: USER    NEWDPF tran0 21.478993 -11.458533 -2.573544
DOCKED: USER    NEWDPF quaternion0 -0.473684 -0.269685 -0.838212 -0.017168
DOCKED: USER    NEWDPF axisangle0 -0.473754 -0.269725 -0.838335 -178.032567
DOCKED: USER    NEWDPF quat0 -0.473754 -0.269725 -0.838335 -178.032567
DOCKED: USER    NEWDPF dihe0 168.22 -45.62 -168.98 121.31 74.56 
DOCKED: USER  keepresnum = 1 
DOCKED: USER  
DOCKED: REMARK  Name = 
DOCKED: REMARK  5 active torsions:
DOCKED: REMARK  status: ('A' for Active; 'I' for Inactive)
DOCKED: REMARK    1  A    between atoms: S_2  and  N_3
DOCKED: REMARK    2  A    between atoms: S_2  and  C_10
DOCKED: REMARK    3  A    between atoms: N_3  and  C_4
DOCKED: REMARK    4  A    between atoms: C_12  and  C_13
DOCKED: REMARK    5  A    between atoms: C_14  and  C_15
DOCKED: REMARK                            x       y       z     vdW  Elec       q    Type
DOCKED: REMARK                         _______ _______ _______ _____ _____    ______ ____
DOCKED: USER                              x       y       z     vdW  Elec       q    Type
DOCKED: USER                           _______ _______ _______ _____ _____    ______ ____
DOCKED: ROOT
DOCKED: ATOM      1  C   UNL     1      21.131  -9.801  -3.949 -0.41 -0.00    +0.000 A 
DOCKED: ATOM      2  C   UNL     1      20.819 -10.594  -2.836 -0.45 -0.00    +0.000 A 
DOCKED: ATOM      3  C   UNL     1      20.787 -10.033  -1.542 -0.54 -0.00    +0.000 A 
DOCKED: ATOM      4  C   UNL     1      21.089  -8.671  -1.387 -0.48 -0.00    +0.000 A 
DOCKED: ATOM      5  C   UNL     1      21.390  -7.878  -2.497 -0.41 -0.00    +0.000 A 
DOCKED: ATOM      6  C   UNL     1      21.407  -8.439  -3.775 -0.34 -0.00    +0.000 A 
DOCKED: ENDROOT
DOCKED: BRANCH   1   8
DOCKED: ATOM      7  O   UNL     1      22.491 -11.238  -5.769 -0.52 -0.00    +0.000 OA
DOCKED: ATOM      8  S   UNL     1      21.188 -10.520  -5.556 -0.53 -0.00    +0.000 S 
DOCKED: ATOM      9  O   UNL     1      21.058  -9.427  -6.577 -0.21 -0.00    +0.000 OA
DOCKED: BRANCH   8  10
DOCKED: ATOM     10  N   UNL     1      19.882 -11.646  -5.754 -0.41 -0.00    +0.000 N 
DOCKED: ATOM     11  H   UNL     1      20.103 -12.604  -5.816 -0.54 -0.00    +0.000 HD
DOCKED: BRANCH  10  12
DOCKED: ATOM     12  C   UNL     1      18.497 -11.265  -5.835 -0.35 -0.00    +0.000 A 
DOCKED: ATOM     13  C   UNL     1      17.865 -10.536  -4.808 -0.25 -0.00    +0.000 A 
DOCKED: ATOM     14  C   UNL     1      16.519 -10.173  -4.926 -0.20 -0.00    +0.000 A 
DOCKED: ATOM     15  C   UNL     1      15.790 -10.538  -6.059 -0.20 -0.00    +0.000 A 
DOCKED: ATOM     16  C   UNL     1      16.405 -11.269  -7.078 -0.30 -0.00    +0.000 A 
DOCKED: ATOM     17  C   UNL     1      17.750 -11.633  -6.966 -0.31 -0.00    +0.000 A 
DOCKED: ENDBRANCH  10  12
DOCKED: ENDBRANCH   8  10
DOCKED: ENDBRANCH   1   8
DOCKED: BRANCH   3  18
DOCKED: ATOM     18  C   UNL     1      20.487 -10.835  -0.330 -0.62 -0.00    +0.000 C 
DOCKED: ATOM     19  C   UNL     1      20.671 -10.390   0.923 -0.65 -0.00    +0.000 C 
DOCKED: BRANCH  19  20
DOCKED: ATOM     20  C   UNL     1      20.368 -11.194   2.125 -0.75 -0.00    +0.000 C 
DOCKED: ATOM     21  N   UNL     1      20.450 -10.654   3.449 -0.68 -0.00    +0.000 N 
DOCKED: ATOM     22  O   UNL     1      20.265 -11.458   4.522 -0.90 -0.00    +0.000 OA
DOCKED: ATOM     23  O   UNL     1      20.000 -12.389   1.971 -1.82 -0.00    +0.000 OA
DOCKED: ATOM     24  H   UNL     1      20.642  -9.696   3.579 -0.56 -0.00    +0.000 HD
DOCKED: ENDBRANCH  19  20
DOCKED: ENDBRANCH   3  18
DOCKED: TORSDOF 5
DOCKED: TER
DOCKED: ENDMDL
________________________________________________________________________________


	BEGINNING GENETIC ALGORITHM DOCKING 67 of 100
Run: 67 Seed: 444394647 2106988028 [ Run 67 of 100 GA/GALS ]
Beginning LAMARCKIAN GENETIC ALGORITHM (LGA), with a maximum of 2500000 energy evaluations.

Final-Value: -12.990


	FINAL GENETIC ALGORITHM DOCKED STATE
	_______________________________________________


Detailed state:  trans 18.284 -10.418 -0.452 quatxyzw 0.556307 -0.528706 -0.333995 0.547210 center 0.217 0.012 -0.211 ntor 5 173.0789 -164.6608 -114.6248 119.5065 -13.7331
State:	 18.284 -10.418  -0.452   0.665 -0.632 -0.399 113.648    173.08 -164.66 -114.62  119.51  -13.73

DOCKED: MODEL       67
DOCKED: USER    Run = 67
DOCKED: USER    DPF = ligand_dock.biased.dpf
DOCKED: USER  
DOCKED: USER    Estimated Free Energy of Binding    =  -10.43 kcal/mol  [=(1)+(2)+(3)-(4)]
DOCKED: USER    Estimated Inhibition Constant, Ki   =   22.77 nM (nanomolar)  [Temperature = 298.15 K]
DOCKED: USER    
DOCKED: USER    (1) Final Intermolecular Energy     =  -11.92 kcal/mol
DOCKED: USER        vdW + Hbond + desolv Energy     =  -11.92 kcal/mol
DOCKED: USER        Electrostatic Energy            =   +0.00 kcal/mol
DOCKED: USER    (2) Final Total Internal Energy     =   -1.07 kcal/mol
DOCKED: USER    (3) Torsional Free Energy           =   +1.49 kcal/mol
DOCKED: USER    (4) Unbound System's Energy  [=(2)] =   -1.07 kcal/mol
DOCKED: USER    
DOCKED: USER    
DOCKED: USER    NEWDPF move ligand.pdbqt
DOCKED: USER    NEWDPF about 0.217000 0.012000 -0.211000
DOCKED: USER    NEWDPF tran0 18.284105 -10.417697 -0.451562
DOCKED: USER    NEWDPF quaternion0 0.556307 -0.528706 -0.333995 0.547210
DOCKED: USER    NEWDPF axisangle0 0.664648 -0.631672 -0.399041 113.648387
DOCKED: USER    NEWDPF quat0 0.664648 -0.631672 -0.399041 113.648387
DOCKED: USER    NEWDPF dihe0 173.08 -164.66 -114.62 119.51 -13.73 
DOCKED: USER  keepresnum = 1 
DOCKED: USER  
DOCKED: REMARK  Name = 
DOCKED: REMARK  5 active torsions:
DOCKED: REMARK  status: ('A' for Active; 'I' for Inactive)
DOCKED: REMARK    1  A    between atoms: S_2  and  N_3
DOCKED: REMARK    2  A    between atoms: S_2  and  C_10
DOCKED: REMARK    3  A    between atoms: N_3  and  C_4
DOCKED: REMARK    4  A    between atoms: C_12  and  C_13
DOCKED: REMARK    5  A    between atoms: C_14  and  C_15
DOCKED: REMARK                            x       y       z     vdW  Elec       q    Type
DOCKED: REMARK                         _______ _______ _______ _____ _____    ______ ____
DOCKED: USER                              x       y       z     vdW  Elec       q    Type
DOCKED: USER                           _______ _______ _______ _____ _____    ______ ____
DOCKED: ROOT
DOCKED: ATOM      1  C   UNL     1      20.172 -10.685   0.609 -0.58 -0.00    +0.000 A 
DOCKED: ATOM      2  C   UNL     1      19.307 -10.871  -0.478 -0.46 -0.00    +0.000 A 
DOCKED: ATOM      3  C   UNL     1      19.650 -10.389  -1.758 -0.40 -0.00    +0.000 A 
DOCKED: ATOM      4  C   UNL     1      20.866  -9.706  -1.921 -0.52 -0.00    +0.000 A 
DOCKED: ATOM      5  C   UNL     1      21.733  -9.529  -0.839 -0.35 -0.00    +0.000 A 
DOCKED: ATOM      6  C   UNL     1      21.390 -10.020   0.421 -0.47 -0.00    +0.000 A 
DOCKED: ENDROOT
DOCKED: BRANCH   1   8
DOCKED: ATOM      7  O   UNL     1      20.644 -10.722   3.256 -1.20 -0.00    +0.000 OA
DOCKED: ATOM      8  S   UNL     1      19.720 -11.273   2.207 -0.90 -0.00    +0.000 S 
DOCKED: ATOM      9  O   UNL     1      19.811 -12.772   2.211 -1.53 -0.00    +0.000 OA
DOCKED: BRANCH   8  10
DOCKED: ATOM     10  N   UNL     1      18.092 -10.798   2.580 -0.49 -0.00    +0.000 N 
DOCKED: ATOM     11  H   UNL     1      17.956 -10.149   3.308 -0.02 +0.00    +0.000 HD
DOCKED: BRANCH  10  12
DOCKED: ATOM     12  C   UNL     1      16.931 -11.297   1.891 -0.39 +0.00    +0.000 A 
DOCKED: ATOM     13  C   UNL     1      15.635 -10.831   2.184 -0.38 +0.00    +0.000 A 
DOCKED: ATOM     14  C   UNL     1      14.531 -11.332   1.486 -0.38 +0.00    +0.000 A 
DOCKED: ATOM     15  C   UNL     1      14.706 -12.303   0.498 -0.44 +0.00    +0.000 A 
DOCKED: ATOM     16  C   UNL     1      15.987 -12.778   0.207 -0.47 +0.00    +0.000 A 
DOCKED: ATOM     17  C   UNL     1      17.093 -12.280   0.901 -0.44 +0.00    +0.000 A 
DOCKED: ENDBRANCH  10  12
DOCKED: ENDBRANCH   8  10
DOCKED: ENDBRANCH   1   8
DOCKED: BRANCH   3  18
DOCKED: ATOM     18  C   UNL     1      18.758 -10.538  -2.935 -0.37 -0.00    +0.000 C 
DOCKED: ATOM     19  C   UNL     1      19.189 -10.889  -4.157 -0.41 -0.00    +0.000 C 
DOCKED: BRANCH  19  20
DOCKED: ATOM     20  C   UNL     1      18.294 -11.038  -5.323 -0.34 -0.00    +0.000 C 
DOCKED: ATOM     21  N   UNL     1      18.729 -11.631  -6.553 -0.36 -0.00    +0.000 N 
DOCKED: ATOM     22  O   UNL     1      17.904 -11.649  -7.625 -0.42 -0.00    +0.000 OA
DOCKED: ATOM     23  O   UNL     1      17.099 -10.651  -5.216 -0.28 -0.00    +0.000 OA
DOCKED: ATOM     24  H   UNL     1      19.629 -12.024  -6.618 -0.30 -0.00    +0.000 HD
DOCKED: ENDBRANCH  19  20
DOCKED: ENDBRANCH   3  18
DOCKED: TORSDOF 5
DOCKED: TER
DOCKED: ENDMDL
________________________________________________________________________________


	BEGINNING GENETIC ALGORITHM DOCKING 68 of 100
Run: 68 Seed: 896178907 758351458 [ Run 68 of 100 GA/GALS ]
Beginning LAMARCKIAN GENETIC ALGORITHM (LGA), with a maximum of 2500000 energy evaluations.

Final-Value: -14.475


	FINAL GENETIC ALGORITHM DOCKED STATE
	_______________________________________________


Detailed state:  trans 17.560 -9.213 2.869 quatxyzw 0.027715 -0.962080 -0.120239 -0.243262 center 0.217 0.012 -0.211 ntor 5 141.0225 -145.2370 62.3377 -13.5153 -52.3898
State:	 17.560  -9.213   2.869   0.029 -0.992 -0.124 -151.842    141.02 -145.24   62.34  -13.52  -52.39

DOCKED: MODEL       68
DOCKED: USER    Run = 68
DOCKED: USER    DPF = ligand_dock.biased.dpf
DOCKED: USER  
DOCKED: USER    Estimated Free Energy of Binding    =  -11.92 kcal/mol  [=(1)+(2)+(3)-(4)]
DOCKED: USER    Estimated Inhibition Constant, Ki   =    1.84 nM (nanomolar)  [Temperature = 298.15 K]
DOCKED: USER    
DOCKED: USER    (1) Final Intermolecular Energy     =  -13.41 kcal/mol
DOCKED: USER        vdW + Hbond + desolv Energy     =  -13.41 kcal/mol
DOCKED: USER        Electrostatic Energy            =   +0.00 kcal/mol
DOCKED: USER    (2) Final Total Internal Energy     =   -1.07 kcal/mol
DOCKED: USER    (3) Torsional Free Energy           =   +1.49 kcal/mol
DOCKED: USER    (4) Unbound System's Energy  [=(2)] =   -1.07 kcal/mol
DOCKED: USER    
DOCKED: USER    
DOCKED: USER    NEWDPF move ligand.pdbqt
DOCKED: USER    NEWDPF about 0.217000 0.012000 -0.211000
DOCKED: USER    NEWDPF tran0 17.560155 -9.212936 2.869031
DOCKED: USER    NEWDPF quaternion0 0.027715 -0.962080 -0.120239 -0.243262
DOCKED: USER    NEWDPF axisangle0 0.028573 -0.991875 -0.123963 -151.841673
DOCKED: USER    NEWDPF quat0 0.028573 -0.991875 -0.123963 -151.841673
DOCKED: USER    NEWDPF dihe0 141.02 -145.24 62.34 -13.52 -52.39 
DOCKED: USER  keepresnum = 1 
DOCKED: USER  
DOCKED: REMARK  Name = 
DOCKED: REMARK  5 active torsions:
DOCKED: REMARK  status: ('A' for Active; 'I' for Inactive)
DOCKED: REMARK    1  A    between atoms: S_2  and  N_3
DOCKED: REMARK    2  A    between atoms: S_2  and  C_10
DOCKED: REMARK    3  A    between atoms: N_3  and  C_4
DOCKED: REMARK    4  A    between atoms: C_12  and  C_13
DOCKED: REMARK    5  A    between atoms: C_14  and  C_15
DOCKED: REMARK                            x       y       z     vdW  Elec       q    Type
DOCKED: REMARK                         _______ _______ _______ _____ _____    ______ ____
DOCKED: USER                              x       y       z     vdW  Elec       q    Type
DOCKED: USER                           _______ _______ _______ _____ _____    ______ ____
DOCKED: ROOT
DOCKED: ATOM      1  C   UNL     1      18.048 -11.214   2.151 -0.45 +0.00    +0.000 A 
DOCKED: ATOM      2  C   UNL     1      17.352 -10.308   2.963 -0.41 +0.00    +0.000 A 
DOCKED: ATOM      3  C   UNL     1      15.948 -10.201   2.877 -0.39 +0.00    +0.000 A 
DOCKED: ATOM      4  C   UNL     1      15.263 -11.005   1.953 -0.37 +0.00    +0.000 A 
DOCKED: ATOM      5  C   UNL     1      15.955 -11.916   1.151 -0.41 +0.00    +0.000 A 
DOCKED: ATOM      6  C   UNL     1      17.343 -12.024   1.251 -0.42 +0.00    +0.000 A 
DOCKED: ENDROOT
DOCKED: BRANCH   1   8
DOCKED: ATOM      7  O   UNL     1      20.275 -12.692   1.853 -1.54 -0.00    +0.000 OA
DOCKED: ATOM      8  S   UNL     1      19.804 -11.322   2.253 -0.91 -0.00    +0.000 S 
DOCKED: ATOM      9  O   UNL     1      20.220 -11.054   3.670 -1.24 -0.00    +0.000 OA
DOCKED: BRANCH   8  10
DOCKED: ATOM     10  N   UNL     1      20.537 -10.144   1.209 -0.56 -0.00    +0.000 N 
DOCKED: ATOM     11  H   UNL     1      21.050  -9.414   1.625 -0.52 -0.00    +0.000 HD
DOCKED: BRANCH  10  12
DOCKED: ATOM     12  C   UNL     1      20.439 -10.170  -0.226 -0.56 -0.00    +0.000 A 
DOCKED: ATOM     13  C   UNL     1      21.383  -9.526  -1.049 -0.57 -0.00    +0.000 A 
DOCKED: ATOM     14  C   UNL     1      21.262  -9.582  -2.441 -0.48 -0.00    +0.000 A 
DOCKED: ATOM     15  C   UNL     1      20.198 -10.272  -3.026 -0.42 -0.00    +0.000 A 
DOCKED: ATOM     16  C   UNL     1      19.252 -10.907  -2.218 -0.38 -0.00    +0.000 A 
DOCKED: ATOM     17  C   UNL     1      19.369 -10.855  -0.827 -0.44 -0.00    +0.000 A 
DOCKED: ENDBRANCH  10  12
DOCKED: ENDBRANCH   8  10
DOCKED: ENDBRANCH   1   8
DOCKED: BRANCH   3  18
DOCKED: ATOM     18  C   UNL     1      15.168  -9.240   3.697 -0.41 +0.00    +0.000 C 
DOCKED: ATOM     19  C   UNL     1      15.573  -7.989   3.964 -0.36 +0.00    +0.000 C 
DOCKED: BRANCH  19  20
DOCKED: ATOM     20  C   UNL     1      14.789  -7.037   4.779 -0.44 +0.00    +0.000 C 
DOCKED: ATOM     21  N   UNL     1      15.387  -5.903   5.420 -0.44 +0.00    +0.000 N 
DOCKED: ATOM     22  O   UNL     1      14.647  -5.121   6.240 -0.83 +0.00    +0.000 OA
DOCKED: ATOM     23  O   UNL     1      13.548  -7.222   4.889 -0.34 +0.00    +0.000 OA
DOCKED: ATOM     24  H   UNL     1      16.336  -5.693   5.263 -0.50 -0.00    +0.000 HD
DOCKED: ENDBRANCH  19  20
DOCKED: ENDBRANCH   3  18
DOCKED: TORSDOF 5
DOCKED: TER
DOCKED: ENDMDL
________________________________________________________________________________


	BEGINNING GENETIC ALGORITHM DOCKING 69 of 100
Run: 69 Seed: 1376352011 1558782129 [ Run 69 of 100 GA/GALS ]
Beginning LAMARCKIAN GENETIC ALGORITHM (LGA), with a maximum of 2500000 energy evaluations.

Final-Value: -12.941


	FINAL GENETIC ALGORITHM DOCKED STATE
	_______________________________________________


Detailed state:  trans 17.327 -11.392 0.241 quatxyzw -0.291127 -0.487363 0.778768 -0.266913 center 0.217 0.012 -0.211 ntor 5 -179.5710 15.5084 80.3570 -16.7372 79.9883
State:	 17.327 -11.392   0.241  -0.302 -0.506  0.808 -149.039   -179.57   15.51   80.36  -16.74   79.99

DOCKED: MODEL       69
DOCKED: USER    Run = 69
DOCKED: USER    DPF = ligand_dock.biased.dpf
DOCKED: USER  
DOCKED: USER    Estimated Free Energy of Binding    =  -10.26 kcal/mol  [=(1)+(2)+(3)-(4)]
DOCKED: USER    Estimated Inhibition Constant, Ki   =   30.30 nM (nanomolar)  [Temperature = 298.15 K]
DOCKED: USER    
DOCKED: USER    (1) Final Intermolecular Energy     =  -11.75 kcal/mol
DOCKED: USER        vdW + Hbond + desolv Energy     =  -11.75 kcal/mol
DOCKED: USER        Electrostatic Energy            =   +0.00 kcal/mol
DOCKED: USER    (2) Final Total Internal Energy     =   -1.19 kcal/mol
DOCKED: USER    (3) Torsional Free Energy           =   +1.49 kcal/mol
DOCKED: USER    (4) Unbound System's Energy  [=(2)] =   -1.19 kcal/mol
DOCKED: USER    
DOCKED: USER    
DOCKED: USER    NEWDPF move ligand.pdbqt
DOCKED: USER    NEWDPF about 0.217000 0.012000 -0.211000
DOCKED: USER    NEWDPF tran0 17.327251 -11.391621 0.241257
DOCKED: USER    NEWDPF quaternion0 -0.291127 -0.487363 0.778768 -0.266913
DOCKED: USER    NEWDPF axisangle0 -0.302087 -0.505710 0.808085 -149.038745
DOCKED: USER    NEWDPF quat0 -0.302087 -0.505710 0.808085 -149.038745
DOCKED: USER    NEWDPF dihe0 -179.57 15.51 80.36 -16.74 79.99 
DOCKED: USER  keepresnum = 1 
DOCKED: USER  
DOCKED: REMARK  Name = 
DOCKED: REMARK  5 active torsions:
DOCKED: REMARK  status: ('A' for Active; 'I' for Inactive)
DOCKED: REMARK    1  A    between atoms: S_2  and  N_3
DOCKED: REMARK    2  A    between atoms: S_2  and  C_10
DOCKED: REMARK    3  A    between atoms: N_3  and  C_4
DOCKED: REMARK    4  A    between atoms: C_12  and  C_13
DOCKED: REMARK    5  A    between atoms: C_14  and  C_15
DOCKED: REMARK                            x       y       z     vdW  Elec       q    Type
DOCKED: REMARK                         _______ _______ _______ _____ _____    ______ ____
DOCKED: USER                              x       y       z     vdW  Elec       q    Type
DOCKED: USER                           _______ _______ _______ _____ _____    ______ ____
DOCKED: ROOT
DOCKED: ATOM      1  C   UNL     1      18.015 -10.926   2.259 -0.47 -0.00    +0.000 A 
DOCKED: ATOM      2  C   UNL     1      17.381 -10.617   1.047 -0.33 -0.00    +0.000 A 
DOCKED: ATOM      3  C   UNL     1      16.012 -10.278   1.020 -0.29 +0.00    +0.000 A 
DOCKED: ATOM      4  C   UNL     1      15.292 -10.272   2.225 -0.33 +0.00    +0.000 A 
DOCKED: ATOM      5  C   UNL     1      15.926 -10.569   3.434 -0.45 +0.00    +0.000 A 
DOCKED: ATOM      6  C   UNL     1      17.284 -10.891   3.453 -0.32 +0.00    +0.000 A 
DOCKED: ENDROOT
DOCKED: BRANCH   1   8
DOCKED: ATOM      7  O   UNL     1      19.910 -12.764   1.750 -1.60 -0.00    +0.000 OA
DOCKED: ATOM      8  S   UNL     1      19.720 -11.368   2.274 -0.91 -0.00    +0.000 S 
DOCKED: ATOM      9  O   UNL     1      20.221 -11.303   3.689 -1.30 -0.00    +0.000 OA
DOCKED: BRANCH   8  10
DOCKED: ATOM     10  N   UNL     1      20.634 -10.266   1.292 -0.57 -0.00    +0.000 N 
DOCKED: ATOM     11  H   UNL     1      21.253  -9.649   1.745 -0.55 -0.00    +0.000 HD
DOCKED: BRANCH  10  12
DOCKED: ATOM     12  C   UNL     1      20.539 -10.200  -0.142 -0.58 -0.00    +0.000 A 
DOCKED: ATOM     13  C   UNL     1      19.628 -10.993  -0.865 -0.43 -0.00    +0.000 A 
DOCKED: ATOM     14  C   UNL     1      19.558 -10.895  -2.259 -0.39 -0.00    +0.000 A 
DOCKED: ATOM     15  C   UNL     1      20.396 -10.013  -2.943 -0.43 -0.00    +0.000 A 
DOCKED: ATOM     16  C   UNL     1      21.309  -9.228  -2.236 -0.47 -0.00    +0.000 A 
DOCKED: ATOM     17  C   UNL     1      21.383  -9.322  -0.844 -0.56 -0.00    +0.000 A 
DOCKED: ENDBRANCH  10  12
DOCKED: ENDBRANCH   8  10
DOCKED: ENDBRANCH   1   8
DOCKED: BRANCH   3  18
DOCKED: ATOM     18  C   UNL     1      15.290  -9.969  -0.239 -0.29 +0.00    +0.000 C 
DOCKED: ATOM     19  C   UNL     1      15.208 -10.814  -1.278 -0.32 -0.00    +0.000 C 
DOCKED: BRANCH  19  20
DOCKED: ATOM     20  C   UNL     1      14.484 -10.499  -2.528 -0.30 -0.00    +0.000 C 
DOCKED: ATOM     21  N   UNL     1      14.077 -11.513  -3.455 -0.29 -0.00    +0.000 N 
DOCKED: ATOM     22  O   UNL     1      13.511 -11.166  -4.634 -0.27 -0.00    +0.000 OA
DOCKED: ATOM     23  O   UNL     1      14.197  -9.296  -2.768 -0.18 -0.00    +0.000 OA
DOCKED: ATOM     24  H   UNL     1      14.210 -12.463  -3.233 -0.12 -0.00    +0.000 HD
DOCKED: ENDBRANCH  19  20
DOCKED: ENDBRANCH   3  18
DOCKED: TORSDOF 5
DOCKED: TER
DOCKED: ENDMDL
________________________________________________________________________________


	BEGINNING GENETIC ALGORITHM DOCKING 70 of 100
Run: 70 Seed: 1976425584 1208118860 [ Run 70 of 100 GA/GALS ]
Beginning LAMARCKIAN GENETIC ALGORITHM (LGA), with a maximum of 2500000 energy evaluations.

Final-Value: -13.598


	FINAL GENETIC ALGORITHM DOCKED STATE
	_______________________________________________


Detailed state:  trans 22.158 -11.337 -2.627 quatxyzw 0.483166 0.345827 0.798712 0.094942 center 0.217 0.012 -0.211 ntor 5 129.5714 -139.8753 -113.7416 -155.6728 -89.0347
State:	 22.158 -11.337  -2.627   0.485  0.347  0.802 169.104    129.57 -139.88 -113.74 -155.67  -89.03

DOCKED: MODEL       70
DOCKED: USER    Run = 70
DOCKED: USER    DPF = ligand_dock.biased.dpf
DOCKED: USER  
DOCKED: USER    Estimated Free Energy of Binding    =  -11.21 kcal/mol  [=(1)+(2)+(3)-(4)]
DOCKED: USER    Estimated Inhibition Constant, Ki   =    6.09 nM (nanomolar)  [Temperature = 298.15 K]
DOCKED: USER    
DOCKED: USER    (1) Final Intermolecular Energy     =  -12.70 kcal/mol
DOCKED: USER        vdW + Hbond + desolv Energy     =  -12.70 kcal/mol
DOCKED: USER        Electrostatic Energy            =   +0.00 kcal/mol
DOCKED: USER    (2) Final Total Internal Energy     =   -0.90 kcal/mol
DOCKED: USER    (3) Torsional Free Energy           =   +1.49 kcal/mol
DOCKED: USER    (4) Unbound System's Energy  [=(2)] =   -0.90 kcal/mol
DOCKED: USER    
DOCKED: USER    
DOCKED: USER    NEWDPF move ligand.pdbqt
DOCKED: USER    NEWDPF about 0.217000 0.012000 -0.211000
DOCKED: USER    NEWDPF tran0 22.157854 -11.337243 -2.627071
DOCKED: USER    NEWDPF quaternion0 0.483166 0.345827 0.798712 0.094942
DOCKED: USER    NEWDPF axisangle0 0.485359 0.347396 0.802336 169.104073
DOCKED: USER    NEWDPF quat0 0.485359 0.347396 0.802336 169.104073
DOCKED: USER    NEWDPF dihe0 129.57 -139.88 -113.74 -155.67 -89.03 
DOCKED: USER  keepresnum = 1 
DOCKED: USER  
DOCKED: REMARK  Name = 
DOCKED: REMARK  5 active torsions:
DOCKED: REMARK  status: ('A' for Active; 'I' for Inactive)
DOCKED: REMARK    1  A    between atoms: S_2  and  N_3
DOCKED: REMARK    2  A    between atoms: S_2  and  C_10
DOCKED: REMARK    3  A    between atoms: N_3  and  C_4
DOCKED: REMARK    4  A    between atoms: C_12  and  C_13
DOCKED: REMARK    5  A    between atoms: C_14  and  C_15
DOCKED: REMARK                            x       y       z     vdW  Elec       q    Type
DOCKED: REMARK                         _______ _______ _______ _____ _____    ______ ____
DOCKED: USER                              x       y       z     vdW  Elec       q    Type
DOCKED: USER                           _______ _______ _______ _____ _____    ______ ____
DOCKED: ROOT
DOCKED: ATOM      1  C   UNL     1      21.369  -9.900  -4.067 -0.41 -0.00    +0.000 A 
DOCKED: ATOM      2  C   UNL     1      21.317 -10.643  -2.879 -0.43 -0.00    +0.000 A 
DOCKED: ATOM      3  C   UNL     1      21.283  -9.992  -1.628 -0.55 -0.00    +0.000 A 
DOCKED: ATOM      4  C   UNL     1      21.317  -8.588  -1.594 -0.46 -0.00    +0.000 A 
DOCKED: ATOM      5  C   UNL     1      21.358  -7.848  -2.779 -0.39 -0.00    +0.000 A 
DOCKED: ATOM      6  C   UNL     1      21.379  -8.501  -4.012 -0.33 -0.00    +0.000 A 
DOCKED: ENDROOT
DOCKED: BRANCH   1   8
DOCKED: ATOM      7  O   UNL     1      20.208 -10.422  -6.436 -0.30 -0.00    +0.000 OA
DOCKED: ATOM      8  S   UNL     1      21.433 -10.728  -5.621 -0.57 -0.00    +0.000 S 
DOCKED: ATOM      9  O   UNL     1      21.502 -12.208  -5.376 -0.77 -0.00    +0.000 OA
DOCKED: BRANCH   8  10
DOCKED: ATOM     10  N   UNL     1      22.841 -10.228  -6.506 -0.32 -0.00    +0.000 N 
DOCKED: ATOM     11  H   UNL     1      23.198  -9.327  -6.336 -0.02 -0.00    +0.000 HD
DOCKED: BRANCH  10  12
DOCKED: ATOM     12  C   UNL     1      23.516 -11.053  -7.473 -0.37 -0.00    +0.000 A 
DOCKED: ATOM     13  C   UNL     1      24.893 -10.914  -7.738 -0.33 -0.00    +0.000 A 
DOCKED: ATOM     14  C   UNL     1      25.518 -11.740  -8.678 -0.38 -0.00    +0.000 A 
DOCKED: ATOM     15  C   UNL     1      24.779 -12.705  -9.366 -0.36 -0.00    +0.000 A 
DOCKED: ATOM     16  C   UNL     1      23.412 -12.844  -9.117 -0.37 -0.00    +0.000 A 
DOCKED: ATOM     17  C   UNL     1      22.783 -12.021  -8.178 -0.29 -0.00    +0.000 A 
DOCKED: ENDBRANCH  10  12
DOCKED: ENDBRANCH   8  10
DOCKED: ENDBRANCH   1   8
DOCKED: BRANCH   3  18
DOCKED: ATOM     18  C   UNL     1      21.254 -10.731  -0.342 -0.65 -0.00    +0.000 C 
DOCKED: ATOM     19  C   UNL     1      20.459 -10.404   0.689 -0.66 -0.00    +0.000 C 
DOCKED: BRANCH  19  20
DOCKED: ATOM     20  C   UNL     1      20.434 -11.147   1.966 -0.73 -0.00    +0.000 C 
DOCKED: ATOM     21  N   UNL     1      20.174 -10.507   3.221 -0.69 -0.00    +0.000 N 
DOCKED: ATOM     22  O   UNL     1      20.265 -11.211   4.373 -1.01 -0.00    +0.000 OA
DOCKED: ATOM     23  O   UNL     1      20.625 -12.392   1.939 -1.76 -0.00    +0.000 OA
DOCKED: ATOM     24  H   UNL     1      19.928  -9.554   3.245 -0.55 -0.00    +0.000 HD
DOCKED: ENDBRANCH  19  20
DOCKED: ENDBRANCH   3  18
DOCKED: TORSDOF 5
DOCKED: TER
DOCKED: ENDMDL
________________________________________________________________________________


	BEGINNING GENETIC ALGORITHM DOCKING 71 of 100
Run: 71 Seed: 44055363 1408708596 [ Run 71 of 100 GA/GALS ]
Beginning LAMARCKIAN GENETIC ALGORITHM (LGA), with a maximum of 2500000 energy evaluations.

Final-Value: -13.012


	FINAL GENETIC ALGORITHM DOCKED STATE
	_______________________________________________


Detailed state:  trans 18.215 -10.481 -0.471 quatxyzw 0.564934 -0.506260 -0.349816 0.549708 center 0.217 0.012 -0.211 ntor 5 -172.0216 177.1388 -118.5272 127.2094 -21.3727
State:	 18.215 -10.481  -0.471   0.676 -0.606 -0.419 113.306   -172.02  177.14 -118.53  127.21  -21.37

DOCKED: MODEL       71
DOCKED: USER    Run = 71
DOCKED: USER    DPF = ligand_dock.biased.dpf
DOCKED: USER  
DOCKED: USER    Estimated Free Energy of Binding    =  -10.50 kcal/mol  [=(1)+(2)+(3)-(4)]
DOCKED: USER    Estimated Inhibition Constant, Ki   =   20.19 nM (nanomolar)  [Temperature = 298.15 K]
DOCKED: USER    
DOCKED: USER    (1) Final Intermolecular Energy     =  -11.99 kcal/mol
DOCKED: USER        vdW + Hbond + desolv Energy     =  -11.99 kcal/mol
DOCKED: USER        Electrostatic Energy            =   +0.00 kcal/mol
DOCKED: USER    (2) Final Total Internal Energy     =   -1.02 kcal/mol
DOCKED: USER    (3) Torsional Free Energy           =   +1.49 kcal/mol
DOCKED: USER    (4) Unbound System's Energy  [=(2)] =   -1.02 kcal/mol
DOCKED: USER    
DOCKED: USER    
DOCKED: USER    NEWDPF move ligand.pdbqt
DOCKED: USER    NEWDPF about 0.217000 0.012000 -0.211000
DOCKED: USER    NEWDPF tran0 18.214609 -10.480877 -0.471296
DOCKED: USER    NEWDPF quaternion0 0.564934 -0.506260 -0.349816 0.549708
DOCKED: USER    NEWDPF axisangle0 0.676279 -0.606041 -0.418762 113.306091
DOCKED: USER    NEWDPF quat0 0.676279 -0.606041 -0.418762 113.306091
DOCKED: USER    NEWDPF dihe0 -172.02 177.14 -118.53 127.21 -21.37 
DOCKED: USER  keepresnum = 1 
DOCKED: USER  
DOCKED: REMARK  Name = 
DOCKED: REMARK  5 active torsions:
DOCKED: REMARK  status: ('A' for Active; 'I' for Inactive)
DOCKED: REMARK    1  A    between atoms: S_2  and  N_3
DOCKED: REMARK    2  A    between atoms: S_2  and  C_10
DOCKED: REMARK    3  A    between atoms: N_3  and  C_4
DOCKED: REMARK    4  A    between atoms: C_12  and  C_13
DOCKED: REMARK    5  A    between atoms: C_14  and  C_15
DOCKED: REMARK                            x       y       z     vdW  Elec       q    Type
DOCKED: REMARK                         _______ _______ _______ _____ _____    ______ ____
DOCKED: USER                              x       y       z     vdW  Elec       q    Type
DOCKED: USER                           _______ _______ _______ _____ _____    ______ ____
DOCKED: ROOT
DOCKED: ATOM      1  C   UNL     1      20.098 -10.681   0.612 -0.58 -0.00    +0.000 A 
DOCKED: ATOM      2  C   UNL     1      19.259 -10.882  -0.493 -0.45 -0.00    +0.000 A 
DOCKED: ATOM      3  C   UNL     1      19.596 -10.351  -1.755 -0.39 -0.00    +0.000 A 
DOCKED: ATOM      4  C   UNL     1      20.779  -9.605  -1.881 -0.50 -0.00    +0.000 A 
DOCKED: ATOM      5  C   UNL     1      21.620  -9.413  -0.782 -0.41 -0.00    +0.000 A 
DOCKED: ATOM      6  C   UNL     1      21.284  -9.952   0.460 -0.47 -0.00    +0.000 A 
DOCKED: ENDROOT
DOCKED: BRANCH   1   8
DOCKED: ATOM      7  O   UNL     1      20.644 -10.909   3.235 -1.30 -0.00    +0.000 OA
DOCKED: ATOM      8  S   UNL     1      19.652 -11.331   2.188 -0.90 -0.00    +0.000 S 
DOCKED: ATOM      9  O   UNL     1      19.636 -12.831   2.103 -1.43 -0.00    +0.000 OA
DOCKED: BRANCH   8  10
DOCKED: ATOM     10  N   UNL     1      18.073 -10.768   2.643 -0.50 -0.00    +0.000 N 
DOCKED: ATOM     11  H   UNL     1      18.014 -10.069   3.333 -0.02 +0.00    +0.000 HD
DOCKED: BRANCH  10  12
DOCKED: ATOM     12  C   UNL     1      16.849 -11.262   2.072 -0.39 +0.00    +0.000 A 
DOCKED: ATOM     13  C   UNL     1      15.597 -11.015   2.668 -0.43 +0.00    +0.000 A 
DOCKED: ATOM     14  C   UNL     1      14.426 -11.503   2.078 -0.42 +0.00    +0.000 A 
DOCKED: ATOM     15  C   UNL     1      14.491 -12.245   0.897 -0.41 +0.00    +0.000 A 
DOCKED: ATOM     16  C   UNL     1      15.729 -12.503   0.303 -0.46 +0.00    +0.000 A 
DOCKED: ATOM     17  C   UNL     1      16.901 -12.017   0.888 -0.44 +0.00    +0.000 A 
DOCKED: ENDBRANCH  10  12
DOCKED: ENDBRANCH   8  10
DOCKED: ENDBRANCH   1   8
DOCKED: BRANCH   3  18
DOCKED: ATOM     18  C   UNL     1      18.730 -10.515  -2.949 -0.37 -0.00    +0.000 C 
DOCKED: ATOM     19  C   UNL     1      19.201 -10.738  -4.186 -0.40 -0.00    +0.000 C 
DOCKED: BRANCH  19  20
DOCKED: ATOM     20  C   UNL     1      18.332 -10.902  -5.370 -0.36 -0.00    +0.000 C 
DOCKED: ATOM     21  N   UNL     1      18.741 -11.645  -6.524 -0.37 -0.00    +0.000 N 
DOCKED: ATOM     22  O   UNL     1      17.952 -11.679  -7.623 -0.42 -0.00    +0.000 OA
DOCKED: ATOM     23  O   UNL     1      17.182 -10.388  -5.345 -0.25 -0.00    +0.000 OA
DOCKED: ATOM     24  H   UNL     1      19.597 -12.132  -6.518 -0.33 -0.00    +0.000 HD
DOCKED: ENDBRANCH  19  20
DOCKED: ENDBRANCH   3  18
DOCKED: TORSDOF 5
DOCKED: TER
DOCKED: ENDMDL
________________________________________________________________________________


	BEGINNING GENETIC ALGORITHM DOCKING 72 of 100
Run: 72 Seed: 766026148 1936409089 [ Run 72 of 100 GA/GALS ]
Beginning LAMARCKIAN GENETIC ALGORITHM (LGA), with a maximum of 2500000 energy evaluations.

Final-Value: -13.444


	FINAL GENETIC ALGORITHM DOCKED STATE
	_______________________________________________


Detailed state:  trans 21.336 -11.716 -2.439 quatxyzw 0.480322 0.286773 0.828757 -0.014622 center 0.217 0.012 -0.211 ntor 5 -179.7870 135.1407 -178.4996 114.8181 86.1331
State:	 21.336 -11.716  -2.439   0.480  0.287  0.829 -178.324   -179.79  135.14 -178.50  114.82   86.13

DOCKED: MODEL       72
DOCKED: USER    Run = 72
DOCKED: USER    DPF = ligand_dock.biased.dpf
DOCKED: USER  
DOCKED: USER    Estimated Free Energy of Binding    =  -10.79 kcal/mol  [=(1)+(2)+(3)-(4)]
DOCKED: USER    Estimated Inhibition Constant, Ki   =   12.22 nM (nanomolar)  [Temperature = 298.15 K]
DOCKED: USER    
DOCKED: USER    (1) Final Intermolecular Energy     =  -12.29 kcal/mol
DOCKED: USER        vdW + Hbond + desolv Energy     =  -12.29 kcal/mol
DOCKED: USER        Electrostatic Energy            =   +0.00 kcal/mol
DOCKED: USER    (2) Final Total Internal Energy     =   -1.16 kcal/mol
DOCKED: USER    (3) Torsional Free Energy           =   +1.49 kcal/mol
DOCKED: USER    (4) Unbound System's Energy  [=(2)] =   -1.16 kcal/mol
DOCKED: USER    
DOCKED: USER    
DOCKED: USER    NEWDPF move ligand.pdbqt
DOCKED: USER    NEWDPF about 0.217000 0.012000 -0.211000
DOCKED: USER    NEWDPF tran0 21.335983 -11.716432 -2.439289
DOCKED: USER    NEWDPF quaternion0 0.480322 0.286773 0.828757 -0.014622
DOCKED: USER    NEWDPF axisangle0 0.480373 0.286803 0.828846 -178.324344
DOCKED: USER    NEWDPF quat0 0.480373 0.286803 0.828846 -178.324344
DOCKED: USER    NEWDPF dihe0 -179.79 135.14 -178.50 114.82 86.13 
DOCKED: USER  keepresnum = 1 
DOCKED: USER  
DOCKED: REMARK  Name = 
DOCKED: REMARK  5 active torsions:
DOCKED: REMARK  status: ('A' for Active; 'I' for Inactive)
DOCKED: REMARK    1  A    between atoms: S_2  and  N_3
DOCKED: REMARK    2  A    between atoms: S_2  and  C_10
DOCKED: REMARK    3  A    between atoms: N_3  and  C_4
DOCKED: REMARK    4  A    between atoms: C_12  and  C_13
DOCKED: REMARK    5  A    between atoms: C_14  and  C_15
DOCKED: REMARK                            x       y       z     vdW  Elec       q    Type
DOCKED: REMARK                         _______ _______ _______ _____ _____    ______ ____
DOCKED: USER                              x       y       z     vdW  Elec       q    Type
DOCKED: USER                           _______ _______ _______ _____ _____    ______ ____
DOCKED: ROOT
DOCKED: ATOM      1  C   UNL     1      21.050 -10.137  -3.917 -0.43 -0.00    +0.000 A 
DOCKED: ATOM      2  C   UNL     1      20.710 -10.845  -2.756 -0.38 -0.00    +0.000 A 
DOCKED: ATOM      3  C   UNL     1      20.706 -10.201  -1.500 -0.53 -0.00    +0.000 A 
DOCKED: ATOM      4  C   UNL     1      21.063  -8.845  -1.433 -0.50 -0.00    +0.000 A 
DOCKED: ATOM      5  C   UNL     1      21.391  -8.137  -2.593 -0.41 -0.00    +0.000 A 
DOCKED: ATOM      6  C   UNL     1      21.381  -8.779  -3.832 -0.35 -0.00    +0.000 A 
DOCKED: ENDROOT
DOCKED: BRANCH   1   8
DOCKED: ATOM      7  O   UNL     1      22.196 -11.957  -5.532 -0.69 -0.00    +0.000 OA
DOCKED: ATOM      8  S   UNL     1      21.072 -10.960  -5.475 -0.59 -0.00    +0.000 S 
DOCKED: ATOM      9  O   UNL     1      21.269  -9.936  -6.557 -0.27 -0.00    +0.000 OA
DOCKED: BRANCH   8  10
DOCKED: ATOM     10  N   UNL     1      19.568 -11.786  -5.737 -0.36 -0.00    +0.000 N 
DOCKED: ATOM     11  H   UNL     1      19.589 -12.766  -5.829 -0.48 -0.00    +0.000 HD
DOCKED: BRANCH  10  12
DOCKED: ATOM     12  C   UNL     1      18.293 -11.125  -5.830 -0.33 -0.00    +0.000 A 
DOCKED: ATOM     13  C   UNL     1      17.462 -11.266  -6.958 -0.34 -0.00    +0.000 A 
DOCKED: ATOM     14  C   UNL     1      16.224 -10.616  -7.008 -0.21 -0.00    +0.000 A 
DOCKED: ATOM     15  C   UNL     1      15.807  -9.817  -5.941 -0.14 -0.00    +0.000 A 
DOCKED: ATOM     16  C   UNL     1      16.629  -9.664  -4.822 -0.18 -0.00    +0.000 A 
DOCKED: ATOM     17  C   UNL     1      17.866 -10.312  -4.767 -0.25 -0.00    +0.000 A 
DOCKED: ENDBRANCH  10  12
DOCKED: ENDBRANCH   8  10
DOCKED: ENDBRANCH   1   8
DOCKED: BRANCH   3  18
DOCKED: ATOM     18  C   UNL     1      20.378 -10.911  -0.239 -0.62 -0.00    +0.000 C 
DOCKED: ATOM     19  C   UNL     1      20.749 -10.480   0.977 -0.64 -0.00    +0.000 C 
DOCKED: BRANCH  19  20
DOCKED: ATOM     20  C   UNL     1      20.417 -11.191   2.228 -0.73 -0.00    +0.000 C 
DOCKED: ATOM     21  N   UNL     1      20.475 -10.555   3.511 -0.69 -0.00    +0.000 N 
DOCKED: ATOM     22  O   UNL     1      20.264 -11.277   4.636 -0.76 -0.00    +0.000 OA
DOCKED: ATOM     23  O   UNL     1      20.045 -12.393   2.155 -1.84 -0.00    +0.000 OA
DOCKED: ATOM     24  H   UNL     1      20.670  -9.592   3.574 -0.57 -0.00    +0.000 HD
DOCKED: ENDBRANCH  19  20
DOCKED: ENDBRANCH   3  18
DOCKED: TORSDOF 5
DOCKED: TER
DOCKED: ENDMDL
________________________________________________________________________________


	BEGINNING GENETIC ALGORITHM DOCKING 73 of 100
Run: 73 Seed: 1640319926 2076796579 [ Run 73 of 100 GA/GALS ]
Beginning LAMARCKIAN GENETIC ALGORITHM (LGA), with a maximum of 2500000 energy evaluations.

Final-Value: -13.794


	FINAL GENETIC ALGORITHM DOCKED STATE
	_______________________________________________


Detailed state:  trans 20.879 -11.620 -2.815 quatxyzw 0.544814 0.232944 0.804621 -0.038730 center 0.217 0.012 -0.211 ntor 5 -174.4925 34.3422 -168.5034 -37.0422 -48.9480
State:	 20.879 -11.620  -2.815   0.545  0.233  0.805 -175.561   -174.49   34.34 -168.50  -37.04  -48.95

DOCKED: MODEL       73
DOCKED: USER    Run = 73
DOCKED: USER    DPF = ligand_dock.biased.dpf
DOCKED: USER  
DOCKED: USER    Estimated Free Energy of Binding    =  -11.29 kcal/mol  [=(1)+(2)+(3)-(4)]
DOCKED: USER    Estimated Inhibition Constant, Ki   =    5.32 nM (nanomolar)  [Temperature = 298.15 K]
DOCKED: USER    
DOCKED: USER    (1) Final Intermolecular Energy     =  -12.78 kcal/mol
DOCKED: USER        vdW + Hbond + desolv Energy     =  -12.78 kcal/mol
DOCKED: USER        Electrostatic Energy            =   +0.00 kcal/mol
DOCKED: USER    (2) Final Total Internal Energy     =   -1.01 kcal/mol
DOCKED: USER    (3) Torsional Free Energy           =   +1.49 kcal/mol
DOCKED: USER    (4) Unbound System's Energy  [=(2)] =   -1.01 kcal/mol
DOCKED: USER    
DOCKED: USER    
DOCKED: USER    NEWDPF move ligand.pdbqt
DOCKED: USER    NEWDPF about 0.217000 0.012000 -0.211000
DOCKED: USER    NEWDPF tran0 20.879242 -11.619857 -2.815174
DOCKED: USER    NEWDPF quaternion0 0.544814 0.232944 0.804621 -0.038730
DOCKED: USER    NEWDPF axisangle0 0.545223 0.233118 0.805225 -175.560714
DOCKED: USER    NEWDPF quat0 0.545223 0.233118 0.805225 -175.560714
DOCKED: USER    NEWDPF dihe0 -174.49 34.34 -168.50 -37.04 -48.95 
DOCKED: USER  keepresnum = 1 
DOCKED: USER  
DOCKED: REMARK  Name = 
DOCKED: REMARK  5 active torsions:
DOCKED: REMARK  status: ('A' for Active; 'I' for Inactive)
DOCKED: REMARK    1  A    between atoms: S_2  and  N_3
DOCKED: REMARK    2  A    between atoms: S_2  and  C_10
DOCKED: REMARK    3  A    between atoms: N_3  and  C_4
DOCKED: REMARK    4  A    between atoms: C_12  and  C_13
DOCKED: REMARK    5  A    between atoms: C_14  and  C_15
DOCKED: REMARK                            x       y       z     vdW  Elec       q    Type
DOCKED: REMARK                         _______ _______ _______ _____ _____    ______ ____
DOCKED: USER                              x       y       z     vdW  Elec       q    Type
DOCKED: USER                           _______ _______ _______ _____ _____    ______ ____
DOCKED: ROOT
DOCKED: ATOM      1  C   UNL     1      20.642  -9.930  -4.174 -0.37 -0.00    +0.000 A 
DOCKED: ATOM      2  C   UNL     1      20.342 -10.659  -3.015 -0.43 -0.00    +0.000 A 
DOCKED: ATOM      3  C   UNL     1      20.562 -10.098  -1.739 -0.51 -0.00    +0.000 A 
DOCKED: ATOM      4  C   UNL     1      21.100  -8.804  -1.652 -0.48 -0.00    +0.000 A 
DOCKED: ATOM      5  C   UNL     1      21.389  -8.074  -2.808 -0.40 -0.00    +0.000 A 
DOCKED: ATOM      6  C   UNL     1      21.157  -8.632  -4.065 -0.33 -0.00    +0.000 A 
DOCKED: ENDROOT
DOCKED: BRANCH   1   8
DOCKED: ATOM      7  O   UNL     1      20.211  -9.585  -6.806 -0.19 -0.00    +0.000 OA
DOCKED: ATOM      8  S   UNL     1      20.383 -10.651  -5.761 -0.48 -0.00    +0.000 S 
DOCKED: ATOM      9  O   UNL     1      19.141 -11.493  -5.709 -0.47 -0.00    +0.000 OA
DOCKED: BRANCH   8  10
DOCKED: ATOM     10  N   UNL     1      21.735 -11.653  -6.190 -0.38 -0.00    +0.000 N 
DOCKED: ATOM     11  H   UNL     1      21.704 -12.604  -5.936 -0.58 -0.00    +0.000 HD
DOCKED: BRANCH  10  12
DOCKED: ATOM     12  C   UNL     1      22.896 -11.177  -6.893 -0.41 -0.00    +0.000 A 
DOCKED: ATOM     13  C   UNL     1      23.259  -9.816  -6.896 -0.25 -0.00    +0.000 A 
DOCKED: ATOM     14  C   UNL     1      24.401  -9.391  -7.582 -0.24 -0.00    +0.000 A 
DOCKED: ATOM     15  C   UNL     1      25.187 -10.314  -8.277 -0.30 -0.00    +0.000 A 
DOCKED: ATOM     16  C   UNL     1      24.830 -11.664  -8.288 -0.41 -0.00    +0.000 A 
DOCKED: ATOM     17  C   UNL     1      23.690 -12.093  -7.603 -0.46 -0.00    +0.000 A 
DOCKED: ENDBRANCH  10  12
DOCKED: ENDBRANCH   8  10
DOCKED: ENDBRANCH   1   8
DOCKED: BRANCH   3  18
DOCKED: ATOM     18  C   UNL     1      20.286 -10.837  -0.482 -0.60 -0.00    +0.000 C 
DOCKED: ATOM     19  C   UNL     1      20.684 -10.421   0.730 -0.67 -0.00    +0.000 C 
DOCKED: BRANCH  19  20
DOCKED: ATOM     20  C   UNL     1      20.403 -11.162   1.977 -0.74 -0.00    +0.000 C 
DOCKED: ATOM     21  N   UNL     1      20.379 -10.523   3.259 -0.69 -0.00    +0.000 N 
DOCKED: ATOM     22  O   UNL     1      20.221 -11.262   4.382 -1.00 -0.00    +0.000 OA
DOCKED: ATOM     23  O   UNL     1      20.150 -12.394   1.899 -1.83 -0.00    +0.000 OA
DOCKED: ATOM     24  H   UNL     1      20.479  -9.546   3.324 -0.58 -0.00    +0.000 HD
DOCKED: ENDBRANCH  19  20
DOCKED: ENDBRANCH   3  18
DOCKED: TORSDOF 5
DOCKED: TER
DOCKED: ENDMDL
________________________________________________________________________________


	BEGINNING GENETIC ALGORITHM DOCKING 74 of 100
Run: 74 Seed: 797483410 54357556 [ Run 74 of 100 GA/GALS ]
Beginning LAMARCKIAN GENETIC ALGORITHM (LGA), with a maximum of 2500000 energy evaluations.

Final-Value: -13.472


	FINAL GENETIC ALGORITHM DOCKED STATE
	_______________________________________________


Detailed state:  trans 21.690 -11.618 -2.598 quatxyzw -0.402859 -0.335897 -0.851387 -0.004315 center 0.217 0.012 -0.211 ntor 5 -174.2886 -96.0834 159.0840 48.0907 129.0671
State:	 21.690 -11.618  -2.598  -0.403 -0.336 -0.851 -179.506   -174.29  -96.08  159.08   48.09  129.07

DOCKED: MODEL       74
DOCKED: USER    Run = 74
DOCKED: USER    DPF = ligand_dock.biased.dpf
DOCKED: USER  
DOCKED: USER    Estimated Free Energy of Binding    =  -10.67 kcal/mol  [=(1)+(2)+(3)-(4)]
DOCKED: USER    Estimated Inhibition Constant, Ki   =   15.19 nM (nanomolar)  [Temperature = 298.15 K]
DOCKED: USER    
DOCKED: USER    (1) Final Intermolecular Energy     =  -12.16 kcal/mol
DOCKED: USER        vdW + Hbond + desolv Energy     =  -12.16 kcal/mol
DOCKED: USER        Electrostatic Energy            =   +0.00 kcal/mol
DOCKED: USER    (2) Final Total Internal Energy     =   -1.31 kcal/mol
DOCKED: USER    (3) Torsional Free Energy           =   +1.49 kcal/mol
DOCKED: USER    (4) Unbound System's Energy  [=(2)] =   -1.31 kcal/mol
DOCKED: USER    
DOCKED: USER    
DOCKED: USER    NEWDPF move ligand.pdbqt
DOCKED: USER    NEWDPF about 0.217000 0.012000 -0.211000
DOCKED: USER    NEWDPF tran0 21.689566 -11.618423 -2.598459
DOCKED: USER    NEWDPF quaternion0 -0.402859 -0.335897 -0.851387 -0.004315
DOCKED: USER    NEWDPF axisangle0 -0.402862 -0.335900 -0.851395 -179.505503
DOCKED: USER    NEWDPF quat0 -0.402862 -0.335900 -0.851395 -179.505503
DOCKED: USER    NEWDPF dihe0 -174.29 -96.08 159.08 48.09 129.07 
DOCKED: USER  keepresnum = 1 
DOCKED: USER  
DOCKED: REMARK  Name = 
DOCKED: REMARK  5 active torsions:
DOCKED: REMARK  status: ('A' for Active; 'I' for Inactive)
DOCKED: REMARK    1  A    between atoms: S_2  and  N_3
DOCKED: REMARK    2  A    between atoms: S_2  and  C_10
DOCKED: REMARK    3  A    between atoms: N_3  and  C_4
DOCKED: REMARK    4  A    between atoms: C_12  and  C_13
DOCKED: REMARK    5  A    between atoms: C_14  and  C_15
DOCKED: REMARK                            x       y       z     vdW  Elec       q    Type
DOCKED: REMARK                         _______ _______ _______ _____ _____    ______ ____
DOCKED: USER                              x       y       z     vdW  Elec       q    Type
DOCKED: USER                           _______ _______ _______ _____ _____    ______ ____
DOCKED: ROOT
DOCKED: ATOM      1  C   UNL     1      21.427 -10.155  -4.195 -0.42 -0.00    +0.000 A 
DOCKED: ATOM      2  C   UNL     1      21.014 -10.848  -3.048 -0.38 -0.00    +0.000 A 
DOCKED: ATOM      3  C   UNL     1      20.757 -10.156  -1.846 -0.52 -0.00    +0.000 A 
DOCKED: ATOM      4  C   UNL     1      20.937  -8.764  -1.815 -0.44 -0.00    +0.000 A 
DOCKED: ATOM      5  C   UNL     1      21.338  -8.071  -2.960 -0.38 -0.00    +0.000 A 
DOCKED: ATOM      6  C   UNL     1      21.578  -8.763  -4.149 -0.30 -0.00    +0.000 A 
DOCKED: ENDROOT
DOCKED: BRANCH   1   8
DOCKED: ATOM      7  O   UNL     1      22.155 -12.455  -5.382 -0.83 -0.00    +0.000 OA
DOCKED: ATOM      8  S   UNL     1      21.766 -11.035  -5.683 -0.62 -0.00    +0.000 S 
DOCKED: ATOM      9  O   UNL     1      22.901 -10.356  -6.395 -0.37 -0.00    +0.000 OA
DOCKED: BRANCH   8  10
DOCKED: ATOM     10  N   UNL     1      20.366 -11.036  -6.710 -0.26 -0.00    +0.000 N 
DOCKED: ATOM     11  H   UNL     1      20.449 -11.441  -7.603 -0.23 -0.00    +0.000 HD
DOCKED: BRANCH  10  12
DOCKED: ATOM     12  C   UNL     1      19.093 -10.481  -6.333 -0.29 -0.00    +0.000 A 
DOCKED: ATOM     13  C   UNL     1      17.982 -11.297  -6.042 -0.33 -0.00    +0.000 A 
DOCKED: ATOM     14  C   UNL     1      16.763 -10.722  -5.670 -0.24 -0.00    +0.000 A 
DOCKED: ATOM     15  C   UNL     1      16.637  -9.333  -5.591 -0.14 -0.00    +0.000 A 
DOCKED: ATOM     16  C   UNL     1      17.730  -8.516  -5.886 -0.11 -0.00    +0.000 A 
DOCKED: ATOM     17  C   UNL     1      18.950  -9.086  -6.258 -0.13 -0.00    +0.000 A 
DOCKED: ENDBRANCH  10  12
DOCKED: ENDBRANCH   8  10
DOCKED: ENDBRANCH   1   8
DOCKED: BRANCH   3  18
DOCKED: ATOM     18  C   UNL     1      20.343 -10.846  -0.599 -0.58 -0.00    +0.000 C 
DOCKED: ATOM     19  C   UNL     1      20.845 -10.560   0.612 -0.68 -0.00    +0.000 C 
DOCKED: BRANCH  19  20
DOCKED: ATOM     20  C   UNL     1      20.426 -11.250   1.850 -0.75 -0.00    +0.000 C 
DOCKED: ATOM     21  N   UNL     1      20.563 -10.653   3.145 -0.66 -0.00    +0.000 N 
DOCKED: ATOM     22  O   UNL     1      20.262 -11.365   4.255 -1.08 -0.00    +0.000 OA
DOCKED: ATOM     23  O   UNL     1      19.906 -12.394   1.753 -1.80 -0.00    +0.000 OA
DOCKED: ATOM     24  H   UNL     1      20.878  -9.723   3.227 -0.60 -0.00    +0.000 HD
DOCKED: ENDBRANCH  19  20
DOCKED: ENDBRANCH   3  18
DOCKED: TORSDOF 5
DOCKED: TER
DOCKED: ENDMDL
________________________________________________________________________________


	BEGINNING GENETIC ALGORITHM DOCKING 75 of 100
Run: 75 Seed: 1536218556 718672826 [ Run 75 of 100 GA/GALS ]
Beginning LAMARCKIAN GENETIC ALGORITHM (LGA), with a maximum of 2500000 energy evaluations.

Final-Value: -12.478


	FINAL GENETIC ALGORITHM DOCKED STATE
	_______________________________________________


Detailed state:  trans 17.002 -9.107 4.474 quatxyzw 0.565826 0.249505 -0.465954 -0.632831 center 0.217 0.012 -0.211 ntor 5 -126.9926 144.1536 -136.7211 166.8039 53.5643
State:	 17.002  -9.107   4.474   0.731  0.322 -0.602 -101.481   -126.99  144.15 -136.72  166.80   53.56

DOCKED: MODEL       75
DOCKED: USER    Run = 75
DOCKED: USER    DPF = ligand_dock.biased.dpf
DOCKED: USER  
DOCKED: USER    Estimated Free Energy of Binding    =  -10.01 kcal/mol  [=(1)+(2)+(3)-(4)]
DOCKED: USER    Estimated Inhibition Constant, Ki   =   45.91 nM (nanomolar)  [Temperature = 298.15 K]
DOCKED: USER    
DOCKED: USER    (1) Final Intermolecular Energy     =  -11.50 kcal/mol
DOCKED: USER        vdW + Hbond + desolv Energy     =  -11.50 kcal/mol
DOCKED: USER        Electrostatic Energy            =   +0.00 kcal/mol
DOCKED: USER    (2) Final Total Internal Energy     =   -0.98 kcal/mol
DOCKED: USER    (3) Torsional Free Energy           =   +1.49 kcal/mol
DOCKED: USER    (4) Unbound System's Energy  [=(2)] =   -0.98 kcal/mol
DOCKED: USER    
DOCKED: USER    
DOCKED: USER    NEWDPF move ligand.pdbqt
DOCKED: USER    NEWDPF about 0.217000 0.012000 -0.211000
DOCKED: USER    NEWDPF tran0 17.001718 -9.107201 4.474238
DOCKED: USER    NEWDPF quaternion0 0.565826 0.249505 -0.465954 -0.632831
DOCKED: USER    NEWDPF axisangle0 0.730767 0.322237 -0.601783 -101.481374
DOCKED: USER    NEWDPF quat0 0.730767 0.322237 -0.601783 -101.481374
DOCKED: USER    NEWDPF dihe0 -126.99 144.15 -136.72 166.80 53.56 
DOCKED: USER  keepresnum = 1 
DOCKED: USER  
DOCKED: REMARK  Name = 
DOCKED: REMARK  5 active torsions:
DOCKED: REMARK  status: ('A' for Active; 'I' for Inactive)
DOCKED: REMARK    1  A    between atoms: S_2  and  N_3
DOCKED: REMARK    2  A    between atoms: S_2  and  C_10
DOCKED: REMARK    3  A    between atoms: N_3  and  C_4
DOCKED: REMARK    4  A    between atoms: C_12  and  C_13
DOCKED: REMARK    5  A    between atoms: C_14  and  C_15
DOCKED: REMARK                            x       y       z     vdW  Elec       q    Type
DOCKED: REMARK                         _______ _______ _______ _____ _____    ______ ____
DOCKED: USER                              x       y       z     vdW  Elec       q    Type
DOCKED: USER                           _______ _______ _______ _____ _____    ______ ____
DOCKED: ROOT
DOCKED: ATOM      1  C   UNL     1      14.933  -8.732   3.892 -0.34 +0.00    +0.000 A 
DOCKED: ATOM      2  C   UNL     1      16.295  -8.928   3.625 -0.20 +0.00    +0.000 A 
DOCKED: ATOM      3  C   UNL     1      16.723 -10.022   2.843 -0.41 +0.00    +0.000 A 
DOCKED: ATOM      4  C   UNL     1      15.761 -10.918   2.350 -0.40 +0.00    +0.000 A 
DOCKED: ATOM      5  C   UNL     1      14.402 -10.717   2.607 -0.36 +0.00    +0.000 A 
DOCKED: ATOM      6  C   UNL     1      13.988  -9.626   3.372 -0.30 +0.00    +0.000 A 
DOCKED: ENDROOT
DOCKED: BRANCH   1   8
DOCKED: ATOM      7  O   UNL     1      14.113  -7.831   6.289 -0.58 +0.00    +0.000 OA
DOCKED: ATOM      8  S   UNL     1      14.416  -7.375   4.889 -0.53 +0.00    +0.000 S 
DOCKED: ATOM      9  O   UNL     1      13.174  -6.781   4.287 -0.23 +0.00    +0.000 OA
DOCKED: BRANCH   8  10
DOCKED: ATOM     10  N   UNL     1      15.660  -6.165   4.943 -0.47 +0.00    +0.000 N 
DOCKED: ATOM     11  H   UNL     1      16.509  -6.395   5.385 -0.57 -0.00    +0.000 HD
DOCKED: BRANCH  10  12
DOCKED: ATOM     12  C   UNL     1      15.524  -4.847   4.383 -0.38 -0.00    +0.000 A 
DOCKED: ATOM     13  C   UNL     1      15.876  -3.690   5.105 -0.49 -0.00    +0.000 A 
DOCKED: ATOM     14  C   UNL     1      15.739  -2.425   4.524 -0.39 -0.00    +0.000 A 
DOCKED: ATOM     15  C   UNL     1      15.246  -2.300   3.223 -0.35 -0.00    +0.000 A 
DOCKED: ATOM     16  C   UNL     1      14.885  -3.440   2.502 -0.25 -0.00    +0.000 A 
DOCKED: ATOM     17  C   UNL     1      15.021  -4.706   3.078 -0.26 -0.00    +0.000 A 
DOCKED: ENDBRANCH  10  12
DOCKED: ENDBRANCH   8  10
DOCKED: ENDBRANCH   1   8
DOCKED: BRANCH   3  18
DOCKED: ATOM     18  C   UNL     1      18.154 -10.287   2.554 -0.55 -0.00    +0.000 C 
DOCKED: ATOM     19  C   UNL     1      18.579 -11.042   1.530 -0.56 -0.00    +0.000 C 
DOCKED: BRANCH  19  20
DOCKED: ATOM     20  C   UNL     1      20.006 -11.300   1.247 -0.72 -0.00    +0.000 C 
DOCKED: ATOM     21  N   UNL     1      20.680 -10.728   0.119 -0.62 -0.00    +0.000 N 
DOCKED: ATOM     22  O   UNL     1      21.958 -11.077  -0.156 -0.67 -0.00    +0.000 OA
DOCKED: ATOM     23  O   UNL     1      20.654 -12.030   2.044 -1.87 -0.00    +0.000 OA
DOCKED: ATOM     24  H   UNL     1      20.212 -10.080  -0.457 -0.02 -0.00    +0.000 HD
DOCKED: ENDBRANCH  19  20
DOCKED: ENDBRANCH   3  18
DOCKED: TORSDOF 5
DOCKED: TER
DOCKED: ENDMDL
________________________________________________________________________________


	BEGINNING GENETIC ALGORITHM DOCKING 76 of 100
Run: 76 Seed: 1671276178 1541003599 [ Run 76 of 100 GA/GALS ]
Beginning LAMARCKIAN GENETIC ALGORITHM (LGA), with a maximum of 2500000 energy evaluations.

Final-Value: -12.992


	FINAL GENETIC ALGORITHM DOCKED STATE
	_______________________________________________


Detailed state:  trans 18.372 -10.531 -0.738 quatxyzw -0.580572 0.486771 0.361294 -0.543559 center 0.217 0.012 -0.211 ntor 5 -118.7674 162.3807 -141.9527 150.3787 -42.3458
State:	 18.372 -10.531  -0.738  -0.692  0.580  0.430 -114.147   -118.77  162.38 -141.95  150.38  -42.35

DOCKED: MODEL       76
DOCKED: USER    Run = 76
DOCKED: USER    DPF = ligand_dock.biased.dpf
DOCKED: USER  
DOCKED: USER    Estimated Free Energy of Binding    =  -10.46 kcal/mol  [=(1)+(2)+(3)-(4)]
DOCKED: USER    Estimated Inhibition Constant, Ki   =   21.36 nM (nanomolar)  [Temperature = 298.15 K]
DOCKED: USER    
DOCKED: USER    (1) Final Intermolecular Energy     =  -11.96 kcal/mol
DOCKED: USER        vdW + Hbond + desolv Energy     =  -11.96 kcal/mol
DOCKED: USER        Electrostatic Energy            =   +0.00 kcal/mol
DOCKED: USER    (2) Final Total Internal Energy     =   -1.04 kcal/mol
DOCKED: USER    (3) Torsional Free Energy           =   +1.49 kcal/mol
DOCKED: USER    (4) Unbound System's Energy  [=(2)] =   -1.04 kcal/mol
DOCKED: USER    
DOCKED: USER    
DOCKED: USER    NEWDPF move ligand.pdbqt
DOCKED: USER    NEWDPF about 0.217000 0.012000 -0.211000
DOCKED: USER    NEWDPF tran0 18.372329 -10.531452 -0.738085
DOCKED: USER    NEWDPF quaternion0 -0.580572 0.486771 0.361294 -0.543559
DOCKED: USER    NEWDPF axisangle0 -0.691675 0.579924 0.430434 -114.147490
DOCKED: USER    NEWDPF quat0 -0.691675 0.579924 0.430434 -114.147490
DOCKED: USER    NEWDPF dihe0 -118.77 162.38 -141.95 150.38 -42.35 
DOCKED: USER  keepresnum = 1 
DOCKED: USER  
DOCKED: REMARK  Name = 
DOCKED: REMARK  5 active torsions:
DOCKED: REMARK  status: ('A' for Active; 'I' for Inactive)
DOCKED: REMARK    1  A    between atoms: S_2  and  N_3
DOCKED: REMARK    2  A    between atoms: S_2  and  C_10
DOCKED: REMARK    3  A    between atoms: N_3  and  C_4
DOCKED: REMARK    4  A    between atoms: C_12  and  C_13
DOCKED: REMARK    5  A    between atoms: C_14  and  C_15
DOCKED: REMARK                            x       y       z     vdW  Elec       q    Type
DOCKED: REMARK                         _______ _______ _______ _____ _____    ______ ____
DOCKED: USER                              x       y       z     vdW  Elec       q    Type
DOCKED: USER                           _______ _______ _______ _____ _____    ______ ____
DOCKED: ROOT
DOCKED: ATOM      1  C   UNL     1      20.249 -10.630   0.370 -0.58 -0.00    +0.000 A 
DOCKED: ATOM      2  C   UNL     1      19.437 -10.875  -0.746 -0.46 -0.00    +0.000 A 
DOCKED: ATOM      3  C   UNL     1      19.762 -10.325  -2.003 -0.41 -0.00    +0.000 A 
DOCKED: ATOM      4  C   UNL     1      20.903  -9.514  -2.113 -0.50 -0.00    +0.000 A 
DOCKED: ATOM      5  C   UNL     1      21.718  -9.278  -1.003 -0.26 -0.00    +0.000 A 
DOCKED: ATOM      6  C   UNL     1      21.396  -9.837   0.234 -0.57 -0.00    +0.000 A 
DOCKED: ENDROOT
DOCKED: BRANCH   1   8
DOCKED: ATOM      7  O   UNL     1      20.997 -11.273   2.872 -1.31 -0.00    +0.000 OA
DOCKED: ATOM      8  S   UNL     1      19.819 -11.306   1.939 -0.90 -0.00    +0.000 S 
DOCKED: ATOM      9  O   UNL     1      19.385 -12.731   1.746 -1.42 -0.00    +0.000 OA
DOCKED: BRANCH   8  10
DOCKED: ATOM     10  N   UNL     1      18.514 -10.401   2.643 -0.53 -0.00    +0.000 N 
DOCKED: ATOM     11  H   UNL     1      18.734  -9.567   3.116 -0.12 -0.00    +0.000 HD
DOCKED: BRANCH  10  12
DOCKED: ATOM     12  C   UNL     1      17.133 -10.799   2.577 -0.43 +0.00    +0.000 A 
DOCKED: ATOM     13  C   UNL     1      16.212 -10.461   3.587 -0.45 +0.00    +0.000 A 
DOCKED: ATOM     14  C   UNL     1      14.874 -10.857   3.483 -0.42 +0.00    +0.000 A 
DOCKED: ATOM     15  C   UNL     1      14.444 -11.596   2.379 -0.43 +0.00    +0.000 A 
DOCKED: ATOM     16  C   UNL     1      15.352 -11.943   1.377 -0.42 +0.00    +0.000 A 
DOCKED: ATOM     17  C   UNL     1      16.690 -11.550   1.475 -0.39 +0.00    +0.000 A 
DOCKED: ENDBRANCH  10  12
DOCKED: ENDBRANCH   8  10
DOCKED: ENDBRANCH   1   8
DOCKED: BRANCH   3  18
DOCKED: ATOM     18  C   UNL     1      18.922 -10.533  -3.209 -0.38 -0.00    +0.000 C 
DOCKED: ATOM     19  C   UNL     1      19.338 -10.283  -4.460 -0.35 -0.00    +0.000 C 
DOCKED: BRANCH  19  20
DOCKED: ATOM     20  C   UNL     1      18.497 -10.496  -5.655 -0.32 -0.00    +0.000 C 
DOCKED: ATOM     21  N   UNL     1      18.636 -11.648  -6.496 -0.37 -0.00    +0.000 N 
DOCKED: ATOM     22  O   UNL     1      17.914 -11.746  -7.637 -0.41 -0.00    +0.000 OA
DOCKED: ATOM     23  O   UNL     1      17.610  -9.643  -5.925 -0.17 -0.00    +0.000 OA
DOCKED: ATOM     24  H   UNL     1      19.258 -12.369  -6.244 -0.35 -0.00    +0.000 HD
DOCKED: ENDBRANCH  19  20
DOCKED: ENDBRANCH   3  18
DOCKED: TORSDOF 5
DOCKED: TER
DOCKED: ENDMDL
________________________________________________________________________________


	BEGINNING GENETIC ALGORITHM DOCKING 77 of 100
Run: 77 Seed: 1685909572 1004504026 [ Run 77 of 100 GA/GALS ]
Beginning LAMARCKIAN GENETIC ALGORITHM (LGA), with a maximum of 2500000 energy evaluations.

Final-Value: -14.070


	FINAL GENETIC ALGORITHM DOCKED STATE
	_______________________________________________


Detailed state:  trans 22.124 -11.263 -2.214 quatxyzw 0.490770 0.390920 0.776554 0.057355 center 0.217 0.012 -0.211 ntor 5 58.2614 134.5737 -60.2250 101.4483 101.2783
State:	 22.124 -11.263  -2.214   0.492  0.392  0.778 173.424     58.26  134.57  -60.23  101.45  101.28

DOCKED: MODEL       77
DOCKED: USER    Run = 77
DOCKED: USER    DPF = ligand_dock.biased.dpf
DOCKED: USER  
DOCKED: USER    Estimated Free Energy of Binding    =  -11.34 kcal/mol  [=(1)+(2)+(3)-(4)]
DOCKED: USER    Estimated Inhibition Constant, Ki   =    4.85 nM (nanomolar)  [Temperature = 298.15 K]
DOCKED: USER    
DOCKED: USER    (1) Final Intermolecular Energy     =  -12.83 kcal/mol
DOCKED: USER        vdW + Hbond + desolv Energy     =  -12.83 kcal/mol
DOCKED: USER        Electrostatic Energy            =   +0.00 kcal/mol
DOCKED: USER    (2) Final Total Internal Energy     =   -1.24 kcal/mol
DOCKED: USER    (3) Torsional Free Energy           =   +1.49 kcal/mol
DOCKED: USER    (4) Unbound System's Energy  [=(2)] =   -1.24 kcal/mol
DOCKED: USER    
DOCKED: USER    
DOCKED: USER    NEWDPF move ligand.pdbqt
DOCKED: USER    NEWDPF about 0.217000 0.012000 -0.211000
DOCKED: USER    NEWDPF tran0 22.123807 -11.262950 -2.214112
DOCKED: USER    NEWDPF quaternion0 0.490770 0.390920 0.776554 0.057355
DOCKED: USER    NEWDPF axisangle0 0.491580 0.391564 0.777835 173.424030
DOCKED: USER    NEWDPF quat0 0.491580 0.391564 0.777835 173.424030
DOCKED: USER    NEWDPF dihe0 58.26 134.57 -60.23 101.45 101.28 
DOCKED: USER  keepresnum = 1 
DOCKED: USER  
DOCKED: REMARK  Name = 
DOCKED: REMARK  5 active torsions:
DOCKED: REMARK  status: ('A' for Active; 'I' for Inactive)
DOCKED: REMARK    1  A    between atoms: S_2  and  N_3
DOCKED: REMARK    2  A    between atoms: S_2  and  C_10
DOCKED: REMARK    3  A    between atoms: N_3  and  C_4
DOCKED: REMARK    4  A    between atoms: C_12  and  C_13
DOCKED: REMARK    5  A    between atoms: C_14  and  C_15
DOCKED: REMARK                            x       y       z     vdW  Elec       q    Type
DOCKED: REMARK                         _______ _______ _______ _____ _____    ______ ____
DOCKED: USER                              x       y       z     vdW  Elec       q    Type
DOCKED: USER                           _______ _______ _______ _____ _____    ______ ____
DOCKED: ROOT
DOCKED: ATOM      1  C   UNL     1      21.360 -10.004  -3.824 -0.43 -0.00    +0.000 A 
DOCKED: ATOM      2  C   UNL     1      21.296 -10.591  -2.552 -0.45 -0.00    +0.000 A 
DOCKED: ATOM      3  C   UNL     1      21.273  -9.788  -1.392 -0.56 -0.00    +0.000 A 
DOCKED: ATOM      4  C   UNL     1      21.332  -8.392  -1.534 -0.44 -0.00    +0.000 A 
DOCKED: ATOM      5  C   UNL     1      21.385  -7.807  -2.802 -0.39 -0.00    +0.000 A 
DOCKED: ATOM      6  C   UNL     1      21.395  -8.609  -3.944 -0.34 -0.00    +0.000 A 
DOCKED: ENDROOT
DOCKED: BRANCH   1   8
DOCKED: ATOM      7  O   UNL     1      22.520 -12.028  -5.160 -0.68 -0.00    +0.000 OA
DOCKED: ATOM      8  S   UNL     1      21.410 -11.020  -5.262 -0.64 -0.00    +0.000 S 
DOCKED: ATOM      9  O   UNL     1      21.649 -10.146  -6.460 -0.32 -0.00    +0.000 OA
DOCKED: BRANCH   8  10
DOCKED: ATOM     10  N   UNL     1      19.901 -11.856  -5.457 -0.42 -0.00    +0.000 N 
DOCKED: ATOM     11  H   UNL     1      19.929 -12.826  -5.622 -0.54 -0.00    +0.000 HD
DOCKED: BRANCH  10  12
DOCKED: ATOM     12  C   UNL     1      18.613 -11.217  -5.391 -0.34 -0.00    +0.000 A 
DOCKED: ATOM     13  C   UNL     1      17.695 -11.282  -6.457 -0.34 -0.00    +0.000 A 
DOCKED: ATOM     14  C   UNL     1      16.448 -10.657  -6.353 -0.23 -0.00    +0.000 A 
DOCKED: ATOM     15  C   UNL     1      16.108  -9.957  -5.193 -0.17 -0.00    +0.000 A 
DOCKED: ATOM     16  C   UNL     1      17.016  -9.879  -4.135 -0.22 -0.00    +0.000 A 
DOCKED: ATOM     17  C   UNL     1      18.262 -10.503  -4.233 -0.27 -0.00    +0.000 A 
DOCKED: ENDBRANCH  10  12
DOCKED: ENDBRANCH   8  10
DOCKED: ENDBRANCH   1   8
DOCKED: BRANCH   3  18
DOCKED: ATOM     18  C   UNL     1      21.231 -10.361  -0.024 -0.70 -0.00    +0.000 C 
DOCKED: ATOM     19  C   UNL     1      20.103 -10.762   0.581 -0.66 -0.00    +0.000 C 
DOCKED: BRANCH  19  20
DOCKED: ATOM     20  C   UNL     1      20.070 -11.334   1.944 -0.75 -0.00    +0.000 C 
DOCKED: ATOM     21  N   UNL     1      20.197 -10.524   3.119 -0.69 -0.00    +0.000 N 
DOCKED: ATOM     22  O   UNL     1      20.266 -11.106   4.339 -1.00 -0.00    +0.000 OA
DOCKED: ATOM     23  O   UNL     1      19.898 -12.576   2.069 -1.70 -0.00    +0.000 OA
DOCKED: ATOM     24  H   UNL     1      20.235  -9.543   3.038 -0.57 -0.00    +0.000 HD
DOCKED: ENDBRANCH  19  20
DOCKED: ENDBRANCH   3  18
DOCKED: TORSDOF 5
DOCKED: TER
DOCKED: ENDMDL
________________________________________________________________________________


	BEGINNING GENETIC ALGORITHM DOCKING 78 of 100
Run: 78 Seed: 1104256287 375797167 [ Run 78 of 100 GA/GALS ]
Beginning LAMARCKIAN GENETIC ALGORITHM (LGA), with a maximum of 2500000 energy evaluations.

Final-Value: -13.212


	FINAL GENETIC ALGORITHM DOCKED STATE
	_______________________________________________


Detailed state:  trans 20.328 -7.787 -0.766 quatxyzw -0.713640 0.531452 0.234272 0.391653 center 0.217 0.012 -0.211 ntor 5 161.6888 -179.7317 27.1873 -137.1074 -8.7151
State:	 20.328  -7.787  -0.766  -0.776  0.578  0.255 133.885    161.69 -179.73   27.19 -137.11   -8.72

DOCKED: MODEL       78
DOCKED: USER    Run = 78
DOCKED: USER    DPF = ligand_dock.biased.dpf
DOCKED: USER  
DOCKED: USER    Estimated Free Energy of Binding    =  -10.79 kcal/mol  [=(1)+(2)+(3)-(4)]
DOCKED: USER    Estimated Inhibition Constant, Ki   =   12.41 nM (nanomolar)  [Temperature = 298.15 K]
DOCKED: USER    
DOCKED: USER    (1) Final Intermolecular Energy     =  -12.28 kcal/mol
DOCKED: USER        vdW + Hbond + desolv Energy     =  -12.28 kcal/mol
DOCKED: USER        Electrostatic Energy            =   +0.00 kcal/mol
DOCKED: USER    (2) Final Total Internal Energy     =   -0.93 kcal/mol
DOCKED: USER    (3) Torsional Free Energy           =   +1.49 kcal/mol
DOCKED: USER    (4) Unbound System's Energy  [=(2)] =   -0.93 kcal/mol
DOCKED: USER    
DOCKED: USER    
DOCKED: USER    NEWDPF move ligand.pdbqt
DOCKED: USER    NEWDPF about 0.217000 0.012000 -0.211000
DOCKED: USER    NEWDPF tran0 20.328312 -7.786715 -0.765716
DOCKED: USER    NEWDPF quaternion0 -0.713640 0.531452 0.234272 0.391653
DOCKED: USER    NEWDPF axisangle0 -0.775601 0.577595 0.254612 133.885157
DOCKED: USER    NEWDPF quat0 -0.775601 0.577595 0.254612 133.885157
DOCKED: USER    NEWDPF dihe0 161.69 -179.73 27.19 -137.11 -8.72 
DOCKED: USER  keepresnum = 1 
DOCKED: USER  
DOCKED: REMARK  Name = 
DOCKED: REMARK  5 active torsions:
DOCKED: REMARK  status: ('A' for Active; 'I' for Inactive)
DOCKED: REMARK    1  A    between atoms: S_2  and  N_3
DOCKED: REMARK    2  A    between atoms: S_2  and  C_10
DOCKED: REMARK    3  A    between atoms: N_3  and  C_4
DOCKED: REMARK    4  A    between atoms: C_12  and  C_13
DOCKED: REMARK    5  A    between atoms: C_14  and  C_15
DOCKED: REMARK                            x       y       z     vdW  Elec       q    Type
DOCKED: REMARK                         _______ _______ _______ _____ _____    ______ ____
DOCKED: USER                              x       y       z     vdW  Elec       q    Type
DOCKED: USER                           _______ _______ _______ _____ _____    ______ ____
DOCKED: ROOT
DOCKED: ATOM      1  C   UNL     1      21.410  -6.992  -2.486 -0.41 -0.00    +0.000 A 
DOCKED: ATOM      2  C   UNL     1      21.205  -7.914  -1.449 -0.31 -0.00    +0.000 A 
DOCKED: ATOM      3  C   UNL     1      20.974  -9.275  -1.736 -0.51 -0.00    +0.000 A 
DOCKED: ATOM      4  C   UNL     1      20.937  -9.688  -3.077 -0.45 -0.00    +0.000 A 
DOCKED: ATOM      5  C   UNL     1      21.153  -8.772  -4.110 -0.33 -0.00    +0.000 A 
DOCKED: ATOM      6  C   UNL     1      21.393  -7.429  -3.816 -0.31 -0.00    +0.000 A 
DOCKED: ENDROOT
DOCKED: BRANCH   1   8
DOCKED: ATOM      7  O   UNL     1      21.466  -4.442  -3.336 -0.20 -0.00    +0.000 OA
DOCKED: ATOM      8  S   UNL     1      21.676  -5.291  -2.113 -0.53 -0.00    +0.000 S 
DOCKED: ATOM      9  O   UNL     1      23.088  -5.119  -1.632 -0.71 +0.00    +0.000 OA
DOCKED: BRANCH   8  10
DOCKED: ATOM     10  N   UNL     1      20.581  -4.773  -0.869 -0.47 +0.00    +0.000 N 
DOCKED: ATOM     11  H   UNL     1      19.856  -5.386  -0.608 -0.08 +0.00    +0.000 HD
DOCKED: BRANCH  10  12
DOCKED: ATOM     12  C   UNL     1      20.668  -3.503  -0.200 -0.35 +0.00    +0.000 A 
DOCKED: ATOM     13  C   UNL     1      19.631  -3.021   0.622 -0.32 -0.00    +0.000 A 
DOCKED: ATOM     14  C   UNL     1      19.756  -1.785   1.265 -0.35 -0.00    +0.000 A 
DOCKED: ATOM     15  C   UNL     1      20.908  -1.017   1.092 -0.31 -0.00    +0.000 A 
DOCKED: ATOM     16  C   UNL     1      21.939  -1.482   0.272 -0.30 -0.00    +0.000 A 
DOCKED: ATOM     17  C   UNL     1      21.820  -2.716  -0.373 -0.33 +0.00    +0.000 A 
DOCKED: ENDBRANCH  10  12
DOCKED: ENDBRANCH   8  10
DOCKED: ENDBRANCH   1   8
DOCKED: BRANCH   3  18
DOCKED: ATOM     18  C   UNL     1      20.726 -10.285  -0.677 -0.66 -0.00    +0.000 C 
DOCKED: ATOM     19  C   UNL     1      20.615  -9.985   0.627 -0.59 -0.00    +0.000 C 
DOCKED: BRANCH  19  20
DOCKED: ATOM     20  C   UNL     1      20.366 -10.996   1.676 -0.73 -0.00    +0.000 C 
DOCKED: ATOM     21  N   UNL     1      20.260 -10.652   3.062 -0.69 -0.00    +0.000 N 
DOCKED: ATOM     22  O   UNL     1      20.136 -11.625   3.994 -1.20 -0.00    +0.000 OA
DOCKED: ATOM     23  O   UNL     1      20.217 -12.198   1.327 -1.59 -0.00    +0.000 OA
DOCKED: ATOM     24  H   UNL     1      20.278  -9.706   3.337 -0.56 -0.00    +0.000 HD
DOCKED: ENDBRANCH  19  20
DOCKED: ENDBRANCH   3  18
DOCKED: TORSDOF 5
DOCKED: TER
DOCKED: ENDMDL
________________________________________________________________________________


	BEGINNING GENETIC ALGORITHM DOCKING 79 of 100
Run: 79 Seed: 582005076 834498234 [ Run 79 of 100 GA/GALS ]
Beginning LAMARCKIAN GENETIC ALGORITHM (LGA), with a maximum of 2500000 energy evaluations.

Final-Value: -14.232


	FINAL GENETIC ALGORITHM DOCKED STATE
	_______________________________________________


Detailed state:  trans 17.841 -8.964 2.134 quatxyzw 0.055268 0.966364 -0.004265 0.251134 center 0.217 0.012 -0.211 ntor 5 100.4971 -163.5963 -22.8187 -13.5204 -29.5848
State:	 17.841  -8.964   2.134   0.057  0.998 -0.004 150.911    100.50 -163.60  -22.82  -13.52  -29.58

DOCKED: MODEL       79
DOCKED: USER    Run = 79
DOCKED: USER    DPF = ligand_dock.biased.dpf
DOCKED: USER  
DOCKED: USER    Estimated Free Energy of Binding    =  -11.60 kcal/mol  [=(1)+(2)+(3)-(4)]
DOCKED: USER    Estimated Inhibition Constant, Ki   =    3.16 nM (nanomolar)  [Temperature = 298.15 K]
DOCKED: USER    
DOCKED: USER    (1) Final Intermolecular Energy     =  -13.09 kcal/mol
DOCKED: USER        vdW + Hbond + desolv Energy     =  -13.09 kcal/mol
DOCKED: USER        Electrostatic Energy            =   +0.00 kcal/mol
DOCKED: USER    (2) Final Total Internal Energy     =   -1.14 kcal/mol
DOCKED: USER    (3) Torsional Free Energy           =   +1.49 kcal/mol
DOCKED: USER    (4) Unbound System's Energy  [=(2)] =   -1.14 kcal/mol
DOCKED: USER    
DOCKED: USER    
DOCKED: USER    NEWDPF move ligand.pdbqt
DOCKED: USER    NEWDPF about 0.217000 0.012000 -0.211000
DOCKED: USER    NEWDPF tran0 17.840897 -8.964006 2.134185
DOCKED: USER    NEWDPF quaternion0 0.055268 0.966364 -0.004265 0.251134
DOCKED: USER    NEWDPF axisangle0 0.057097 0.998359 -0.004406 150.910733
DOCKED: USER    NEWDPF quat0 0.057097 0.998359 -0.004406 150.910733
DOCKED: USER    NEWDPF dihe0 100.50 -163.60 -22.82 -13.52 -29.58 
DOCKED: USER  keepresnum = 1 
DOCKED: USER  
DOCKED: REMARK  Name = 
DOCKED: REMARK  5 active torsions:
DOCKED: REMARK  status: ('A' for Active; 'I' for Inactive)
DOCKED: REMARK    1  A    between atoms: S_2  and  N_3
DOCKED: REMARK    2  A    between atoms: S_2  and  C_10
DOCKED: REMARK    3  A    between atoms: N_3  and  C_4
DOCKED: REMARK    4  A    between atoms: C_12  and  C_13
DOCKED: REMARK    5  A    between atoms: C_14  and  C_15
DOCKED: REMARK                            x       y       z     vdW  Elec       q    Type
DOCKED: REMARK                         _______ _______ _______ _____ _____    ______ ____
DOCKED: USER                              x       y       z     vdW  Elec       q    Type
DOCKED: USER                           _______ _______ _______ _____ _____    ______ ____
DOCKED: ROOT
DOCKED: ATOM      1  C   UNL     1      18.112 -11.125   1.998 -0.46 -0.00    +0.000 A 
DOCKED: ATOM      2  C   UNL     1      17.536  -9.964   2.533 -0.42 +0.00    +0.000 A 
DOCKED: ATOM      3  C   UNL     1      16.146  -9.744   2.438 -0.36 +0.00    +0.000 A 
DOCKED: ATOM      4  C   UNL     1      15.353 -10.701   1.784 -0.33 +0.00    +0.000 A 
DOCKED: ATOM      5  C   UNL     1      15.926 -11.863   1.260 -0.41 +0.00    +0.000 A 
DOCKED: ATOM      6  C   UNL     1      17.300 -12.077   1.370 -0.38 +0.00    +0.000 A 
DOCKED: ENDROOT
DOCKED: BRANCH   1   8
DOCKED: ATOM      7  O   UNL     1      20.229 -12.723   1.557 -1.46 -0.00    +0.000 OA
DOCKED: ATOM      8  S   UNL     1      19.853 -11.375   2.105 -0.92 -0.00    +0.000 S 
DOCKED: ATOM      9  O   UNL     1      20.262 -11.299   3.548 -1.35 -0.00    +0.000 OA
DOCKED: BRANCH   8  10
DOCKED: ATOM     10  N   UNL     1      20.690 -10.145   1.208 -0.56 -0.00    +0.000 N 
DOCKED: ATOM     11  H   UNL     1      21.248  -9.507   1.709 -0.55 -0.00    +0.000 HD
DOCKED: BRANCH  10  12
DOCKED: ATOM     12  C   UNL     1      20.617 -10.004  -0.222 -0.58 -0.00    +0.000 A 
DOCKED: ATOM     13  C   UNL     1      21.385  -9.048  -0.915 -0.52 -0.00    +0.000 A 
DOCKED: ATOM     14  C   UNL     1      21.295  -8.946  -2.307 -0.45 -0.00    +0.000 A 
DOCKED: ATOM     15  C   UNL     1      20.438  -9.788  -3.019 -0.42 -0.00    +0.000 A 
DOCKED: ATOM     16  C   UNL     1      19.666 -10.732  -2.340 -0.39 -0.00    +0.000 A 
DOCKED: ATOM     17  C   UNL     1      19.753 -10.839  -0.949 -0.46 -0.00    +0.000 A 
DOCKED: ENDBRANCH  10  12
DOCKED: ENDBRANCH   8  10
DOCKED: ENDBRANCH   1   8
DOCKED: BRANCH   3  18
DOCKED: ATOM     18  C   UNL     1      15.491  -8.521   2.965 -0.35 +0.00    +0.000 C 
DOCKED: ATOM     19  C   UNL     1      15.751  -8.000   4.174 -0.22 +0.00    +0.000 C 
DOCKED: BRANCH  19  20
DOCKED: ATOM     20  C   UNL     1      15.096  -6.780   4.691 -0.46 +0.00    +0.000 C 
DOCKED: ATOM     21  N   UNL     1      14.284  -6.787   5.871 -0.47 +0.00    +0.000 N 
DOCKED: ATOM     22  O   UNL     1      13.621  -5.668   6.245 -1.09 +0.00    +0.000 OA
DOCKED: ATOM     23  O   UNL     1      15.285  -5.694   4.082 -0.44 +0.00    +0.000 OA
DOCKED: ATOM     24  H   UNL     1      14.206  -7.608   6.410 -0.05 +0.00    +0.000 HD
DOCKED: ENDBRANCH  19  20
DOCKED: ENDBRANCH   3  18
DOCKED: TORSDOF 5
DOCKED: TER
DOCKED: ENDMDL
________________________________________________________________________________


	BEGINNING GENETIC ALGORITHM DOCKING 80 of 100
Run: 80 Seed: 258872487 426701566 [ Run 80 of 100 GA/GALS ]
Beginning LAMARCKIAN GENETIC ALGORITHM (LGA), with a maximum of 2500000 energy evaluations.

Final-Value: -13.787


	FINAL GENETIC ALGORITHM DOCKED STATE
	_______________________________________________


Detailed state:  trans 22.002 -11.587 -2.619 quatxyzw -0.497699 -0.354556 -0.788930 -0.064611 center 0.217 0.012 -0.211 ntor 5 117.1358 68.1682 -108.3357 -179.7636 -114.8606
State:	 22.002 -11.587  -2.619  -0.499 -0.355 -0.791 -172.591    117.14   68.17 -108.34 -179.76 -114.86

DOCKED: MODEL       80
DOCKED: USER    Run = 80
DOCKED: USER    DPF = ligand_dock.biased.dpf
DOCKED: USER  
DOCKED: USER    Estimated Free Energy of Binding    =  -11.36 kcal/mol  [=(1)+(2)+(3)-(4)]
DOCKED: USER    Estimated Inhibition Constant, Ki   =    4.73 nM (nanomolar)  [Temperature = 298.15 K]
DOCKED: USER    
DOCKED: USER    (1) Final Intermolecular Energy     =  -12.85 kcal/mol
DOCKED: USER        vdW + Hbond + desolv Energy     =  -12.85 kcal/mol
DOCKED: USER        Electrostatic Energy            =   +0.00 kcal/mol
DOCKED: USER    (2) Final Total Internal Energy     =   -0.94 kcal/mol
DOCKED: USER    (3) Torsional Free Energy           =   +1.49 kcal/mol
DOCKED: USER    (4) Unbound System's Energy  [=(2)] =   -0.94 kcal/mol
DOCKED: USER    
DOCKED: USER    
DOCKED: USER    NEWDPF move ligand.pdbqt
DOCKED: USER    NEWDPF about 0.217000 0.012000 -0.211000
DOCKED: USER    NEWDPF tran0 22.002426 -11.586999 -2.619089
DOCKED: USER    NEWDPF quaternion0 -0.497699 -0.354556 -0.788930 -0.064611
DOCKED: USER    NEWDPF axisangle0 -0.498741 -0.355299 -0.790582 -172.590955
DOCKED: USER    NEWDPF quat0 -0.498741 -0.355299 -0.790582 -172.590955
DOCKED: USER    NEWDPF dihe0 117.14 68.17 -108.34 -179.76 -114.86 
DOCKED: USER  keepresnum = 1 
DOCKED: USER  
DOCKED: REMARK  Name = 
DOCKED: REMARK  5 active torsions:
DOCKED: REMARK  status: ('A' for Active; 'I' for Inactive)
DOCKED: REMARK    1  A    between atoms: S_2  and  N_3
DOCKED: REMARK    2  A    between atoms: S_2  and  C_10
DOCKED: REMARK    3  A    between atoms: N_3  and  C_4
DOCKED: REMARK    4  A    between atoms: C_12  and  C_13
DOCKED: REMARK    5  A    between atoms: C_14  and  C_15
DOCKED: REMARK                            x       y       z     vdW  Elec       q    Type
DOCKED: REMARK                         _______ _______ _______ _____ _____    ______ ____
DOCKED: USER                              x       y       z     vdW  Elec       q    Type
DOCKED: USER                           _______ _______ _______ _____ _____    ______ ____
DOCKED: ROOT
DOCKED: ATOM      1  C   UNL     1      21.267 -10.191  -4.126 -0.43 -0.00    +0.000 A 
DOCKED: ATOM      2  C   UNL     1      21.193 -10.867  -2.900 -0.35 -0.00    +0.000 A 
DOCKED: ATOM      3  C   UNL     1      21.205 -10.150  -1.685 -0.55 -0.00    +0.000 A 
DOCKED: ATOM      4  C   UNL     1      21.306  -8.750  -1.726 -0.47 -0.00    +0.000 A 
DOCKED: ATOM      5  C   UNL     1      21.369  -8.076  -2.948 -0.39 -0.00    +0.000 A 
DOCKED: ATOM      6  C   UNL     1      21.345  -8.793  -4.145 -0.33 -0.00    +0.000 A 
DOCKED: ENDROOT
DOCKED: BRANCH   1   8
DOCKED: ATOM      7  O   UNL     1      19.873 -11.295  -6.144 -0.42 -0.00    +0.000 OA
DOCKED: ATOM      8  S   UNL     1      21.274 -11.101  -5.635 -0.60 -0.00    +0.000 S 
DOCKED: ATOM      9  O   UNL     1      21.895 -12.445  -5.383 -0.83 -0.00    +0.000 OA
DOCKED: BRANCH   8  10
DOCKED: ATOM     10  N   UNL     1      22.202 -10.259  -6.837 -0.30 -0.00    +0.000 N 
DOCKED: ATOM     11  H   UNL     1      21.984  -9.315  -7.010 +0.00 -0.00    +0.000 HD
DOCKED: BRANCH  10  12
DOCKED: ATOM     12  C   UNL     1      23.268 -10.858  -7.594 -0.35 -0.00    +0.000 A 
DOCKED: ATOM     13  C   UNL     1      23.072 -12.022  -8.363 -0.37 -0.00    +0.000 A 
DOCKED: ATOM     14  C   UNL     1      24.130 -12.571  -9.095 -0.38 -0.00    +0.000 A 
DOCKED: ATOM     15  C   UNL     1      25.391 -11.971  -9.063 -0.37 -0.00    +0.000 A 
DOCKED: ATOM     16  C   UNL     1      25.598 -10.823  -8.297 -0.35 -0.00    +0.000 A 
DOCKED: ATOM     17  C   UNL     1      24.544 -10.270  -7.564 -0.27 -0.00    +0.000 A 
DOCKED: ENDBRANCH  10  12
DOCKED: ENDBRANCH   8  10
DOCKED: ENDBRANCH   1   8
DOCKED: BRANCH   3  18
DOCKED: ATOM     18  C   UNL     1      21.155 -10.819  -0.361 -0.63 -0.00    +0.000 C 
DOCKED: ATOM     19  C   UNL     1      20.313 -10.464   0.622 -0.66 -0.00    +0.000 C 
DOCKED: BRANCH  19  20
DOCKED: ATOM     20  C   UNL     1      20.268 -11.137   1.937 -0.75 -0.00    +0.000 C 
DOCKED: ATOM     21  N   UNL     1      20.200 -10.409   3.169 -0.65 -0.00    +0.000 N 
DOCKED: ATOM     22  O   UNL     1      20.266 -11.067   4.349 -0.99 -0.00    +0.000 OA
DOCKED: ATOM     23  O   UNL     1      20.263 -12.397   1.966 -1.85 -0.00    +0.000 OA
DOCKED: ATOM     24  H   UNL     1      20.106  -9.429   3.156 -0.58 -0.00    +0.000 HD
DOCKED: ENDBRANCH  19  20
DOCKED: ENDBRANCH   3  18
DOCKED: TORSDOF 5
DOCKED: TER
DOCKED: ENDMDL
________________________________________________________________________________


	BEGINNING GENETIC ALGORITHM DOCKING 81 of 100
Run: 81 Seed: 925426990 1521122640 [ Run 81 of 100 GA/GALS ]
Beginning LAMARCKIAN GENETIC ALGORITHM (LGA), with a maximum of 2500000 energy evaluations.

Final-Value: -13.290


	FINAL GENETIC ALGORITHM DOCKED STATE
	_______________________________________________


Detailed state:  trans 18.308 -10.945 -1.149 quatxyzw -0.633370 0.428812 0.391369 -0.511657 center 0.217 0.012 -0.211 ntor 5 -13.3059 138.4286 -128.4287 -9.0682 37.2338
State:	 18.308 -10.945  -1.149  -0.737  0.499  0.456 -118.451    -13.31  138.43 -128.43   -9.07   37.23

DOCKED: MODEL       81
DOCKED: USER    Run = 81
DOCKED: USER    DPF = ligand_dock.biased.dpf
DOCKED: USER  
DOCKED: USER    Estimated Free Energy of Binding    =  -10.53 kcal/mol  [=(1)+(2)+(3)-(4)]
DOCKED: USER    Estimated Inhibition Constant, Ki   =   19.08 nM (nanomolar)  [Temperature = 298.15 K]
DOCKED: USER    
DOCKED: USER    (1) Final Intermolecular Energy     =  -12.02 kcal/mol
DOCKED: USER        vdW + Hbond + desolv Energy     =  -12.02 kcal/mol
DOCKED: USER        Electrostatic Energy            =   +0.00 kcal/mol
DOCKED: USER    (2) Final Total Internal Energy     =   -1.27 kcal/mol
DOCKED: USER    (3) Torsional Free Energy           =   +1.49 kcal/mol
DOCKED: USER    (4) Unbound System's Energy  [=(2)] =   -1.27 kcal/mol
DOCKED: USER    
DOCKED: USER    
DOCKED: USER    NEWDPF move ligand.pdbqt
DOCKED: USER    NEWDPF about 0.217000 0.012000 -0.211000
DOCKED: USER    NEWDPF tran0 18.307774 -10.944509 -1.148660
DOCKED: USER    NEWDPF quaternion0 -0.633370 0.428812 0.391369 -0.511657
DOCKED: USER    NEWDPF axisangle0 -0.737171 0.499089 0.455510 -118.451483
DOCKED: USER    NEWDPF quat0 -0.737171 0.499089 0.455510 -118.451483
DOCKED: USER    NEWDPF dihe0 -13.31 138.43 -128.43 -9.07 37.23 
DOCKED: USER  keepresnum = 1 
DOCKED: USER  
DOCKED: REMARK  Name = 
DOCKED: REMARK  5 active torsions:
DOCKED: REMARK  status: ('A' for Active; 'I' for Inactive)
DOCKED: REMARK    1  A    between atoms: S_2  and  N_3
DOCKED: REMARK    2  A    between atoms: S_2  and  C_10
DOCKED: REMARK    3  A    between atoms: N_3  and  C_4
DOCKED: REMARK    4  A    between atoms: C_12  and  C_13
DOCKED: REMARK    5  A    between atoms: C_14  and  C_15
DOCKED: REMARK                            x       y       z     vdW  Elec       q    Type
DOCKED: REMARK                         _______ _______ _______ _____ _____    ______ ____
DOCKED: USER                              x       y       z     vdW  Elec       q    Type
DOCKED: USER                           _______ _______ _______ _____ _____    ______ ____
DOCKED: ROOT
DOCKED: ATOM      1  C   UNL     1      20.131 -10.692   0.023 -0.56 -0.00    +0.000 A 
DOCKED: ATOM      2  C   UNL     1      19.415 -11.098  -1.112 -0.39 -0.00    +0.000 A 
DOCKED: ATOM      3  C   UNL     1      19.686 -10.524  -2.372 -0.41 -0.00    +0.000 A 
DOCKED: ATOM      4  C   UNL     1      20.673  -9.530  -2.466 -0.46 -0.00    +0.000 A 
DOCKED: ATOM      5  C   UNL     1      21.393  -9.133  -1.336 -0.51 -0.00    +0.000 A 
DOCKED: ATOM      6  C   UNL     1      21.127  -9.715  -0.095 -0.60 -0.00    +0.000 A 
DOCKED: ENDROOT
DOCKED: BRANCH   1   8
DOCKED: ATOM      7  O   UNL     1      19.271 -10.350   2.548 -0.72 -0.00    +0.000 OA
DOCKED: ATOM      8  S   UNL     1      19.766 -11.401   1.594 -0.89 -0.00    +0.000 S 
DOCKED: ATOM      9  O   UNL     1      21.021 -12.014   2.148 -1.71 -0.00    +0.000 OA
DOCKED: BRANCH   8  10
DOCKED: ATOM     10  N   UNL     1      18.554 -12.633   1.428 -0.50 -0.00    +0.000 N 
DOCKED: ATOM     11  H   UNL     1      18.792 -13.553   1.682 -0.44 -0.00    +0.000 HD
DOCKED: BRANCH  10  12
DOCKED: ATOM     12  C   UNL     1      17.222 -12.388   0.941 -0.45 +0.00    +0.000 A 
DOCKED: ATOM     13  C   UNL     1      16.675 -13.121  -0.130 -0.47 +0.00    +0.000 A 
DOCKED: ATOM     14  C   UNL     1      15.372 -12.862  -0.569 -0.47 +0.00    +0.000 A 
DOCKED: ATOM     15  C   UNL     1      14.607 -11.870   0.047 -0.40 +0.00    +0.000 A 
DOCKED: ATOM     16  C   UNL     1      15.144 -11.132   1.104 -0.33 +0.00    +0.000 A 
DOCKED: ATOM     17  C   UNL     1      16.445 -11.387   1.548 -0.38 +0.00    +0.000 A 
DOCKED: ENDBRANCH  10  12
DOCKED: ENDBRANCH   8  10
DOCKED: ENDBRANCH   1   8
DOCKED: BRANCH   3  18
DOCKED: ATOM     18  C   UNL     1      18.940 -10.901  -3.599 -0.34 -0.00    +0.000 C 
DOCKED: ATOM     19  C   UNL     1      19.462 -10.846  -4.834 -0.43 -0.00    +0.000 C 
DOCKED: BRANCH  19  20
DOCKED: ATOM     20  C   UNL     1      18.714 -11.225  -6.051 -0.40 -0.00    +0.000 C 
DOCKED: ATOM     21  N   UNL     1      17.329 -11.592  -6.016 -0.34 -0.00    +0.000 N 
DOCKED: ATOM     22  O   UNL     1      16.716 -12.032  -7.140 -0.45 -0.00    +0.000 OA
DOCKED: ATOM     23  O   UNL     1      19.315 -11.197  -7.158 -0.38 -0.00    +0.000 OA
DOCKED: ATOM     24  H   UNL     1      16.823 -11.525  -5.174 -0.02 -0.00    +0.000 HD
DOCKED: ENDBRANCH  19  20
DOCKED: ENDBRANCH   3  18
DOCKED: TORSDOF 5
DOCKED: TER
DOCKED: ENDMDL
________________________________________________________________________________


	BEGINNING GENETIC ALGORITHM DOCKING 82 of 100
Run: 82 Seed: 38312080 1232802226 [ Run 82 of 100 GA/GALS ]
Beginning LAMARCKIAN GENETIC ALGORITHM (LGA), with a maximum of 2500000 energy evaluations.

Final-Value: -13.500


	FINAL GENETIC ALGORITHM DOCKED STATE
	_______________________________________________


Detailed state:  trans 22.011 -11.516 -2.349 quatxyzw -0.523377 -0.397327 -0.751918 -0.053173 center 0.217 0.012 -0.211 ntor 5 77.2577 -143.5317 -68.9220 -42.3977 -176.1903
State:	 22.011 -11.516  -2.349  -0.524 -0.398 -0.753 -173.904     77.26 -143.53  -68.92  -42.40 -176.19

DOCKED: MODEL       82
DOCKED: USER    Run = 82
DOCKED: USER    DPF = ligand_dock.biased.dpf
DOCKED: USER  
DOCKED: USER    Estimated Free Energy of Binding    =  -10.99 kcal/mol  [=(1)+(2)+(3)-(4)]
DOCKED: USER    Estimated Inhibition Constant, Ki   =    8.73 nM (nanomolar)  [Temperature = 298.15 K]
DOCKED: USER    
DOCKED: USER    (1) Final Intermolecular Energy     =  -12.49 kcal/mol
DOCKED: USER        vdW + Hbond + desolv Energy     =  -12.49 kcal/mol
DOCKED: USER        Electrostatic Energy            =   +0.00 kcal/mol
DOCKED: USER    (2) Final Total Internal Energy     =   -1.01 kcal/mol
DOCKED: USER    (3) Torsional Free Energy           =   +1.49 kcal/mol
DOCKED: USER    (4) Unbound System's Energy  [=(2)] =   -1.01 kcal/mol
DOCKED: USER    
DOCKED: USER    
DOCKED: USER    NEWDPF move ligand.pdbqt
DOCKED: USER    NEWDPF about 0.217000 0.012000 -0.211000
DOCKED: USER    NEWDPF tran0 22.011180 -11.516317 -2.348725
DOCKED: USER    NEWDPF quaternion0 -0.523377 -0.397327 -0.751918 -0.053173
DOCKED: USER    NEWDPF axisangle0 -0.524118 -0.397889 -0.752984 -173.903921
DOCKED: USER    NEWDPF quat0 -0.524118 -0.397889 -0.752984 -173.903921
DOCKED: USER    NEWDPF dihe0 77.26 -143.53 -68.92 -42.40 -176.19 
DOCKED: USER  keepresnum = 1 
DOCKED: USER  
DOCKED: REMARK  Name = 
DOCKED: REMARK  5 active torsions:
DOCKED: REMARK  status: ('A' for Active; 'I' for Inactive)
DOCKED: REMARK    1  A    between atoms: S_2  and  N_3
DOCKED: REMARK    2  A    between atoms: S_2  and  C_10
DOCKED: REMARK    3  A    between atoms: N_3  and  C_4
DOCKED: REMARK    4  A    between atoms: C_12  and  C_13
DOCKED: REMARK    5  A    between atoms: C_14  and  C_15
DOCKED: REMARK                            x       y       z     vdW  Elec       q    Type
DOCKED: REMARK                         _______ _______ _______ _____ _____    ______ ____
DOCKED: USER                              x       y       z     vdW  Elec       q    Type
DOCKED: USER                           _______ _______ _______ _____ _____    ______ ____
DOCKED: ROOT
DOCKED: ATOM      1  C   UNL     1      21.162 -10.298  -3.947 -0.44 -0.00    +0.000 A 
DOCKED: ATOM      2  C   UNL     1      21.176 -10.837  -2.653 -0.34 -0.00    +0.000 A 
DOCKED: ATOM      3  C   UNL     1      21.253  -9.992  -1.526 -0.56 -0.00    +0.000 A 
DOCKED: ATOM      4  C   UNL     1      21.332  -8.605  -1.724 -0.46 -0.00    +0.000 A 
DOCKED: ATOM      5  C   UNL     1      21.307  -8.067  -3.013 -0.38 -0.00    +0.000 A 
DOCKED: ATOM      6  C   UNL     1      21.218  -8.910  -4.122 -0.33 -0.00    +0.000 A 
DOCKED: ENDROOT
DOCKED: BRANCH   1   8
DOCKED: ATOM      7  O   UNL     1      20.362 -12.637  -5.004 -0.80 -0.00    +0.000 OA
DOCKED: ATOM      8  S   UNL     1      21.087 -11.366  -5.346 -0.64 -0.00    +0.000 S 
DOCKED: ATOM      9  O   UNL     1      22.488 -11.700  -5.771 -0.62 -0.00    +0.000 OA
DOCKED: BRANCH   8  10
DOCKED: ATOM     10  N   UNL     1      20.264 -10.579  -6.657 -0.29 -0.00    +0.000 N 
DOCKED: ATOM     11  H   UNL     1      20.791  -9.992  -7.246 -0.00 -0.00    +0.000 HD
DOCKED: BRANCH  10  12
DOCKED: ATOM     12  C   UNL     1      18.861 -10.734  -6.933 -0.30 -0.00    +0.000 A 
DOCKED: ATOM     13  C   UNL     1      18.328 -10.525  -8.220 -0.21 -0.00    +0.000 A 
DOCKED: ATOM     14  C   UNL     1      16.959 -10.695  -8.453 -0.20 -0.00    +0.000 A 
DOCKED: ATOM     15  C   UNL     1      16.110 -11.066  -7.409 -0.25 -0.00    +0.000 A 
DOCKED: ATOM     16  C   UNL     1      16.627 -11.266  -6.127 -0.29 -0.00    +0.000 A 
DOCKED: ATOM     17  C   UNL     1      17.994 -11.099  -5.889 -0.32 -0.00    +0.000 A 
DOCKED: ENDBRANCH  10  12
DOCKED: ENDBRANCH   8  10
DOCKED: ENDBRANCH   1   8
DOCKED: BRANCH   3  18
DOCKED: ATOM     18  C   UNL     1      21.297 -10.514  -0.137 -0.71 -0.00    +0.000 C 
DOCKED: ATOM     19  C   UNL     1      20.206 -10.708   0.621 -0.66 -0.00    +0.000 C 
DOCKED: BRANCH  19  20
DOCKED: ATOM     20  C   UNL     1      20.257 -11.230   2.002 -0.76 -0.00    +0.000 C 
DOCKED: ATOM     21  N   UNL     1      20.268 -10.369   3.147 -0.62 -0.00    +0.000 N 
DOCKED: ATOM     22  O   UNL     1      20.422 -10.892   4.386 -0.91 -0.00    +0.000 OA
DOCKED: ATOM     23  O   UNL     1      20.265 -12.478   2.172 -1.81 -0.00    +0.000 OA
DOCKED: ATOM     24  H   UNL     1      20.165  -9.397   3.033 -0.57 -0.00    +0.000 HD
DOCKED: ENDBRANCH  19  20
DOCKED: ENDBRANCH   3  18
DOCKED: TORSDOF 5
DOCKED: TER
DOCKED: ENDMDL
________________________________________________________________________________


	BEGINNING GENETIC ALGORITHM DOCKING 83 of 100
Run: 83 Seed: 1402656945 1680332865 [ Run 83 of 100 GA/GALS ]
Beginning LAMARCKIAN GENETIC ALGORITHM (LGA), with a maximum of 2500000 energy evaluations.

Final-Value: -13.830


	FINAL GENETIC ALGORITHM DOCKED STATE
	_______________________________________________


Detailed state:  trans 21.474 -11.720 -2.610 quatxyzw -0.440938 -0.311939 -0.841406 0.017414 center 0.217 0.012 -0.211 ntor 5 -174.8273 -122.8575 166.2011 -160.9947 -117.3739
State:	 21.474 -11.720  -2.610  -0.441 -0.312 -0.842 178.004   -174.83 -122.86  166.20 -160.99 -117.37

DOCKED: MODEL       83
DOCKED: USER    Run = 83
DOCKED: USER    DPF = ligand_dock.biased.dpf
DOCKED: USER  
DOCKED: USER    Estimated Free Energy of Binding    =  -11.42 kcal/mol  [=(1)+(2)+(3)-(4)]
DOCKED: USER    Estimated Inhibition Constant, Ki   =    4.24 nM (nanomolar)  [Temperature = 298.15 K]
DOCKED: USER    
DOCKED: USER    (1) Final Intermolecular Energy     =  -12.91 kcal/mol
DOCKED: USER        vdW + Hbond + desolv Energy     =  -12.91 kcal/mol
DOCKED: USER        Electrostatic Energy            =   +0.00 kcal/mol
DOCKED: USER    (2) Final Total Internal Energy     =   -0.92 kcal/mol
DOCKED: USER    (3) Torsional Free Energy           =   +1.49 kcal/mol
DOCKED: USER    (4) Unbound System's Energy  [=(2)] =   -0.92 kcal/mol
DOCKED: USER    
DOCKED: USER    
DOCKED: USER    NEWDPF move ligand.pdbqt
DOCKED: USER    NEWDPF about 0.217000 0.012000 -0.211000
DOCKED: USER    NEWDPF tran0 21.474204 -11.720267 -2.609603
DOCKED: USER    NEWDPF quaternion0 -0.440938 -0.311939 -0.841406 0.017414
DOCKED: USER    NEWDPF axisangle0 -0.441005 -0.311986 -0.841534 178.004445
DOCKED: USER    NEWDPF quat0 -0.441005 -0.311986 -0.841534 178.004445
DOCKED: USER    NEWDPF dihe0 -174.83 -122.86 166.20 -160.99 -117.37 
DOCKED: USER  keepresnum = 1 
DOCKED: USER  
DOCKED: REMARK  Name = 
DOCKED: REMARK  5 active torsions:
DOCKED: REMARK  status: ('A' for Active; 'I' for Inactive)
DOCKED: REMARK    1  A    between atoms: S_2  and  N_3
DOCKED: REMARK    2  A    between atoms: S_2  and  C_10
DOCKED: REMARK    3  A    between atoms: N_3  and  C_4
DOCKED: REMARK    4  A    between atoms: C_12  and  C_13
DOCKED: REMARK    5  A    between atoms: C_14  and  C_15
DOCKED: REMARK                            x       y       z     vdW  Elec       q    Type
DOCKED: REMARK                         _______ _______ _______ _____ _____    ______ ____
DOCKED: USER                              x       y       z     vdW  Elec       q    Type
DOCKED: USER                           _______ _______ _______ _____ _____    ______ ____
DOCKED: ROOT
DOCKED: ATOM      1  C   UNL     1      21.241 -10.210  -4.167 -0.43 -0.00    +0.000 A 
DOCKED: ATOM      2  C   UNL     1      20.840 -10.889  -3.008 -0.38 -0.00    +0.000 A 
DOCKED: ATOM      3  C   UNL     1      20.710 -10.201  -1.783 -0.52 -0.00    +0.000 A 
DOCKED: ATOM      4  C   UNL     1      21.005  -8.829  -1.743 -0.48 -0.00    +0.000 A 
DOCKED: ATOM      5  C   UNL     1      21.395  -8.150  -2.901 -0.39 -0.00    +0.000 A 
DOCKED: ATOM      6  C   UNL     1      21.509  -8.837  -4.111 -0.31 -0.00    +0.000 A 
DOCKED: ENDROOT
DOCKED: BRANCH   1   8
DOCKED: ATOM      7  O   UNL     1      20.116 -11.127  -6.431 -0.38 -0.00    +0.000 OA
DOCKED: ATOM      8  S   UNL     1      21.420 -11.087  -5.685 -0.61 -0.00    +0.000 S 
DOCKED: ATOM      9  O   UNL     1      21.854 -12.493  -5.380 -0.83 -0.00    +0.000 OA
DOCKED: BRANCH   8  10
DOCKED: ATOM     10  N   UNL     1      22.620 -10.322  -6.680 -0.33 -0.00    +0.000 N 
DOCKED: ATOM     11  H   UNL     1      22.704  -9.343  -6.631 -0.01 -0.00    +0.000 HD
DOCKED: BRANCH  10  12
DOCKED: ATOM     12  C   UNL     1      23.497 -11.033  -7.572 -0.37 -0.00    +0.000 A 
DOCKED: ATOM     13  C   UNL     1      24.875 -10.753  -7.641 -0.32 -0.00    +0.000 A 
DOCKED: ATOM     14  C   UNL     1      25.699 -11.472  -8.513 -0.36 -0.00    +0.000 A 
DOCKED: ATOM     15  C   UNL     1      25.158 -12.470  -9.327 -0.36 -0.00    +0.000 A 
DOCKED: ATOM     16  C   UNL     1      23.791 -12.749  -9.272 -0.38 -0.00    +0.000 A 
DOCKED: ATOM     17  C   UNL     1      22.964 -12.034  -8.402 -0.36 -0.00    +0.000 A 
DOCKED: ENDBRANCH  10  12
DOCKED: ENDBRANCH   8  10
DOCKED: ENDBRANCH   1   8
DOCKED: BRANCH   3  18
DOCKED: ATOM     18  C   UNL     1      20.313 -10.878  -0.524 -0.59 -0.00    +0.000 C 
DOCKED: ATOM     19  C   UNL     1      20.810 -10.559   0.682 -0.68 -0.00    +0.000 C 
DOCKED: BRANCH  19  20
DOCKED: ATOM     20  C   UNL     1      20.408 -11.237   1.932 -0.75 -0.00    +0.000 C 
DOCKED: ATOM     21  N   UNL     1      20.544 -10.618   3.217 -0.66 -0.00    +0.000 N 
DOCKED: ATOM     22  O   UNL     1      20.260 -11.318   4.340 -1.04 -0.00    +0.000 OA
DOCKED: ATOM     23  O   UNL     1      19.905 -12.390   1.855 -1.80 -0.00    +0.000 OA
DOCKED: ATOM     24  H   UNL     1      20.844  -9.683   3.283 -0.60 -0.00    +0.000 HD
DOCKED: ENDBRANCH  19  20
DOCKED: ENDBRANCH   3  18
DOCKED: TORSDOF 5
DOCKED: TER
DOCKED: ENDMDL
________________________________________________________________________________


	BEGINNING GENETIC ALGORITHM DOCKING 84 of 100
Run: 84 Seed: 420266871 1365977589 [ Run 84 of 100 GA/GALS ]
Beginning LAMARCKIAN GENETIC ALGORITHM (LGA), with a maximum of 2500000 energy evaluations.

Final-Value: -13.810


	FINAL GENETIC ALGORITHM DOCKED STATE
	_______________________________________________


Detailed state:  trans 21.118 -11.730 -2.549 quatxyzw -0.469999 -0.304416 -0.825413 0.071583 center 0.217 0.012 -0.211 ntor 5 -148.8854 63.3511 146.4184 162.6157 -137.1503
State:	 21.118 -11.730  -2.549  -0.471 -0.305 -0.828 171.790   -148.89   63.35  146.42  162.62 -137.15

DOCKED: MODEL       84
DOCKED: USER    Run = 84
DOCKED: USER    DPF = ligand_dock.biased.dpf
DOCKED: USER  
DOCKED: USER    Estimated Free Energy of Binding    =  -11.36 kcal/mol  [=(1)+(2)+(3)-(4)]
DOCKED: USER    Estimated Inhibition Constant, Ki   =    4.73 nM (nanomolar)  [Temperature = 298.15 K]
DOCKED: USER    
DOCKED: USER    (1) Final Intermolecular Energy     =  -12.85 kcal/mol
DOCKED: USER        vdW + Hbond + desolv Energy     =  -12.85 kcal/mol
DOCKED: USER        Electrostatic Energy            =   +0.00 kcal/mol
DOCKED: USER    (2) Final Total Internal Energy     =   -0.96 kcal/mol
DOCKED: USER    (3) Torsional Free Energy           =   +1.49 kcal/mol
DOCKED: USER    (4) Unbound System's Energy  [=(2)] =   -0.96 kcal/mol
DOCKED: USER    
DOCKED: USER    
DOCKED: USER    NEWDPF move ligand.pdbqt
DOCKED: USER    NEWDPF about 0.217000 0.012000 -0.211000
DOCKED: USER    NEWDPF tran0 21.118468 -11.729575 -2.549093
DOCKED: USER    NEWDPF quaternion0 -0.469999 -0.304416 -0.825413 0.071583
DOCKED: USER    NEWDPF axisangle0 -0.471208 -0.305199 -0.827536 171.790161
DOCKED: USER    NEWDPF quat0 -0.471208 -0.305199 -0.827536 171.790161
DOCKED: USER    NEWDPF dihe0 -148.89 63.35 146.42 162.62 -137.15 
DOCKED: USER  keepresnum = 1 
DOCKED: USER  
DOCKED: REMARK  Name = 
DOCKED: REMARK  5 active torsions:
DOCKED: REMARK  status: ('A' for Active; 'I' for Inactive)
DOCKED: REMARK    1  A    between atoms: S_2  and  N_3
DOCKED: REMARK    2  A    between atoms: S_2  and  C_10
DOCKED: REMARK    3  A    between atoms: N_3  and  C_4
DOCKED: REMARK    4  A    between atoms: C_12  and  C_13
DOCKED: REMARK    5  A    between atoms: C_14  and  C_15
DOCKED: REMARK                            x       y       z     vdW  Elec       q    Type
DOCKED: REMARK                         _______ _______ _______ _____ _____    ______ ____
DOCKED: USER                              x       y       z     vdW  Elec       q    Type
DOCKED: USER                           _______ _______ _______ _____ _____    ______ ____
DOCKED: ROOT
DOCKED: ATOM      1  C   UNL     1      21.013 -10.270  -4.167 -0.42 -0.00    +0.000 A 
DOCKED: ATOM      2  C   UNL     1      20.572 -10.848  -2.968 -0.40 -0.00    +0.000 A 
DOCKED: ATOM      3  C   UNL     1      20.561 -10.098  -1.773 -0.51 -0.00    +0.000 A 
DOCKED: ATOM      4  C   UNL     1      21.014  -8.769  -1.804 -0.48 -0.00    +0.000 A 
DOCKED: ATOM      5  C   UNL     1      21.443  -8.190  -3.001 -0.37 -0.00    +0.000 A 
DOCKED: ATOM      6  C   UNL     1      21.439  -8.936  -4.181 -0.33 -0.00    +0.000 A 
DOCKED: ENDROOT
DOCKED: BRANCH   1   8
DOCKED: ATOM      7  O   UNL     1      19.644 -11.545  -6.099 -0.43 -0.00    +0.000 OA
DOCKED: ATOM      8  S   UNL     1      21.041 -11.225  -5.648 -0.59 -0.00    +0.000 S 
DOCKED: ATOM      9  O   UNL     1      21.775 -12.508  -5.378 -0.82 -0.00    +0.000 OA
DOCKED: BRANCH   8  10
DOCKED: ATOM     10  N   UNL     1      21.858 -10.353  -6.907 -0.29 -0.00    +0.000 N 
DOCKED: ATOM     11  H   UNL     1      21.412  -9.560  -7.283 +0.00 -0.00    +0.000 HD
DOCKED: BRANCH  10  12
DOCKED: ATOM     12  C   UNL     1      23.146 -10.719  -7.434 -0.34 -0.00    +0.000 A 
DOCKED: ATOM     13  C   UNL     1      23.424 -12.027  -7.878 -0.45 -0.00    +0.000 A 
DOCKED: ATOM     14  C   UNL     1      24.685 -12.344  -8.394 -0.40 -0.00    +0.000 A 
DOCKED: ATOM     15  C   UNL     1      25.680 -11.367  -8.466 -0.37 -0.00    +0.000 A 
DOCKED: ATOM     16  C   UNL     1      25.417 -10.070  -8.019 -0.31 -0.00    +0.000 A 
DOCKED: ATOM     17  C   UNL     1      24.158  -9.748  -7.504 -0.25 -0.00    +0.000 A 
DOCKED: ENDBRANCH  10  12
DOCKED: ENDBRANCH   8  10
DOCKED: ENDBRANCH   1   8
DOCKED: BRANCH   3  18
DOCKED: ATOM     18  C   UNL     1      20.129 -10.670  -0.474 -0.59 -0.00    +0.000 C 
DOCKED: ATOM     19  C   UNL     1      20.895 -10.680   0.628 -0.68 -0.00    +0.000 C 
DOCKED: BRANCH  19  20
DOCKED: ATOM     20  C   UNL     1      20.457 -11.250   1.918 -0.75 -0.00    +0.000 C 
DOCKED: ATOM     21  N   UNL     1      20.588 -10.538   3.155 -0.65 -0.00    +0.000 N 
DOCKED: ATOM     22  O   UNL     1      20.268 -11.143   4.323 -1.02 -0.00    +0.000 OA
DOCKED: ATOM     23  O   UNL     1      19.926 -12.393   1.921 -1.81 -0.00    +0.000 OA
DOCKED: ATOM     24  H   UNL     1      20.911  -9.608   3.155 -0.60 -0.00    +0.000 HD
DOCKED: ENDBRANCH  19  20
DOCKED: ENDBRANCH   3  18
DOCKED: TORSDOF 5
DOCKED: TER
DOCKED: ENDMDL
________________________________________________________________________________


	BEGINNING GENETIC ALGORITHM DOCKING 85 of 100
Run: 85 Seed: 1519206733 1966189287 [ Run 85 of 100 GA/GALS ]
Beginning LAMARCKIAN GENETIC ALGORITHM (LGA), with a maximum of 2500000 energy evaluations.

Final-Value: -13.299


	FINAL GENETIC ALGORITHM DOCKED STATE
	_______________________________________________


Detailed state:  trans 21.797 -11.511 -2.698 quatxyzw -0.473088 -0.308335 -0.823649 -0.052153 center 0.217 0.012 -0.211 ntor 5 139.0770 64.3704 -140.3547 144.1721 90.5037
State:	 21.797 -11.511  -2.698  -0.474 -0.309 -0.825 -174.021    139.08   64.37 -140.35  144.17   90.50

DOCKED: MODEL       85
DOCKED: USER    Run = 85
DOCKED: USER    DPF = ligand_dock.biased.dpf
DOCKED: USER  
DOCKED: USER    Estimated Free Energy of Binding    =  -10.81 kcal/mol  [=(1)+(2)+(3)-(4)]
DOCKED: USER    Estimated Inhibition Constant, Ki   =   11.95 nM (nanomolar)  [Temperature = 298.15 K]
DOCKED: USER    
DOCKED: USER    (1) Final Intermolecular Energy     =  -12.30 kcal/mol
DOCKED: USER        vdW + Hbond + desolv Energy     =  -12.30 kcal/mol
DOCKED: USER        Electrostatic Energy            =   +0.00 kcal/mol
DOCKED: USER    (2) Final Total Internal Energy     =   -1.00 kcal/mol
DOCKED: USER    (3) Torsional Free Energy           =   +1.49 kcal/mol
DOCKED: USER    (4) Unbound System's Energy  [=(2)] =   -1.00 kcal/mol
DOCKED: USER    
DOCKED: USER    
DOCKED: USER    NEWDPF move ligand.pdbqt
DOCKED: USER    NEWDPF about 0.217000 0.012000 -0.211000
DOCKED: USER    NEWDPF tran0 21.797216 -11.511221 -2.697629
DOCKED: USER    NEWDPF quaternion0 -0.473088 -0.308335 -0.823649 -0.052153
DOCKED: USER    NEWDPF axisangle0 -0.473733 -0.308755 -0.824771 -174.021002
DOCKED: USER    NEWDPF quat0 -0.473733 -0.308755 -0.824771 -174.021002
DOCKED: USER    NEWDPF dihe0 139.08 64.37 -140.35 144.17 90.50 
DOCKED: USER  keepresnum = 1 
DOCKED: USER  
DOCKED: REMARK  Name = 
DOCKED: REMARK  5 active torsions:
DOCKED: REMARK  status: ('A' for Active; 'I' for Inactive)
DOCKED: REMARK    1  A    between atoms: S_2  and  N_3
DOCKED: REMARK    2  A    between atoms: S_2  and  C_10
DOCKED: REMARK    3  A    between atoms: N_3  and  C_4
DOCKED: REMARK    4  A    between atoms: C_12  and  C_13
DOCKED: REMARK    5  A    between atoms: C_14  and  C_15
DOCKED: REMARK                            x       y       z     vdW  Elec       q    Type
DOCKED: REMARK                         _______ _______ _______ _____ _____    ______ ____
DOCKED: USER                              x       y       z     vdW  Elec       q    Type
DOCKED: USER                           _______ _______ _______ _____ _____    ______ ____
DOCKED: ROOT
DOCKED: ATOM      1  C   UNL     1      21.251  -9.952  -4.123 -0.41 -0.00    +0.000 A 
DOCKED: ATOM      2  C   UNL     1      21.049 -10.725  -2.971 -0.41 -0.00    +0.000 A 
DOCKED: ATOM      3  C   UNL     1      21.000 -10.118  -1.699 -0.55 -0.00    +0.000 A 
DOCKED: ATOM      4  C   UNL     1      21.174  -8.727  -1.606 -0.48 -0.00    +0.000 A 
DOCKED: ATOM      5  C   UNL     1      21.365  -7.955  -2.755 -0.40 -0.00    +0.000 A 
DOCKED: ATOM      6  C   UNL     1      21.400  -8.564  -4.010 -0.33 -0.00    +0.000 A 
DOCKED: ENDROOT
DOCKED: BRANCH   1   8
DOCKED: ATOM      7  O   UNL     1      22.521 -11.644  -5.783 -0.61 -0.00    +0.000 OA
DOCKED: ATOM      8  S   UNL     1      21.332 -10.727  -5.703 -0.56 -0.00    +0.000 S 
DOCKED: ATOM      9  O   UNL     1      21.462  -9.664  -6.755 -0.24 -0.00    +0.000 OA
DOCKED: BRANCH   8  10
DOCKED: ATOM     10  N   UNL     1      19.888 -11.646  -5.993 -0.29 -0.00    +0.000 N 
DOCKED: ATOM     11  H   UNL     1      19.866 -12.581  -5.686 -0.51 -0.00    +0.000 HD
DOCKED: BRANCH  10  12
DOCKED: ATOM     12  C   UNL     1      18.722 -11.123  -6.655 -0.32 -0.00    +0.000 A 
DOCKED: ATOM     13  C   UNL     1      18.801 -10.490  -7.911 -0.24 -0.00    +0.000 A 
DOCKED: ATOM     14  C   UNL     1      17.645 -10.003  -8.529 -0.16 -0.00    +0.000 A 
DOCKED: ATOM     15  C   UNL     1      16.404 -10.135  -7.901 -0.15 -0.00    +0.000 A 
DOCKED: ATOM     16  C   UNL     1      16.318 -10.753  -6.652 -0.23 -0.00    +0.000 A 
DOCKED: ATOM     17  C   UNL     1      17.470 -11.242  -6.030 -0.32 -0.00    +0.000 A 
DOCKED: ENDBRANCH  10  12
DOCKED: ENDBRANCH   8  10
DOCKED: ENDBRANCH   1   8
DOCKED: BRANCH   3  18
DOCKED: ATOM     18  C   UNL     1      20.814 -10.894  -0.448 -0.60 -0.00    +0.000 C 
DOCKED: ATOM     19  C   UNL     1      20.442 -10.348   0.720 -0.65 -0.00    +0.000 C 
DOCKED: BRANCH  19  20
DOCKED: ATOM     20  C   UNL     1      20.256 -11.129   1.960 -0.75 -0.00    +0.000 C 
DOCKED: ATOM     21  N   UNL     1      20.336 -10.532   3.261 -0.69 -0.00    +0.000 N 
DOCKED: ATOM     22  O   UNL     1      20.263 -11.308   4.368 -1.03 -0.00    +0.000 OA
DOCKED: ATOM     23  O   UNL     1      19.993 -12.357   1.863 -1.81 -0.00    +0.000 OA
DOCKED: ATOM     24  H   UNL     1      20.445  -9.558   3.349 -0.58 -0.00    +0.000 HD
DOCKED: ENDBRANCH  19  20
DOCKED: ENDBRANCH   3  18
DOCKED: TORSDOF 5
DOCKED: TER
DOCKED: ENDMDL
________________________________________________________________________________


	BEGINNING GENETIC ALGORITHM DOCKING 86 of 100
Run: 86 Seed: 2076330088 991243504 [ Run 86 of 100 GA/GALS ]
Beginning LAMARCKIAN GENETIC ALGORITHM (LGA), with a maximum of 2500000 energy evaluations.

Final-Value: -12.978


	FINAL GENETIC ALGORITHM DOCKED STATE
	_______________________________________________


Detailed state:  trans 18.194 -10.441 -1.017 quatxyzw -0.553045 0.480737 0.306807 -0.607374 center 0.217 0.012 -0.211 ntor 5 111.4162 113.0954 -79.1146 -26.5401 54.1949
State:	 18.194 -10.441  -1.017  -0.696  0.605  0.386 -105.200    111.42  113.10  -79.11  -26.54   54.19

DOCKED: MODEL       86
DOCKED: USER    Run = 86
DOCKED: USER    DPF = ligand_dock.biased.dpf
DOCKED: USER  
DOCKED: USER    Estimated Free Energy of Binding    =  -10.28 kcal/mol  [=(1)+(2)+(3)-(4)]
DOCKED: USER    Estimated Inhibition Constant, Ki   =   29.17 nM (nanomolar)  [Temperature = 298.15 K]
DOCKED: USER    
DOCKED: USER    (1) Final Intermolecular Energy     =  -11.77 kcal/mol
DOCKED: USER        vdW + Hbond + desolv Energy     =  -11.77 kcal/mol
DOCKED: USER        Electrostatic Energy            =   +0.00 kcal/mol
DOCKED: USER    (2) Final Total Internal Energy     =   -1.21 kcal/mol
DOCKED: USER    (3) Torsional Free Energy           =   +1.49 kcal/mol
DOCKED: USER    (4) Unbound System's Energy  [=(2)] =   -1.21 kcal/mol
DOCKED: USER    
DOCKED: USER    
DOCKED: USER    NEWDPF move ligand.pdbqt
DOCKED: USER    NEWDPF about 0.217000 0.012000 -0.211000
DOCKED: USER    NEWDPF tran0 18.193737 -10.440891 -1.016611
DOCKED: USER    NEWDPF quaternion0 -0.553045 0.480737 0.306807 -0.607374
DOCKED: USER    NEWDPF axisangle0 -0.696166 0.605144 0.386204 -105.200293
DOCKED: USER    NEWDPF quat0 -0.696166 0.605144 0.386204 -105.200293
DOCKED: USER    NEWDPF dihe0 111.42 113.10 -79.11 -26.54 54.19 
DOCKED: USER  keepresnum = 1 
DOCKED: USER  
DOCKED: REMARK  Name = 
DOCKED: REMARK  5 active torsions:
DOCKED: REMARK  status: ('A' for Active; 'I' for Inactive)
DOCKED: REMARK    1  A    between atoms: S_2  and  N_3
DOCKED: REMARK    2  A    between atoms: S_2  and  C_10
DOCKED: REMARK    3  A    between atoms: N_3  and  C_4
DOCKED: REMARK    4  A    between atoms: C_12  and  C_13
DOCKED: REMARK    5  A    between atoms: C_14  and  C_15
DOCKED: REMARK                            x       y       z     vdW  Elec       q    Type
DOCKED: REMARK                         _______ _______ _______ _____ _____    ______ ____
DOCKED: USER                              x       y       z     vdW  Elec       q    Type
DOCKED: USER                           _______ _______ _______ _____ _____    ______ ____
DOCKED: ROOT
DOCKED: ATOM      1  C   UNL     1      19.905 -10.832   0.280 -0.55 -0.00    +0.000 A 
DOCKED: ATOM      2  C   UNL     1      19.203 -10.917  -0.931 -0.43 -0.00    +0.000 A 
DOCKED: ATOM      3  C   UNL     1      19.734 -10.353  -2.109 -0.40 -0.00    +0.000 A 
DOCKED: ATOM      4  C   UNL     1      20.971  -9.690  -2.044 -0.52 -0.00    +0.000 A 
DOCKED: ATOM      5  C   UNL     1      21.675  -9.614  -0.840 -0.41 -0.00    +0.000 A 
DOCKED: ATOM      6  C   UNL     1      21.147 -10.186   0.318 -0.58 -0.00    +0.000 A 
DOCKED: ENDROOT
DOCKED: BRANCH   1   8
DOCKED: ATOM      7  O   UNL     1      18.591 -10.450   2.595 -0.62 -0.00    +0.000 OA
DOCKED: ATOM      8  S   UNL     1      19.218 -11.522   1.748 -0.83 -0.00    +0.000 S 
DOCKED: ATOM      9  O   UNL     1      20.317 -12.184   2.528 -1.95 -0.00    +0.000 OA
DOCKED: BRANCH   8  10
DOCKED: ATOM     10  N   UNL     1      18.010 -12.703   1.346 -0.44 +0.00    +0.000 N 
DOCKED: ATOM     11  H   UNL     1      18.261 -13.654   1.393 -0.28 +0.00    +0.000 HD
DOCKED: BRANCH  10  12
DOCKED: ATOM     12  C   UNL     1      16.667 -12.376   0.947 -0.42 +0.00    +0.000 A 
DOCKED: ATOM     13  C   UNL     1      16.265 -12.396  -0.402 -0.40 +0.00    +0.000 A 
DOCKED: ATOM     14  C   UNL     1      14.947 -12.081  -0.751 -0.41 +0.00    +0.000 A 
DOCKED: ATOM     15  C   UNL     1      14.023 -11.738   0.237 -0.38 +0.00    +0.000 A 
DOCKED: ATOM     16  C   UNL     1      14.414 -11.707   1.577 -0.42 +0.00    +0.000 A 
DOCKED: ATOM     17  C   UNL     1      15.729 -12.021   1.931 -0.39 +0.00    +0.000 A 
DOCKED: ENDBRANCH  10  12
DOCKED: ENDBRANCH   8  10
DOCKED: ENDBRANCH   1   8
DOCKED: BRANCH   3  18
DOCKED: ATOM     18  C   UNL     1      19.019 -10.394  -3.409 -0.38 -0.00    +0.000 C 
DOCKED: ATOM     19  C   UNL     1      19.320 -11.251  -4.397 -0.44 -0.00    +0.000 C 
DOCKED: BRANCH  19  20
DOCKED: ATOM     20  C   UNL     1      18.602 -11.288  -5.688 -0.39 -0.00    +0.000 C 
DOCKED: ATOM     21  N   UNL     1      19.285 -11.261  -6.947 -0.31 -0.00    +0.000 N 
DOCKED: ATOM     22  O   UNL     1      18.580 -11.191  -8.100 -0.28 -0.00    +0.000 OA
DOCKED: ATOM     23  O   UNL     1      17.344 -11.372  -5.673 -0.36 -0.00    +0.000 OA
DOCKED: ATOM     24  H   UNL     1      20.269 -11.293  -6.973 -0.16 -0.00    +0.000 HD
DOCKED: ENDBRANCH  19  20
DOCKED: ENDBRANCH   3  18
DOCKED: TORSDOF 5
DOCKED: TER
DOCKED: ENDMDL
________________________________________________________________________________


	BEGINNING GENETIC ALGORITHM DOCKING 87 of 100
Run: 87 Seed: 1546710751 934413315 [ Run 87 of 100 GA/GALS ]
Beginning LAMARCKIAN GENETIC ALGORITHM (LGA), with a maximum of 2500000 energy evaluations.

Final-Value: -13.767


	FINAL GENETIC ALGORITHM DOCKED STATE
	_______________________________________________


Detailed state:  trans 21.485 -11.652 -2.636 quatxyzw -0.429750 -0.315140 -0.845480 0.034133 center 0.217 0.012 -0.211 ntor 5 -162.6037 -143.6195 152.4225 -142.2152 -107.6963
State:	 21.485 -11.652  -2.636  -0.430 -0.315 -0.846 176.088   -162.60 -143.62  152.42 -142.22 -107.70

DOCKED: MODEL       87
DOCKED: USER    Run = 87
DOCKED: USER    DPF = ligand_dock.biased.dpf
DOCKED: USER  
DOCKED: USER    Estimated Free Energy of Binding    =  -11.37 kcal/mol  [=(1)+(2)+(3)-(4)]
DOCKED: USER    Estimated Inhibition Constant, Ki   =    4.62 nM (nanomolar)  [Temperature = 298.15 K]
DOCKED: USER    
DOCKED: USER    (1) Final Intermolecular Energy     =  -12.86 kcal/mol
DOCKED: USER        vdW + Hbond + desolv Energy     =  -12.86 kcal/mol
DOCKED: USER        Electrostatic Energy            =   +0.00 kcal/mol
DOCKED: USER    (2) Final Total Internal Energy     =   -0.90 kcal/mol
DOCKED: USER    (3) Torsional Free Energy           =   +1.49 kcal/mol
DOCKED: USER    (4) Unbound System's Energy  [=(2)] =   -0.90 kcal/mol
DOCKED: USER    
DOCKED: USER    
DOCKED: USER    NEWDPF move ligand.pdbqt
DOCKED: USER    NEWDPF about 0.217000 0.012000 -0.211000
DOCKED: USER    NEWDPF tran0 21.484614 -11.651793 -2.636148
DOCKED: USER    NEWDPF quaternion0 -0.429750 -0.315140 -0.845480 0.034133
DOCKED: USER    NEWDPF axisangle0 -0.430001 -0.315324 -0.845973 176.087836
DOCKED: USER    NEWDPF quat0 -0.430001 -0.315324 -0.845973 176.087836
DOCKED: USER    NEWDPF dihe0 -162.60 -143.62 152.42 -142.22 -107.70 
DOCKED: USER  keepresnum = 1 
DOCKED: USER  
DOCKED: REMARK  Name = 
DOCKED: REMARK  5 active torsions:
DOCKED: REMARK  status: ('A' for Active; 'I' for Inactive)
DOCKED: REMARK    1  A    between atoms: S_2  and  N_3
DOCKED: REMARK    2  A    between atoms: S_2  and  C_10
DOCKED: REMARK    3  A    between atoms: N_3  and  C_4
DOCKED: REMARK    4  A    between atoms: C_12  and  C_13
DOCKED: REMARK    5  A    between atoms: C_14  and  C_15
DOCKED: REMARK                            x       y       z     vdW  Elec       q    Type
DOCKED: REMARK                         _______ _______ _______ _____ _____    ______ ____
DOCKED: USER                              x       y       z     vdW  Elec       q    Type
DOCKED: USER                           _______ _______ _______ _____ _____    ______ ____
DOCKED: ROOT
DOCKED: ATOM      1  C   UNL     1      21.330 -10.167  -4.227 -0.42 -0.00    +0.000 A 
DOCKED: ATOM      2  C   UNL     1      20.879 -10.817  -3.070 -0.40 -0.00    +0.000 A 
DOCKED: ATOM      3  C   UNL     1      20.722 -10.104  -1.863 -0.52 -0.00    +0.000 A 
DOCKED: ATOM      4  C   UNL     1      21.041  -8.737  -1.837 -0.47 -0.00    +0.000 A 
DOCKED: ATOM      5  C   UNL     1      21.481  -8.087  -2.993 -0.36 -0.00    +0.000 A 
DOCKED: ATOM      6  C   UNL     1      21.621  -8.797  -4.186 -0.29 -0.00    +0.000 A 
DOCKED: ENDROOT
DOCKED: BRANCH   1   8
DOCKED: ATOM      7  O   UNL     1      20.346 -10.909  -6.617 -0.36 -0.00    +0.000 OA
DOCKED: ATOM      8  S   UNL     1      21.543 -11.074  -5.722 -0.61 -0.00    +0.000 S 
DOCKED: ATOM      9  O   UNL     1      21.705 -12.528  -5.383 -0.81 -0.00    +0.000 OA
DOCKED: BRANCH   8  10
DOCKED: ATOM     10  N   UNL     1      22.959 -10.522  -6.562 -0.32 -0.00    +0.000 N 
DOCKED: ATOM     11  H   UNL     1      23.357  -9.666  -6.282 -0.02 -0.00    +0.000 HD
DOCKED: BRANCH  10  12
DOCKED: ATOM     12  C   UNL     1      23.584 -11.239  -7.641 -0.40 -0.00    +0.000 A 
DOCKED: ATOM     13  C   UNL     1      24.945 -11.065  -7.960 -0.36 -0.00    +0.000 A 
DOCKED: ATOM     14  C   UNL     1      25.521 -11.787  -9.010 -0.36 -0.00    +0.000 A 
DOCKED: ATOM     15  C   UNL     1      24.749 -12.681  -9.754 -0.34 -0.00    +0.000 A 
DOCKED: ATOM     16  C   UNL     1      23.397 -12.854  -9.451 -0.36 -0.00    +0.000 A 
DOCKED: ATOM     17  C   UNL     1      22.816 -12.135  -8.403 -0.29 -0.00    +0.000 A 
DOCKED: ENDBRANCH  10  12
DOCKED: ENDBRANCH   8  10
DOCKED: ENDBRANCH   1   8
DOCKED: BRANCH   3  18
DOCKED: ATOM     18  C   UNL     1      20.272 -10.751  -0.605 -0.59 -0.00    +0.000 C 
DOCKED: ATOM     19  C   UNL     1      20.908 -10.619   0.570 -0.68 -0.00    +0.000 C 
DOCKED: BRANCH  19  20
DOCKED: ATOM     20  C   UNL     1      20.453 -11.265   1.818 -0.75 -0.00    +0.000 C 
DOCKED: ATOM     21  N   UNL     1      20.587 -10.637   3.099 -0.65 -0.00    +0.000 N 
DOCKED: ATOM     22  O   UNL     1      20.251 -11.312   4.223 -1.09 -0.00    +0.000 OA
DOCKED: ATOM     23  O   UNL     1      19.904 -12.397   1.743 -1.80 -0.00    +0.000 OA
DOCKED: ATOM     24  H   UNL     1      20.925  -9.714   3.162 -0.60 -0.00    +0.000 HD
DOCKED: ENDBRANCH  19  20
DOCKED: ENDBRANCH   3  18
DOCKED: TORSDOF 5
DOCKED: TER
DOCKED: ENDMDL
________________________________________________________________________________


	BEGINNING GENETIC ALGORITHM DOCKING 88 of 100
Run: 88 Seed: 1382595171 943108709 [ Run 88 of 100 GA/GALS ]
Beginning LAMARCKIAN GENETIC ALGORITHM (LGA), with a maximum of 2500000 energy evaluations.

Final-Value: -12.020


	FINAL GENETIC ALGORITHM DOCKED STATE
	_______________________________________________


Detailed state:  trans 17.843 -9.753 0.890 quatxyzw 0.393259 -0.408263 0.070554 0.820787 center 0.217 0.012 -0.211 ntor 5 -78.5614 110.9661 -172.1700 -19.8244 92.9054
State:	 17.843  -9.753   0.890   0.688 -0.715  0.124 69.673    -78.56  110.97 -172.17  -19.82   92.91

DOCKED: MODEL       88
DOCKED: USER    Run = 88
DOCKED: USER    DPF = ligand_dock.biased.dpf
DOCKED: USER  
DOCKED: USER    Estimated Free Energy of Binding    =   -9.32 kcal/mol  [=(1)+(2)+(3)-(4)]
DOCKED: USER    Estimated Inhibition Constant, Ki   =  146.99 nM (nanomolar)  [Temperature = 298.15 K]
DOCKED: USER    
DOCKED: USER    (1) Final Intermolecular Energy     =  -10.81 kcal/mol
DOCKED: USER        vdW + Hbond + desolv Energy     =  -10.81 kcal/mol
DOCKED: USER        Electrostatic Energy            =   +0.00 kcal/mol
DOCKED: USER    (2) Final Total Internal Energy     =   -1.21 kcal/mol
DOCKED: USER    (3) Torsional Free Energy           =   +1.49 kcal/mol
DOCKED: USER    (4) Unbound System's Energy  [=(2)] =   -1.21 kcal/mol
DOCKED: USER    
DOCKED: USER    
DOCKED: USER    NEWDPF move ligand.pdbqt
DOCKED: USER    NEWDPF about 0.217000 0.012000 -0.211000
DOCKED: USER    NEWDPF tran0 17.843249 -9.753140 0.890109
DOCKED: USER    NEWDPF quaternion0 0.393259 -0.408263 0.070554 0.820787
DOCKED: USER    NEWDPF axisangle0 0.688436 -0.714703 0.123511 69.672723
DOCKED: USER    NEWDPF quat0 0.688436 -0.714703 0.123511 69.672723
DOCKED: USER    NEWDPF dihe0 -78.56 110.97 -172.17 -19.82 92.91 
DOCKED: USER  keepresnum = 1 
DOCKED: USER  
DOCKED: REMARK  Name = 
DOCKED: REMARK  5 active torsions:
DOCKED: REMARK  status: ('A' for Active; 'I' for Inactive)
DOCKED: REMARK    1  A    between atoms: S_2  and  N_3
DOCKED: REMARK    2  A    between atoms: S_2  and  C_10
DOCKED: REMARK    3  A    between atoms: N_3  and  C_4
DOCKED: REMARK    4  A    between atoms: C_12  and  C_13
DOCKED: REMARK    5  A    between atoms: C_14  and  C_15
DOCKED: REMARK                            x       y       z     vdW  Elec       q    Type
DOCKED: REMARK                         _______ _______ _______ _____ _____    ______ ____
DOCKED: USER                              x       y       z     vdW  Elec       q    Type
DOCKED: USER                           _______ _______ _______ _____ _____    ______ ____
DOCKED: ROOT
DOCKED: ATOM      1  C   UNL     1      17.885 -10.990   2.687 -0.43 +0.00    +0.000 A 
DOCKED: ATOM      2  C   UNL     1      18.126 -10.743   1.328 -0.41 -0.00    +0.000 A 
DOCKED: ATOM      3  C   UNL     1      19.442 -10.760   0.820 -0.52 -0.00    +0.000 A 
DOCKED: ATOM      4  C   UNL     1      20.505 -11.013   1.701 -0.63 -0.00    +0.000 A 
DOCKED: ATOM      5  C   UNL     1      20.264 -11.269   3.053 -0.58 -0.00    +0.000 A 
DOCKED: ATOM      6  C   UNL     1      18.957 -11.262   3.545 -0.41 -0.00    +0.000 A 
DOCKED: ENDROOT
DOCKED: BRANCH   1   8
DOCKED: ATOM      7  O   UNL     1      15.641  -9.576   3.131 -0.41 +0.00    +0.000 OA
DOCKED: ATOM      8  S   UNL     1      16.238 -10.943   3.312 -0.65 +0.00    +0.000 S 
DOCKED: ATOM      9  O   UNL     1      16.270 -11.274   4.777 -0.63 +0.00    +0.000 OA
DOCKED: BRANCH   8  10
DOCKED: ATOM     10  N   UNL     1      15.251 -12.107   2.485 -0.50 +0.00    +0.000 N 
DOCKED: ATOM     11  H   UNL     1      14.979 -12.916   2.977 -0.19 +0.00    +0.000 HD
DOCKED: BRANCH  10  12
DOCKED: ATOM     12  C   UNL     1      14.806 -11.962   1.124 -0.43 +0.00    +0.000 A 
DOCKED: ATOM     13  C   UNL     1      15.459 -12.605   0.055 -0.48 +0.00    +0.000 A 
DOCKED: ATOM     14  C   UNL     1      14.992 -12.448  -1.254 -0.34 +0.00    +0.000 A 
DOCKED: ATOM     15  C   UNL     1      13.878 -11.646  -1.511 -0.32 +0.00    +0.000 A 
DOCKED: ATOM     16  C   UNL     1      13.230 -10.996  -0.458 -0.29 +0.00    +0.000 A 
DOCKED: ATOM     17  C   UNL     1      13.692 -11.151   0.852 -0.33 +0.00    +0.000 A 
DOCKED: ENDBRANCH  10  12
DOCKED: ENDBRANCH   8  10
DOCKED: ENDBRANCH   1   8
DOCKED: BRANCH   3  18
DOCKED: ATOM     18  C   UNL     1      19.752 -10.480  -0.604 -0.53 -0.00    +0.000 C 
DOCKED: ATOM     19  C   UNL     1      20.985 -10.205  -1.058 -0.66 -0.00    +0.000 C 
DOCKED: BRANCH  19  20
DOCKED: ATOM     20  C   UNL     1      21.287  -9.929  -2.478 -0.56 -0.00    +0.000 C 
DOCKED: ATOM     21  N   UNL     1      21.040 -10.888  -3.514 -0.50 -0.00    +0.000 N 
DOCKED: ATOM     22  O   UNL     1      21.430 -10.629  -4.784 -0.49 -0.00    +0.000 OA
DOCKED: ATOM     23  O   UNL     1      21.754  -8.800  -2.784 -0.50 -0.00    +0.000 OA
DOCKED: ATOM     24  H   UNL     1      20.587 -11.736  -3.302 -0.02 -0.00    +0.000 HD
DOCKED: ENDBRANCH  19  20
DOCKED: ENDBRANCH   3  18
DOCKED: TORSDOF 5
DOCKED: TER
DOCKED: ENDMDL
________________________________________________________________________________


	BEGINNING GENETIC ALGORITHM DOCKING 89 of 100
Run: 89 Seed: 1944795104 929203538 [ Run 89 of 100 GA/GALS ]
Beginning LAMARCKIAN GENETIC ALGORITHM (LGA), with a maximum of 2500000 energy evaluations.

Final-Value: -13.086


	FINAL GENETIC ALGORITHM DOCKED STATE
	_______________________________________________


Detailed state:  trans 18.198 -10.601 -0.635 quatxyzw -0.580176 0.477407 0.394539 -0.528978 center 0.217 0.012 -0.211 ntor 5 164.7823 170.0686 -106.5830 141.8037 -42.4408
State:	 18.198 -10.601  -0.635  -0.684  0.563  0.465 -116.127    164.78  170.07 -106.58  141.80  -42.44

DOCKED: MODEL       89
DOCKED: USER    Run = 89
DOCKED: USER    DPF = ligand_dock.biased.dpf
DOCKED: USER  
DOCKED: USER    Estimated Free Energy of Binding    =  -10.52 kcal/mol  [=(1)+(2)+(3)-(4)]
DOCKED: USER    Estimated Inhibition Constant, Ki   =   19.36 nM (nanomolar)  [Temperature = 298.15 K]
DOCKED: USER    
DOCKED: USER    (1) Final Intermolecular Energy     =  -12.01 kcal/mol
DOCKED: USER        vdW + Hbond + desolv Energy     =  -12.01 kcal/mol
DOCKED: USER        Electrostatic Energy            =   +0.00 kcal/mol
DOCKED: USER    (2) Final Total Internal Energy     =   -1.07 kcal/mol
DOCKED: USER    (3) Torsional Free Energy           =   +1.49 kcal/mol
DOCKED: USER    (4) Unbound System's Energy  [=(2)] =   -1.07 kcal/mol
DOCKED: USER    
DOCKED: USER    
DOCKED: USER    NEWDPF move ligand.pdbqt
DOCKED: USER    NEWDPF about 0.217000 0.012000 -0.211000
DOCKED: USER    NEWDPF tran0 18.197616 -10.601156 -0.634792
DOCKED: USER    NEWDPF quaternion0 -0.580176 0.477407 0.394539 -0.528978
DOCKED: USER    NEWDPF axisangle0 -0.683657 0.562558 0.464910 -116.127152
DOCKED: USER    NEWDPF quat0 -0.683657 0.562558 0.464910 -116.127152
DOCKED: USER    NEWDPF dihe0 164.78 170.07 -106.58 141.80 -42.44 
DOCKED: USER  keepresnum = 1 
DOCKED: USER  
DOCKED: REMARK  Name = 
DOCKED: REMARK  5 active torsions:
DOCKED: REMARK  status: ('A' for Active; 'I' for Inactive)
DOCKED: REMARK    1  A    between atoms: S_2  and  N_3
DOCKED: REMARK    2  A    between atoms: S_2  and  C_10
DOCKED: REMARK    3  A    between atoms: N_3  and  C_4
DOCKED: REMARK    4  A    between atoms: C_12  and  C_13
DOCKED: REMARK    5  A    between atoms: C_14  and  C_15
DOCKED: REMARK                            x       y       z     vdW  Elec       q    Type
DOCKED: REMARK                         _______ _______ _______ _____ _____    ______ ____
DOCKED: USER                              x       y       z     vdW  Elec       q    Type
DOCKED: USER                           _______ _______ _______ _____ _____    ______ ____
DOCKED: ROOT
DOCKED: ATOM      1  C   UNL     1      20.123 -10.615   0.391 -0.57 -0.00    +0.000 A 
DOCKED: ATOM      2  C   UNL     1      19.279 -10.883  -0.696 -0.45 -0.00    +0.000 A 
DOCKED: ATOM      3  C   UNL     1      19.517 -10.288  -1.952 -0.37 -0.00    +0.000 A 
DOCKED: ATOM      4  C   UNL     1      20.604  -9.411  -2.091 -0.46 -0.00    +0.000 A 
DOCKED: ATOM      5  C   UNL     1      21.452  -9.152  -1.011 -0.47 -0.00    +0.000 A 
DOCKED: ATOM      6  C   UNL     1      21.216  -9.755   0.225 -0.57 -0.00    +0.000 A 
DOCKED: ENDROOT
DOCKED: BRANCH   1   8
DOCKED: ATOM      7  O   UNL     1      21.016 -11.270   2.841 -1.31 -0.00    +0.000 OA
DOCKED: ATOM      8  S   UNL     1      19.801 -11.348   1.960 -0.90 -0.00    +0.000 S 
DOCKED: ATOM      9  O   UNL     1      19.438 -12.791   1.751 -1.42 -0.00    +0.000 OA
DOCKED: BRANCH   8  10
DOCKED: ATOM     10  N   UNL     1      18.481 -10.534   2.741 -0.53 -0.00    +0.000 N 
DOCKED: ATOM     11  H   UNL     1      18.691  -9.773   3.329 -0.07 -0.00    +0.000 HD
DOCKED: BRANCH  10  12
DOCKED: ATOM     12  C   UNL     1      17.100 -10.904   2.580 -0.43 +0.00    +0.000 A 
DOCKED: ATOM     13  C   UNL     1      16.120 -10.555   3.529 -0.46 +0.00    +0.000 A 
DOCKED: ATOM     14  C   UNL     1      14.785 -10.924   3.334 -0.42 +0.00    +0.000 A 
DOCKED: ATOM     15  C   UNL     1      14.416 -11.648   2.198 -0.43 +0.00    +0.000 A 
DOCKED: ATOM     16  C   UNL     1      15.382 -12.006   1.255 -0.43 +0.00    +0.000 A 
DOCKED: ATOM     17  C   UNL     1      16.717 -11.639   1.445 -0.40 +0.00    +0.000 A 
DOCKED: ENDBRANCH  10  12
DOCKED: ENDBRANCH   8  10
DOCKED: ENDBRANCH   1   8
DOCKED: BRANCH   3  18
DOCKED: ATOM     18  C   UNL     1      18.638 -10.519  -3.126 -0.35 -0.00    +0.000 C 
DOCKED: ATOM     19  C   UNL     1      19.091 -10.886  -4.335 -0.40 -0.00    +0.000 C 
DOCKED: BRANCH  19  20
DOCKED: ATOM     20  C   UNL     1      18.209 -11.117  -5.498 -0.35 -0.00    +0.000 C 
DOCKED: ATOM     21  N   UNL     1      18.711 -11.563  -6.764 -0.34 -0.00    +0.000 N 
DOCKED: ATOM     22  O   UNL     1      17.879 -11.659  -7.827 -0.38 -0.00    +0.000 OA
DOCKED: ATOM     23  O   UNL     1      16.970 -10.936  -5.357 -0.31 -0.00    +0.000 OA
DOCKED: ATOM     24  H   UNL     1      19.662 -11.800  -6.860 -0.21 -0.00    +0.000 HD
DOCKED: ENDBRANCH  19  20
DOCKED: ENDBRANCH   3  18
DOCKED: TORSDOF 5
DOCKED: TER
DOCKED: ENDMDL
________________________________________________________________________________


	BEGINNING GENETIC ALGORITHM DOCKING 90 of 100
Run: 90 Seed: 375076081 97870757 [ Run 90 of 100 GA/GALS ]
Beginning LAMARCKIAN GENETIC ALGORITHM (LGA), with a maximum of 2500000 energy evaluations.

Final-Value: -13.709


	FINAL GENETIC ALGORITHM DOCKED STATE
	_______________________________________________


Detailed state:  trans 21.169 -11.781 -2.574 quatxyzw -0.470860 -0.293226 -0.830272 0.054394 center 0.217 0.012 -0.211 ntor 5 -166.2976 -112.0496 160.6984 158.5600 -137.6737
State:	 21.169 -11.781  -2.574  -0.472 -0.294 -0.832 173.764   -166.30 -112.05  160.70  158.56 -137.67

DOCKED: MODEL       90
DOCKED: USER    Run = 90
DOCKED: USER    DPF = ligand_dock.biased.dpf
DOCKED: USER  
DOCKED: USER    Estimated Free Energy of Binding    =  -11.25 kcal/mol  [=(1)+(2)+(3)-(4)]
DOCKED: USER    Estimated Inhibition Constant, Ki   =    5.69 nM (nanomolar)  [Temperature = 298.15 K]
DOCKED: USER    
DOCKED: USER    (1) Final Intermolecular Energy     =  -12.74 kcal/mol
DOCKED: USER        vdW + Hbond + desolv Energy     =  -12.74 kcal/mol
DOCKED: USER        Electrostatic Energy            =   +0.00 kcal/mol
DOCKED: USER    (2) Final Total Internal Energy     =   -0.97 kcal/mol
DOCKED: USER    (3) Torsional Free Energy           =   +1.49 kcal/mol
DOCKED: USER    (4) Unbound System's Energy  [=(2)] =   -0.97 kcal/mol
DOCKED: USER    
DOCKED: USER    
DOCKED: USER    NEWDPF move ligand.pdbqt
DOCKED: USER    NEWDPF about 0.217000 0.012000 -0.211000
DOCKED: USER    NEWDPF tran0 21.168619 -11.781011 -2.574304
DOCKED: USER    NEWDPF quaternion0 -0.470860 -0.293226 -0.830272 0.054394
DOCKED: USER    NEWDPF axisangle0 -0.471558 -0.293660 -0.831503 173.763785
DOCKED: USER    NEWDPF quat0 -0.471558 -0.293660 -0.831503 173.763785
DOCKED: USER    NEWDPF dihe0 -166.30 -112.05 160.70 158.56 -137.67 
DOCKED: USER  keepresnum = 1 
DOCKED: USER  
DOCKED: REMARK  Name = 
DOCKED: REMARK  5 active torsions:
DOCKED: REMARK  status: ('A' for Active; 'I' for Inactive)
DOCKED: REMARK    1  A    between atoms: S_2  and  N_3
DOCKED: REMARK    2  A    between atoms: S_2  and  C_10
DOCKED: REMARK    3  A    between atoms: N_3  and  C_4
DOCKED: REMARK    4  A    between atoms: C_12  and  C_13
DOCKED: REMARK    5  A    between atoms: C_14  and  C_15
DOCKED: REMARK                            x       y       z     vdW  Elec       q    Type
DOCKED: REMARK                         _______ _______ _______ _____ _____    ______ ____
DOCKED: USER                              x       y       z     vdW  Elec       q    Type
DOCKED: USER                           _______ _______ _______ _____ _____    ______ ____
DOCKED: ROOT
DOCKED: ATOM      1  C   UNL     1      21.027 -10.264  -4.136 -0.42 -0.00    +0.000 A 
DOCKED: ATOM      2  C   UNL     1      20.604 -10.894  -2.957 -0.39 -0.00    +0.000 A 
DOCKED: ATOM      3  C   UNL     1      20.587 -10.190  -1.734 -0.51 -0.00    +0.000 A 
DOCKED: ATOM      4  C   UNL     1      21.016  -8.853  -1.717 -0.49 -0.00    +0.000 A 
DOCKED: ATOM      5  C   UNL     1      21.427  -8.222  -2.894 -0.38 -0.00    +0.000 A 
DOCKED: ATOM      6  C   UNL     1      21.429  -8.923  -4.101 -0.33 -0.00    +0.000 A 
DOCKED: ENDROOT
DOCKED: BRANCH   1   8
DOCKED: ATOM      7  O   UNL     1      19.670 -11.501  -6.100 -0.43 -0.00    +0.000 OA
DOCKED: ATOM      8  S   UNL     1      21.064 -11.162  -5.651 -0.59 -0.00    +0.000 S 
DOCKED: ATOM      9  O   UNL     1      21.833 -12.434  -5.438 -0.79 -0.00    +0.000 OA
DOCKED: BRANCH   8  10
DOCKED: ATOM     10  N   UNL     1      21.844 -10.222  -6.885 -0.28 -0.00    +0.000 N 
DOCKED: ATOM     11  H   UNL     1      21.349  -9.463  -7.269 +0.00 -0.00    +0.000 HD
DOCKED: BRANCH  10  12
DOCKED: ATOM     12  C   UNL     1      23.169 -10.486  -7.379 -0.31 -0.00    +0.000 A 
DOCKED: ATOM     13  C   UNL     1      24.180  -9.505  -7.360 -0.24 -0.00    +0.000 A 
DOCKED: ATOM     14  C   UNL     1      25.460  -9.801  -7.839 -0.30 -0.00    +0.000 A 
DOCKED: ATOM     15  C   UNL     1      25.743 -11.070  -8.347 -0.36 -0.00    +0.000 A 
DOCKED: ATOM     16  C   UNL     1      24.745 -12.047  -8.379 -0.43 -0.00    +0.000 A 
DOCKED: ATOM     17  C   UNL     1      23.465 -11.756  -7.900 -0.42 -0.00    +0.000 A 
DOCKED: ENDBRANCH  10  12
DOCKED: ENDBRANCH   8  10
DOCKED: ENDBRANCH   1   8
DOCKED: BRANCH   3  18
DOCKED: ATOM     18  C   UNL     1      20.173 -10.819  -0.456 -0.59 -0.00    +0.000 C 
DOCKED: ATOM     19  C   UNL     1      20.809 -10.625   0.710 -0.68 -0.00    +0.000 C 
DOCKED: BRANCH  19  20
DOCKED: ATOM     20  C   UNL     1      20.389 -11.253   1.980 -0.75 -0.00    +0.000 C 
DOCKED: ATOM     21  N   UNL     1      20.575 -10.614   3.249 -0.66 -0.00    +0.000 N 
DOCKED: ATOM     22  O   UNL     1      20.269 -11.274   4.391 -1.00 -0.00    +0.000 OA
DOCKED: ATOM     23  O   UNL     1      19.825 -12.379   1.935 -1.77 -0.00    +0.000 OA
DOCKED: ATOM     24  H   UNL     1      20.925  -9.695   3.291 -0.60 -0.00    +0.000 HD
DOCKED: ENDBRANCH  19  20
DOCKED: ENDBRANCH   3  18
DOCKED: TORSDOF 5
DOCKED: TER
DOCKED: ENDMDL
________________________________________________________________________________


	BEGINNING GENETIC ALGORITHM DOCKING 91 of 100
Run: 91 Seed: 826346376 1642190062 [ Run 91 of 100 GA/GALS ]
Beginning LAMARCKIAN GENETIC ALGORITHM (LGA), with a maximum of 2500000 energy evaluations.

Final-Value: -13.040


	FINAL GENETIC ALGORITHM DOCKED STATE
	_______________________________________________


Detailed state:  trans 18.354 -11.008 -0.846 quatxyzw 0.658146 -0.435660 -0.356167 0.500189 center 0.217 0.012 -0.211 ntor 5 -82.8740 -12.6253 158.4392 133.7216 -40.1518
State:	 18.354 -11.008  -0.846   0.760 -0.503 -0.411 119.975    -82.87  -12.63  158.44  133.72  -40.15

DOCKED: MODEL       91
DOCKED: USER    Run = 91
DOCKED: USER    DPF = ligand_dock.biased.dpf
DOCKED: USER  
DOCKED: USER    Estimated Free Energy of Binding    =  -10.41 kcal/mol  [=(1)+(2)+(3)-(4)]
DOCKED: USER    Estimated Inhibition Constant, Ki   =   23.24 nM (nanomolar)  [Temperature = 298.15 K]
DOCKED: USER    
DOCKED: USER    (1) Final Intermolecular Energy     =  -11.91 kcal/mol
DOCKED: USER        vdW + Hbond + desolv Energy     =  -11.91 kcal/mol
DOCKED: USER        Electrostatic Energy            =   +0.00 kcal/mol
DOCKED: USER    (2) Final Total Internal Energy     =   -1.13 kcal/mol
DOCKED: USER    (3) Torsional Free Energy           =   +1.49 kcal/mol
DOCKED: USER    (4) Unbound System's Energy  [=(2)] =   -1.13 kcal/mol
DOCKED: USER    
DOCKED: USER    
DOCKED: USER    NEWDPF move ligand.pdbqt
DOCKED: USER    NEWDPF about 0.217000 0.012000 -0.211000
DOCKED: USER    NEWDPF tran0 18.353829 -11.008293 -0.845970
DOCKED: USER    NEWDPF quaternion0 0.658146 -0.435660 -0.356167 0.500189
DOCKED: USER    NEWDPF axisangle0 0.760058 -0.503120 -0.411318 119.974942
DOCKED: USER    NEWDPF quat0 0.760058 -0.503120 -0.411318 119.974942
DOCKED: USER    NEWDPF dihe0 -82.87 -12.63 158.44 133.72 -40.15 
DOCKED: USER  keepresnum = 1 
DOCKED: USER  
DOCKED: REMARK  Name = 
DOCKED: REMARK  5 active torsions:
DOCKED: REMARK  status: ('A' for Active; 'I' for Inactive)
DOCKED: REMARK    1  A    between atoms: S_2  and  N_3
DOCKED: REMARK    2  A    between atoms: S_2  and  C_10
DOCKED: REMARK    3  A    between atoms: N_3  and  C_4
DOCKED: REMARK    4  A    between atoms: C_12  and  C_13
DOCKED: REMARK    5  A    between atoms: C_14  and  C_15
DOCKED: REMARK                            x       y       z     vdW  Elec       q    Type
DOCKED: REMARK                         _______ _______ _______ _____ _____    ______ ____
DOCKED: USER                              x       y       z     vdW  Elec       q    Type
DOCKED: USER                           _______ _______ _______ _____ _____    ______ ____
DOCKED: ROOT
DOCKED: ATOM      1  C   UNL     1      20.124 -10.691   0.389 -0.57 -0.00    +0.000 A 
DOCKED: ATOM      2  C   UNL     1      19.456 -11.172  -0.746 -0.43 -0.00    +0.000 A 
DOCKED: ATOM      3  C   UNL     1      19.794 -10.699  -2.031 -0.40 -0.00    +0.000 A 
DOCKED: ATOM      4  C   UNL     1      20.800  -9.728  -2.151 -0.50 -0.00    +0.000 A 
DOCKED: ATOM      5  C   UNL     1      21.474  -9.256  -1.021 -0.47 -0.00    +0.000 A 
DOCKED: ATOM      6  C   UNL     1      21.140  -9.738   0.245 -0.56 -0.00    +0.000 A 
DOCKED: ENDROOT
DOCKED: BRANCH   1   8
DOCKED: ATOM      7  O   UNL     1      20.728 -10.913   3.000 -1.28 -0.00    +0.000 OA
DOCKED: ATOM      8  S   UNL     1      19.676 -11.275   1.990 -0.89 -0.00    +0.000 S 
DOCKED: ATOM      9  O   UNL     1      19.540 -12.769   1.937 -1.48 -0.00    +0.000 OA
DOCKED: BRANCH   8  10
DOCKED: ATOM     10  N   UNL     1      18.161 -10.580   2.477 -0.50 -0.00    +0.000 N 
DOCKED: ATOM     11  H   UNL     1      18.182  -9.801   3.079 -0.04 -0.00    +0.000 HD
DOCKED: BRANCH  10  12
DOCKED: ATOM     12  C   UNL     1      16.877 -11.073   2.054 -0.40 +0.00    +0.000 A 
DOCKED: ATOM     13  C   UNL     1      16.716 -11.799   0.858 -0.42 +0.00    +0.000 A 
DOCKED: ATOM     14  C   UNL     1      15.454 -12.272   0.484 -0.45 +0.00    +0.000 A 
DOCKED: ATOM     15  C   UNL     1      14.343 -12.022   1.292 -0.43 +0.00    +0.000 A 
DOCKED: ATOM     16  C   UNL     1      14.491 -11.295   2.475 -0.42 +0.00    +0.000 A 
DOCKED: ATOM     17  C   UNL     1      15.750 -10.821   2.854 -0.44 +0.00    +0.000 A 
DOCKED: ENDBRANCH  10  12
DOCKED: ENDBRANCH   8  10
DOCKED: ENDBRANCH   1   8
DOCKED: BRANCH   3  18
DOCKED: ATOM     18  C   UNL     1      19.100 -11.158  -3.260 -0.29 -0.00    +0.000 C 
DOCKED: ATOM     19  C   UNL     1      18.700 -10.334  -4.241 -0.33 -0.00    +0.000 C 
DOCKED: BRANCH  19  20
DOCKED: ATOM     20  C   UNL     1      18.012 -10.799  -5.463 -0.33 -0.00    +0.000 C 
DOCKED: ATOM     21  N   UNL     1      18.649 -11.646  -6.427 -0.38 -0.00    +0.000 N 
DOCKED: ATOM     22  O   UNL     1      18.013 -11.958  -7.580 -0.36 -0.00    +0.000 OA
DOCKED: ATOM     23  O   UNL     1      16.813 -10.454  -5.644 -0.24 -0.00    +0.000 OA
DOCKED: ATOM     24  H   UNL     1      19.550 -12.000  -6.250 -0.32 -0.00    +0.000 HD
DOCKED: ENDBRANCH  19  20
DOCKED: ENDBRANCH   3  18
DOCKED: TORSDOF 5
DOCKED: TER
DOCKED: ENDMDL
________________________________________________________________________________


	BEGINNING GENETIC ALGORITHM DOCKING 92 of 100
Run: 92 Seed: 1547199158 764485627 [ Run 92 of 100 GA/GALS ]
Beginning LAMARCKIAN GENETIC ALGORITHM (LGA), with a maximum of 2500000 energy evaluations.

Final-Value: -13.371


	FINAL GENETIC ALGORITHM DOCKED STATE
	_______________________________________________


Detailed state:  trans 20.975 -11.757 -0.985 quatxyzw -0.741181 -0.442909 0.488125 0.127342 center 0.217 0.012 -0.211 ntor 5 83.6041 -152.1980 -178.6805 116.4393 -179.8664
State:	 20.975 -11.757  -0.985  -0.747 -0.447  0.492 165.368     83.60 -152.20 -178.68  116.44 -179.87

DOCKED: MODEL       92
DOCKED: USER    Run = 92
DOCKED: USER    DPF = ligand_dock.biased.dpf
DOCKED: USER  
DOCKED: USER    Estimated Free Energy of Binding    =  -10.87 kcal/mol  [=(1)+(2)+(3)-(4)]
DOCKED: USER    Estimated Inhibition Constant, Ki   =   10.82 nM (nanomolar)  [Temperature = 298.15 K]
DOCKED: USER    
DOCKED: USER    (1) Final Intermolecular Energy     =  -12.36 kcal/mol
DOCKED: USER        vdW + Hbond + desolv Energy     =  -12.36 kcal/mol
DOCKED: USER        Electrostatic Energy            =   +0.00 kcal/mol
DOCKED: USER    (2) Final Total Internal Energy     =   -1.01 kcal/mol
DOCKED: USER    (3) Torsional Free Energy           =   +1.49 kcal/mol
DOCKED: USER    (4) Unbound System's Energy  [=(2)] =   -1.01 kcal/mol
DOCKED: USER    
DOCKED: USER    
DOCKED: USER    NEWDPF move ligand.pdbqt
DOCKED: USER    NEWDPF about 0.217000 0.012000 -0.211000
DOCKED: USER    NEWDPF tran0 20.974579 -11.756615 -0.985104
DOCKED: USER    NEWDPF quaternion0 -0.741181 -0.442909 0.488125 0.127342
DOCKED: USER    NEWDPF axisangle0 -0.747265 -0.446544 0.492132 165.367934
DOCKED: USER    NEWDPF quat0 -0.747265 -0.446544 0.492132 165.367934
DOCKED: USER    NEWDPF dihe0 83.60 -152.20 -178.68 116.44 -179.87 
DOCKED: USER  keepresnum = 1 
DOCKED: USER  
DOCKED: REMARK  Name = 
DOCKED: REMARK  5 active torsions:
DOCKED: REMARK  status: ('A' for Active; 'I' for Inactive)
DOCKED: REMARK    1  A    between atoms: S_2  and  N_3
DOCKED: REMARK    2  A    between atoms: S_2  and  C_10
DOCKED: REMARK    3  A    between atoms: N_3  and  C_4
DOCKED: REMARK    4  A    between atoms: C_12  and  C_13
DOCKED: REMARK    5  A    between atoms: C_14  and  C_15
DOCKED: REMARK                            x       y       z     vdW  Elec       q    Type
DOCKED: REMARK                         _______ _______ _______ _____ _____    ______ ____
DOCKED: USER                              x       y       z     vdW  Elec       q    Type
DOCKED: USER                           _______ _______ _______ _____ _____    ______ ____
DOCKED: ROOT
DOCKED: ATOM      1  C   UNL     1      19.287 -10.792   0.006 -0.46 -0.00    +0.000 A 
DOCKED: ATOM      2  C   UNL     1      20.343 -10.836  -0.916 -0.47 -0.00    +0.000 A 
DOCKED: ATOM      3  C   UNL     1      20.091 -10.723  -2.299 -0.40 -0.00    +0.000 A 
DOCKED: ATOM      4  C   UNL     1      18.765 -10.583  -2.737 -0.32 -0.00    +0.000 A 
DOCKED: ATOM      5  C   UNL     1      17.713 -10.529  -1.818 -0.23 -0.00    +0.000 A 
DOCKED: ATOM      6  C   UNL     1      17.973 -10.629  -0.450 -0.25 -0.00    +0.000 A 
DOCKED: ENDROOT
DOCKED: BRANCH   1   8
DOCKED: ATOM      7  O   UNL     1      21.016 -10.517   2.047 -0.71 -0.00    +0.000 OA
DOCKED: ATOM      8  S   UNL     1      19.614 -10.956   1.730 -0.84 -0.00    +0.000 S 
DOCKED: ATOM      9  O   UNL     1      19.453 -12.399   2.114 -1.55 -0.00    +0.000 OA
DOCKED: BRANCH   8  10
DOCKED: ATOM     10  N   UNL     1      18.497  -9.993   2.645 -0.54 -0.00    +0.000 N 
DOCKED: ATOM     11  H   UNL     1      18.858  -9.247   3.177 -0.27 -0.00    +0.000 HD
DOCKED: BRANCH  10  12
DOCKED: ATOM     12  C   UNL     1      17.076 -10.219   2.673 -0.42 +0.00    +0.000 A 
DOCKED: ATOM     13  C   UNL     1      16.177  -9.245   3.150 -0.36 +0.00    +0.000 A 
DOCKED: ATOM     14  C   UNL     1      14.801  -9.496   3.152 -0.32 +0.00    +0.000 A 
DOCKED: ATOM     15  C   UNL     1      14.310 -10.718   2.689 -0.36 +0.00    +0.000 A 
DOCKED: ATOM     16  C   UNL     1      15.194 -11.693   2.223 -0.44 +0.00    +0.000 A 
DOCKED: ATOM     17  C   UNL     1      16.569 -11.447   2.217 -0.35 +0.00    +0.000 A 
DOCKED: ENDBRANCH  10  12
DOCKED: ENDBRANCH   8  10
DOCKED: ENDBRANCH   1   8
DOCKED: BRANCH   3  18
DOCKED: ATOM     18  C   UNL     1      21.170 -10.789  -3.316 -0.48 -0.00    +0.000 C 
DOCKED: ATOM     19  C   UNL     1      20.962 -11.100  -4.605 -0.53 -0.00    +0.000 C 
DOCKED: BRANCH  19  20
DOCKED: ATOM     20  C   UNL     1      22.041 -11.161  -5.612 -0.50 -0.00    +0.000 C 
DOCKED: ATOM     21  N   UNL     1      22.608 -12.400  -6.055 -0.59 -0.00    +0.000 N 
DOCKED: ATOM     22  O   UNL     1      23.664 -12.398  -6.900 -1.13 -0.00    +0.000 OA
DOCKED: ATOM     23  O   UNL     1      22.456 -10.081  -6.113 -0.37 -0.00    +0.000 OA
DOCKED: ATOM     24  H   UNL     1      22.228 -13.253  -5.744 -0.48 -0.00    +0.000 HD
DOCKED: ENDBRANCH  19  20
DOCKED: ENDBRANCH   3  18
DOCKED: TORSDOF 5
DOCKED: TER
DOCKED: ENDMDL
________________________________________________________________________________


	BEGINNING GENETIC ALGORITHM DOCKING 93 of 100
Run: 93 Seed: 420339027 1410476413 [ Run 93 of 100 GA/GALS ]
Beginning LAMARCKIAN GENETIC ALGORITHM (LGA), with a maximum of 2500000 energy evaluations.

Final-Value: -14.266


	FINAL GENETIC ALGORITHM DOCKED STATE
	_______________________________________________


Detailed state:  trans 17.515 -8.941 2.562 quatxyzw -0.015277 -0.966309 -0.055123 -0.250948 center 0.217 0.012 -0.211 ntor 5 -159.0958 43.7459 13.5488 -15.1411 -47.2351
State:	 17.515  -8.941   2.562  -0.016 -0.998 -0.057 -150.933   -159.10   43.75   13.55  -15.14  -47.24

DOCKED: MODEL       93
DOCKED: USER    Run = 93
DOCKED: USER    DPF = ligand_dock.biased.dpf
DOCKED: USER  
DOCKED: USER    Estimated Free Energy of Binding    =  -11.66 kcal/mol  [=(1)+(2)+(3)-(4)]
DOCKED: USER    Estimated Inhibition Constant, Ki   =    2.83 nM (nanomolar)  [Temperature = 298.15 K]
DOCKED: USER    
DOCKED: USER    (1) Final Intermolecular Energy     =  -13.15 kcal/mol
DOCKED: USER        vdW + Hbond + desolv Energy     =  -13.15 kcal/mol
DOCKED: USER        Electrostatic Energy            =   +0.00 kcal/mol
DOCKED: USER    (2) Final Total Internal Energy     =   -1.11 kcal/mol
DOCKED: USER    (3) Torsional Free Energy           =   +1.49 kcal/mol
DOCKED: USER    (4) Unbound System's Energy  [=(2)] =   -1.11 kcal/mol
DOCKED: USER    
DOCKED: USER    
DOCKED: USER    NEWDPF move ligand.pdbqt
DOCKED: USER    NEWDPF about 0.217000 0.012000 -0.211000
DOCKED: USER    NEWDPF tran0 17.514658 -8.940865 2.562317
DOCKED: USER    NEWDPF quaternion0 -0.015277 -0.966309 -0.055123 -0.250948
DOCKED: USER    NEWDPF axisangle0 -0.015782 -0.998253 -0.056945 -150.932764
DOCKED: USER    NEWDPF quat0 -0.015782 -0.998253 -0.056945 -150.932764
DOCKED: USER    NEWDPF dihe0 -159.10 43.75 13.55 -15.14 -47.24 
DOCKED: USER  keepresnum = 1 
DOCKED: USER  
DOCKED: REMARK  Name = 
DOCKED: REMARK  5 active torsions:
DOCKED: REMARK  status: ('A' for Active; 'I' for Inactive)
DOCKED: REMARK    1  A    between atoms: S_2  and  N_3
DOCKED: REMARK    2  A    between atoms: S_2  and  C_10
DOCKED: REMARK    3  A    between atoms: N_3  and  C_4
DOCKED: REMARK    4  A    between atoms: C_12  and  C_13
DOCKED: REMARK    5  A    between atoms: C_14  and  C_15
DOCKED: REMARK                            x       y       z     vdW  Elec       q    Type
DOCKED: REMARK                         _______ _______ _______ _____ _____    ______ ____
DOCKED: USER                              x       y       z     vdW  Elec       q    Type
DOCKED: USER                           _______ _______ _______ _____ _____    ______ ____
DOCKED: ROOT
DOCKED: ATOM      1  C   UNL     1      17.889 -11.048   2.140 -0.45 +0.00    +0.000 A 
DOCKED: ATOM      2  C   UNL     1      17.257  -9.999   2.820 -0.41 +0.00    +0.000 A 
DOCKED: ATOM      3  C   UNL     1      15.858  -9.834   2.742 -0.37 +0.00    +0.000 A 
DOCKED: ATOM      4  C   UNL     1      15.114 -10.729   1.958 -0.34 +0.00    +0.000 A 
DOCKED: ATOM      5  C   UNL     1      15.743 -11.782   1.288 -0.40 +0.00    +0.000 A 
DOCKED: ATOM      6  C   UNL     1      17.126 -11.945   1.381 -0.40 +0.00    +0.000 A 
DOCKED: ENDROOT
DOCKED: BRANCH   1   8
DOCKED: ATOM      7  O   UNL     1      20.045 -12.639   1.905 -1.64 -0.00    +0.000 OA
DOCKED: ATOM      8  S   UNL     1      19.640 -11.228   2.229 -0.89 -0.00    +0.000 S 
DOCKED: ATOM      9  O   UNL     1      20.087 -10.898   3.624 -1.13 -0.00    +0.000 OA
DOCKED: BRANCH   8  10
DOCKED: ATOM     10  N   UNL     1      20.410 -10.147   1.110 -0.57 -0.00    +0.000 N 
DOCKED: ATOM     11  H   UNL     1      20.941  -9.404   1.478 -0.48 -0.00    +0.000 HD
DOCKED: BRANCH  10  12
DOCKED: ATOM     12  C   UNL     1      20.320 -10.272  -0.320 -0.55 -0.00    +0.000 A 
DOCKED: ATOM     13  C   UNL     1      19.174 -10.795  -0.951 -0.41 -0.00    +0.000 A 
DOCKED: ATOM     14  C   UNL     1      19.118 -10.893  -2.345 -0.38 -0.00    +0.000 A 
DOCKED: ATOM     15  C   UNL     1      20.202 -10.478  -3.122 -0.43 -0.00    +0.000 A 
DOCKED: ATOM     16  C   UNL     1      21.346  -9.966  -2.506 -0.49 -0.00    +0.000 A 
DOCKED: ATOM     17  C   UNL     1      21.406  -9.866  -1.113 -0.57 -0.00    +0.000 A 
DOCKED: ENDBRANCH  10  12
DOCKED: ENDBRANCH   8  10
DOCKED: ENDBRANCH   1   8
DOCKED: BRANCH   3  18
DOCKED: ATOM     18  C   UNL     1      15.144  -8.725   3.422 -0.38 +0.00    +0.000 C 
DOCKED: ATOM     19  C   UNL     1      15.723  -7.897   4.306 -0.21 +0.00    +0.000 C 
DOCKED: BRANCH  19  20
DOCKED: ATOM     20  C   UNL     1      15.006  -6.794   4.978 -0.47 +0.00    +0.000 C 
DOCKED: ATOM     21  N   UNL     1      15.614  -5.520   5.222 -0.46 +0.00    +0.000 N 
DOCKED: ATOM     22  O   UNL     1      14.953  -4.578   5.933 -0.65 +0.00    +0.000 OA
DOCKED: ATOM     23  O   UNL     1      13.808  -6.978   5.322 -0.43 +0.00    +0.000 OA
DOCKED: ATOM     24  H   UNL     1      16.516  -5.330   4.873 -0.63 -0.00    +0.000 HD
DOCKED: ENDBRANCH  19  20
DOCKED: ENDBRANCH   3  18
DOCKED: TORSDOF 5
DOCKED: TER
DOCKED: ENDMDL
________________________________________________________________________________


	BEGINNING GENETIC ALGORITHM DOCKING 94 of 100
Run: 94 Seed: 2115136397 2007372722 [ Run 94 of 100 GA/GALS ]
Beginning LAMARCKIAN GENETIC ALGORITHM (LGA), with a maximum of 2500000 energy evaluations.

Final-Value: -13.393


	FINAL GENETIC ALGORITHM DOCKED STATE
	_______________________________________________


Detailed state:  trans 21.911 -11.527 -2.582 quatxyzw 0.411050 0.337221 0.845733 0.045344 center 0.217 0.012 -0.211 ntor 5 156.4281 -97.6615 -170.6573 49.1027 129.0682
State:	 21.911 -11.527  -2.582   0.411  0.338  0.847 174.802    156.43  -97.66 -170.66   49.10  129.07

DOCKED: MODEL       94
DOCKED: USER    Run = 94
DOCKED: USER    DPF = ligand_dock.biased.dpf
DOCKED: USER  
DOCKED: USER    Estimated Free Energy of Binding    =  -10.59 kcal/mol  [=(1)+(2)+(3)-(4)]
DOCKED: USER    Estimated Inhibition Constant, Ki   =   17.25 nM (nanomolar)  [Temperature = 298.15 K]
DOCKED: USER    
DOCKED: USER    (1) Final Intermolecular Energy     =  -12.08 kcal/mol
DOCKED: USER        vdW + Hbond + desolv Energy     =  -12.08 kcal/mol
DOCKED: USER        Electrostatic Energy            =   +0.00 kcal/mol
DOCKED: USER    (2) Final Total Internal Energy     =   -1.31 kcal/mol
DOCKED: USER    (3) Torsional Free Energy           =   +1.49 kcal/mol
DOCKED: USER    (4) Unbound System's Energy  [=(2)] =   -1.31 kcal/mol
DOCKED: USER    
DOCKED: USER    
DOCKED: USER    NEWDPF move ligand.pdbqt
DOCKED: USER    NEWDPF about 0.217000 0.012000 -0.211000
DOCKED: USER    NEWDPF tran0 21.911296 -11.526957 -2.582175
DOCKED: USER    NEWDPF quaternion0 0.411050 0.337221 0.845733 0.045344
DOCKED: USER    NEWDPF axisangle0 0.411473 0.337568 0.846604 174.802197
DOCKED: USER    NEWDPF quat0 0.411473 0.337568 0.846604 174.802197
DOCKED: USER    NEWDPF dihe0 156.43 -97.66 -170.66 49.10 129.07 
DOCKED: USER  keepresnum = 1 
DOCKED: USER  
DOCKED: REMARK  Name = 
DOCKED: REMARK  5 active torsions:
DOCKED: REMARK  status: ('A' for Active; 'I' for Inactive)
DOCKED: REMARK    1  A    between atoms: S_2  and  N_3
DOCKED: REMARK    2  A    between atoms: S_2  and  C_10
DOCKED: REMARK    3  A    between atoms: N_3  and  C_4
DOCKED: REMARK    4  A    between atoms: C_12  and  C_13
DOCKED: REMARK    5  A    between atoms: C_14  and  C_15
DOCKED: REMARK                            x       y       z     vdW  Elec       q    Type
DOCKED: REMARK                         _______ _______ _______ _____ _____    ______ ____
DOCKED: USER                              x       y       z     vdW  Elec       q    Type
DOCKED: USER                           _______ _______ _______ _____ _____    ______ ____
DOCKED: ROOT
DOCKED: ATOM      1  C   UNL     1      21.480 -10.044  -4.123 -0.41 -0.00    +0.000 A 
DOCKED: ATOM      2  C   UNL     1      21.167 -10.791  -2.979 -0.39 -0.00    +0.000 A 
DOCKED: ATOM      3  C   UNL     1      20.922 -10.149  -1.747 -0.54 -0.00    +0.000 A 
DOCKED: ATOM      4  C   UNL     1      21.013  -8.749  -1.684 -0.48 -0.00    +0.000 A 
DOCKED: ATOM      5  C   UNL     1      21.314  -8.003  -2.827 -0.39 -0.00    +0.000 A 
DOCKED: ATOM      6  C   UNL     1      21.543  -8.647  -4.044 -0.30 -0.00    +0.000 A 
DOCKED: ENDROOT
DOCKED: BRANCH   1   8
DOCKED: ATOM      7  O   UNL     1      22.299 -12.260  -5.406 -0.78 -0.00    +0.000 OA
DOCKED: ATOM      8  S   UNL     1      21.805 -10.861  -5.649 -0.60 -0.00    +0.000 S 
DOCKED: ATOM      9  O   UNL     1      22.859 -10.092  -6.392 -0.36 -0.00    +0.000 OA
DOCKED: BRANCH   8  10
DOCKED: ATOM     10  N   UNL     1      20.362 -10.929  -6.611 -0.31 -0.00    +0.000 N 
DOCKED: ATOM     11  H   UNL     1      20.426 -11.319  -7.513 -0.19 -0.00    +0.000 HD
DOCKED: BRANCH  10  12
DOCKED: ATOM     12  C   UNL     1      19.079 -10.450  -6.170 -0.28 -0.00    +0.000 A 
DOCKED: ATOM     13  C   UNL     1      18.019 -11.328  -5.871 -0.31 -0.00    +0.000 A 
DOCKED: ATOM     14  C   UNL     1      16.788 -10.826  -5.435 -0.24 -0.00    +0.000 A 
DOCKED: ATOM     15  C   UNL     1      16.600  -9.449  -5.299 -0.15 -0.00    +0.000 A 
DOCKED: ATOM     16  C   UNL     1      17.642  -8.570  -5.602 -0.12 -0.00    +0.000 A 
DOCKED: ATOM     17  C   UNL     1      18.874  -9.066  -6.037 -0.14 -0.00    +0.000 A 
DOCKED: ENDBRANCH  10  12
DOCKED: ENDBRANCH   8  10
DOCKED: ENDBRANCH   1   8
DOCKED: BRANCH   3  18
DOCKED: ATOM     18  C   UNL     1      20.613 -10.896  -0.503 -0.60 -0.00    +0.000 C 
DOCKED: ATOM     19  C   UNL     1      20.632 -10.346   0.721 -0.66 -0.00    +0.000 C 
DOCKED: BRANCH  19  20
DOCKED: ATOM     20  C   UNL     1      20.320 -11.096   1.955 -0.74 -0.00    +0.000 C 
DOCKED: ATOM     21  N   UNL     1      20.461 -10.520   3.259 -0.68 -0.00    +0.000 N 
DOCKED: ATOM     22  O   UNL     1      20.264 -11.280   4.361 -1.03 -0.00    +0.000 OA
DOCKED: ATOM     23  O   UNL     1      19.891 -12.276   1.848 -1.80 -0.00    +0.000 OA
DOCKED: ATOM     24  H   UNL     1      20.703  -9.569   3.354 -0.59 -0.00    +0.000 HD
DOCKED: ENDBRANCH  19  20
DOCKED: ENDBRANCH   3  18
DOCKED: TORSDOF 5
DOCKED: TER
DOCKED: ENDMDL
________________________________________________________________________________


	BEGINNING GENETIC ALGORITHM DOCKING 95 of 100
Run: 95 Seed: 374878998 761917398 [ Run 95 of 100 GA/GALS ]
Beginning LAMARCKIAN GENETIC ALGORITHM (LGA), with a maximum of 2500000 energy evaluations.

Final-Value: -12.770


	FINAL GENETIC ALGORITHM DOCKED STATE
	_______________________________________________


Detailed state:  trans 16.669 -9.065 2.253 quatxyzw -0.206939 -0.823267 -0.082160 -0.522166 center 0.217 0.012 -0.211 ntor 5 27.7894 -30.4420 176.7282 -169.7101 -40.5878
State:	 16.669  -9.065   2.253  -0.243 -0.965 -0.096 -117.045     27.79  -30.44  176.73 -169.71  -40.59

DOCKED: MODEL       95
DOCKED: USER    Run = 95
DOCKED: USER    DPF = ligand_dock.biased.dpf
DOCKED: USER  
DOCKED: USER    Estimated Free Energy of Binding    =  -10.36 kcal/mol  [=(1)+(2)+(3)-(4)]
DOCKED: USER    Estimated Inhibition Constant, Ki   =   25.29 nM (nanomolar)  [Temperature = 298.15 K]
DOCKED: USER    
DOCKED: USER    (1) Final Intermolecular Energy     =  -11.86 kcal/mol
DOCKED: USER        vdW + Hbond + desolv Energy     =  -11.86 kcal/mol
DOCKED: USER        Electrostatic Energy            =   +0.00 kcal/mol
DOCKED: USER    (2) Final Total Internal Energy     =   -0.91 kcal/mol
DOCKED: USER    (3) Torsional Free Energy           =   +1.49 kcal/mol
DOCKED: USER    (4) Unbound System's Energy  [=(2)] =   -0.91 kcal/mol
DOCKED: USER    
DOCKED: USER    
DOCKED: USER    NEWDPF move ligand.pdbqt
DOCKED: USER    NEWDPF about 0.217000 0.012000 -0.211000
DOCKED: USER    NEWDPF tran0 16.668806 -9.064895 2.252768
DOCKED: USER    NEWDPF quaternion0 -0.206939 -0.823267 -0.082160 -0.522166
DOCKED: USER    NEWDPF axisangle0 -0.242646 -0.965320 -0.096336 -117.044700
DOCKED: USER    NEWDPF quat0 -0.242646 -0.965320 -0.096336 -117.044700
DOCKED: USER    NEWDPF dihe0 27.79 -30.44 176.73 -169.71 -40.59 
DOCKED: USER  keepresnum = 1 
DOCKED: USER  
DOCKED: REMARK  Name = 
DOCKED: REMARK  5 active torsions:
DOCKED: REMARK  status: ('A' for Active; 'I' for Inactive)
DOCKED: REMARK    1  A    between atoms: S_2  and  N_3
DOCKED: REMARK    2  A    between atoms: S_2  and  C_10
DOCKED: REMARK    3  A    between atoms: N_3  and  C_4
DOCKED: REMARK    4  A    between atoms: C_12  and  C_13
DOCKED: REMARK    5  A    between atoms: C_14  and  C_15
DOCKED: REMARK                            x       y       z     vdW  Elec       q    Type
DOCKED: REMARK                         _______ _______ _______ _____ _____    ______ ____
DOCKED: USER                              x       y       z     vdW  Elec       q    Type
DOCKED: USER                           _______ _______ _______ _____ _____    ______ ____
DOCKED: ROOT
DOCKED: ATOM      1  C   UNL     1      16.011 -11.126   1.968 -0.39 +0.00    +0.000 A 
DOCKED: ATOM      2  C   UNL     1      16.278  -9.990   2.746 -0.39 +0.00    +0.000 A 
DOCKED: ATOM      3  C   UNL     1      15.244  -9.352   3.461 -0.36 +0.00    +0.000 A 
DOCKED: ATOM      4  C   UNL     1      13.940  -9.864   3.368 -0.30 +0.00    +0.000 A 
DOCKED: ATOM      5  C   UNL     1      13.675 -11.002   2.601 -0.32 +0.00    +0.000 A 
DOCKED: ATOM      6  C   UNL     1      14.707 -11.634   1.906 -0.43 +0.00    +0.000 A 
DOCKED: ENDROOT
DOCKED: BRANCH   1   8
DOCKED: ATOM      7  O   UNL     1      16.895 -13.272   0.611 -1.20 +0.00    +0.000 OA
DOCKED: ATOM      8  S   UNL     1      17.309 -11.899   1.062 -0.63 +0.00    +0.000 S 
DOCKED: ATOM      9  O   UNL     1      18.512 -12.017   1.952 -0.82 -0.00    +0.000 OA
DOCKED: BRANCH   8  10
DOCKED: ATOM     10  N   UNL     1      17.718 -10.945  -0.330 -0.36 -0.00    +0.000 N 
DOCKED: ATOM     11  H   UNL     1      16.983 -10.552  -0.853 -0.01 -0.00    +0.000 HD
DOCKED: BRANCH  10  12
DOCKED: ATOM     12  C   UNL     1      19.067 -10.695  -0.764 -0.39 -0.00    +0.000 A 
DOCKED: ATOM     13  C   UNL     1      20.096 -10.384   0.146 -0.54 -0.00    +0.000 A 
DOCKED: ATOM     14  C   UNL     1      21.398 -10.157  -0.312 -0.63 -0.00    +0.000 A 
DOCKED: ATOM     15  C   UNL     1      21.685 -10.229  -1.677 -0.36 -0.00    +0.000 A 
DOCKED: ATOM     16  C   UNL     1      20.669 -10.528  -2.587 -0.47 -0.00    +0.000 A 
DOCKED: ATOM     17  C   UNL     1      19.367 -10.756  -2.135 -0.39 -0.00    +0.000 A 
DOCKED: ENDBRANCH  10  12
DOCKED: ENDBRANCH   8  10
DOCKED: ENDBRANCH   1   8
DOCKED: BRANCH   3  18
DOCKED: ATOM     18  C   UNL     1      15.470  -8.133   4.278 -0.29 +0.00    +0.000 C 
DOCKED: ATOM     19  C   UNL     1      14.515  -7.230   4.548 -0.40 +0.00    +0.000 C 
DOCKED: BRANCH  19  20
DOCKED: ATOM     20  C   UNL     1      14.748  -6.020   5.364 -0.46 +0.00    +0.000 C 
DOCKED: ATOM     21  N   UNL     1      15.891  -5.177   5.178 -0.43 -0.00    +0.000 N 
DOCKED: ATOM     22  O   UNL     1      16.114  -4.141   6.019 -0.65 +0.00    +0.000 OA
DOCKED: ATOM     23  O   UNL     1      13.892  -5.711   6.236 -1.13 +0.00    +0.000 OA
DOCKED: ATOM     24  H   UNL     1      16.516  -5.353   4.437 -0.53 -0.00    +0.000 HD
DOCKED: ENDBRANCH  19  20
DOCKED: ENDBRANCH   3  18
DOCKED: TORSDOF 5
DOCKED: TER
DOCKED: ENDMDL
________________________________________________________________________________


	BEGINNING GENETIC ALGORITHM DOCKING 96 of 100
Run: 96 Seed: 1140341394 300650083 [ Run 96 of 100 GA/GALS ]
Beginning LAMARCKIAN GENETIC ALGORITHM (LGA), with a maximum of 2500000 energy evaluations.

Final-Value: -13.021


	FINAL GENETIC ALGORITHM DOCKED STATE
	_______________________________________________


Detailed state:  trans 19.988 -12.120 -1.692 quatxyzw -0.812634 -0.444971 0.376332 -0.000527 center 0.217 0.012 -0.211 ntor 5 124.9021 -178.3633 129.2141 139.7778 158.2345
State:	 19.988 -12.120  -1.692  -0.813 -0.445  0.376 -179.940    124.90 -178.36  129.21  139.78  158.23

DOCKED: MODEL       96
DOCKED: USER    Run = 96
DOCKED: USER    DPF = ligand_dock.biased.dpf
DOCKED: USER  
DOCKED: USER    Estimated Free Energy of Binding    =  -10.54 kcal/mol  [=(1)+(2)+(3)-(4)]
DOCKED: USER    Estimated Inhibition Constant, Ki   =   18.74 nM (nanomolar)  [Temperature = 298.15 K]
DOCKED: USER    
DOCKED: USER    (1) Final Intermolecular Energy     =  -12.03 kcal/mol
DOCKED: USER        vdW + Hbond + desolv Energy     =  -12.03 kcal/mol
DOCKED: USER        Electrostatic Energy            =   +0.00 kcal/mol
DOCKED: USER    (2) Final Total Internal Energy     =   -0.99 kcal/mol
DOCKED: USER    (3) Torsional Free Energy           =   +1.49 kcal/mol
DOCKED: USER    (4) Unbound System's Energy  [=(2)] =   -0.99 kcal/mol
DOCKED: USER    
DOCKED: USER    
DOCKED: USER    NEWDPF move ligand.pdbqt
DOCKED: USER    NEWDPF about 0.217000 0.012000 -0.211000
DOCKED: USER    NEWDPF tran0 19.988085 -12.119709 -1.691663
DOCKED: USER    NEWDPF quaternion0 -0.812634 -0.444971 0.376332 -0.000527
DOCKED: USER    NEWDPF axisangle0 -0.812634 -0.444971 0.376332 -179.939618
DOCKED: USER    NEWDPF quat0 -0.812634 -0.444971 0.376332 -179.939618
DOCKED: USER    NEWDPF dihe0 124.90 -178.36 129.21 139.78 158.23 
DOCKED: USER  keepresnum = 1 
DOCKED: USER  
DOCKED: REMARK  Name = 
DOCKED: REMARK  5 active torsions:
DOCKED: REMARK  status: ('A' for Active; 'I' for Inactive)
DOCKED: REMARK    1  A    between atoms: S_2  and  N_3
DOCKED: REMARK    2  A    between atoms: S_2  and  C_10
DOCKED: REMARK    3  A    between atoms: N_3  and  C_4
DOCKED: REMARK    4  A    between atoms: C_12  and  C_13
DOCKED: REMARK    5  A    between atoms: C_14  and  C_15
DOCKED: REMARK                            x       y       z     vdW  Elec       q    Type
DOCKED: REMARK                         _______ _______ _______ _____ _____    ______ ____
DOCKED: USER                              x       y       z     vdW  Elec       q    Type
DOCKED: USER                           _______ _______ _______ _____ _____    ______ ____
DOCKED: ROOT
DOCKED: ATOM      1  C   UNL     1      18.322 -11.213  -0.614 -0.40 -0.00    +0.000 A 
DOCKED: ATOM      2  C   UNL     1      19.483 -11.166  -1.398 -0.32 -0.00    +0.000 A 
DOCKED: ATOM      3  C   UNL     1      19.451 -10.610  -2.694 -0.39 -0.00    +0.000 A 
DOCKED: ATOM      4  C   UNL     1      18.232 -10.120  -3.190 -0.26 -0.00    +0.000 A 
DOCKED: ATOM      5  C   UNL     1      17.077 -10.158  -2.405 -0.17 -0.00    +0.000 A 
DOCKED: ATOM      6  C   UNL     1      17.121 -10.698  -1.119 -0.26 -0.00    +0.000 A 
DOCKED: ENDROOT
DOCKED: BRANCH   1   8
DOCKED: ATOM      7  O   UNL     1      19.774 -12.340   1.348 -1.59 -0.00    +0.000 OA
DOCKED: ATOM      8  S   UNL     1      18.372 -11.931   0.994 -0.73 -0.00    +0.000 S 
DOCKED: ATOM      9  O   UNL     1      17.488 -13.145   1.007 -1.04 +0.00    +0.000 OA
DOCKED: BRANCH   8  10
DOCKED: ATOM     10  N   UNL     1      17.800 -10.794   2.175 -0.45 +0.00    +0.000 N 
DOCKED: ATOM     11  H   UNL     1      18.463 -10.223   2.625 -0.03 -0.00    +0.000 HD
DOCKED: BRANCH  10  12
DOCKED: ATOM     12  C   UNL     1      16.415 -10.637   2.534 -0.41 +0.00    +0.000 A 
DOCKED: ATOM     13  C   UNL     1      16.016  -9.862   3.641 -0.38 +0.00    +0.000 A 
DOCKED: ATOM     14  C   UNL     1      14.660  -9.724   3.953 -0.38 +0.00    +0.000 A 
DOCKED: ATOM     15  C   UNL     1      13.691 -10.359   3.173 -0.28 +0.00    +0.000 A 
DOCKED: ATOM     16  C   UNL     1      14.077 -11.137   2.079 -0.37 +0.00    +0.000 A 
DOCKED: ATOM     17  C   UNL     1      15.431 -11.277   1.762 -0.38 +0.00    +0.000 A 
DOCKED: ENDBRANCH  10  12
DOCKED: ENDBRANCH   8  10
DOCKED: ENDBRANCH   1   8
DOCKED: BRANCH   3  18
DOCKED: ATOM     18  C   UNL     1      20.646 -10.559  -3.572 -0.51 -0.00    +0.000 C 
DOCKED: ATOM     19  C   UNL     1      20.818 -11.350  -4.642 -0.52 -0.00    +0.000 C 
DOCKED: BRANCH  19  20
DOCKED: ATOM     20  C   UNL     1      22.010 -11.292  -5.514 -0.52 -0.00    +0.000 C 
DOCKED: ATOM     21  N   UNL     1      22.597 -12.465  -6.091 -0.55 -0.00    +0.000 N 
DOCKED: ATOM     22  O   UNL     1      23.748 -12.371  -6.795 -1.14 -0.00    +0.000 OA
DOCKED: ATOM     23  O   UNL     1      22.508 -10.164  -5.775 -0.39 -0.00    +0.000 OA
DOCKED: ATOM     24  H   UNL     1      22.162 -13.341  -5.974 -0.57 -0.00    +0.000 HD
DOCKED: ENDBRANCH  19  20
DOCKED: ENDBRANCH   3  18
DOCKED: TORSDOF 5
DOCKED: TER
DOCKED: ENDMDL
________________________________________________________________________________


	BEGINNING GENETIC ALGORITHM DOCKING 97 of 100
Run: 97 Seed: 2093721370 875565250 [ Run 97 of 100 GA/GALS ]
Beginning LAMARCKIAN GENETIC ALGORITHM (LGA), with a maximum of 2500000 energy evaluations.

Final-Value: -13.243


	FINAL GENETIC ALGORITHM DOCKED STATE
	_______________________________________________


Detailed state:  trans 18.211 -10.727 -1.046 quatxyzw 0.599769 -0.425025 -0.332220 0.590983 center 0.217 0.012 -0.211 ntor 5 -55.0731 -44.6820 -97.0508 -25.8929 43.3046
State:	 18.211 -10.727  -1.046   0.743 -0.527 -0.412 107.546    -55.07  -44.68  -97.05  -25.89   43.30

DOCKED: MODEL       97
DOCKED: USER    Run = 97
DOCKED: USER    DPF = ligand_dock.biased.dpf
DOCKED: USER  
DOCKED: USER    Estimated Free Energy of Binding    =  -10.56 kcal/mol  [=(1)+(2)+(3)-(4)]
DOCKED: USER    Estimated Inhibition Constant, Ki   =   18.32 nM (nanomolar)  [Temperature = 298.15 K]
DOCKED: USER    
DOCKED: USER    (1) Final Intermolecular Energy     =  -12.05 kcal/mol
DOCKED: USER        vdW + Hbond + desolv Energy     =  -12.05 kcal/mol
DOCKED: USER        Electrostatic Energy            =   +0.00 kcal/mol
DOCKED: USER    (2) Final Total Internal Energy     =   -1.20 kcal/mol
DOCKED: USER    (3) Torsional Free Energy           =   +1.49 kcal/mol
DOCKED: USER    (4) Unbound System's Energy  [=(2)] =   -1.20 kcal/mol
DOCKED: USER    
DOCKED: USER    
DOCKED: USER    NEWDPF move ligand.pdbqt
DOCKED: USER    NEWDPF about 0.217000 0.012000 -0.211000
DOCKED: USER    NEWDPF tran0 18.211056 -10.727146 -1.045518
DOCKED: USER    NEWDPF quaternion0 0.599769 -0.425025 -0.332220 0.590983
DOCKED: USER    NEWDPF axisangle0 0.743499 -0.526879 -0.411834 107.546361
DOCKED: USER    NEWDPF quat0 0.743499 -0.526879 -0.411834 107.546361
DOCKED: USER    NEWDPF dihe0 -55.07 -44.68 -97.05 -25.89 43.30 
DOCKED: USER  keepresnum = 1 
DOCKED: USER  
DOCKED: REMARK  Name = 
DOCKED: REMARK  5 active torsions:
DOCKED: REMARK  status: ('A' for Active; 'I' for Inactive)
DOCKED: REMARK    1  A    between atoms: S_2  and  N_3
DOCKED: REMARK    2  A    between atoms: S_2  and  C_10
DOCKED: REMARK    3  A    between atoms: N_3  and  C_4
DOCKED: REMARK    4  A    between atoms: C_12  and  C_13
DOCKED: REMARK    5  A    between atoms: C_14  and  C_15
DOCKED: REMARK                            x       y       z     vdW  Elec       q    Type
DOCKED: REMARK                         _______ _______ _______ _____ _____    ______ ____
DOCKED: USER                              x       y       z     vdW  Elec       q    Type
DOCKED: USER                           _______ _______ _______ _____ _____    ______ ____
DOCKED: ROOT
DOCKED: ATOM      1  C   UNL     1      19.889 -10.845   0.344 -0.56 -0.00    +0.000 A 
DOCKED: ATOM      2  C   UNL     1      19.273 -11.048  -0.899 -0.42 -0.00    +0.000 A 
DOCKED: ATOM      3  C   UNL     1      19.778 -10.426  -2.059 -0.42 -0.00    +0.000 A 
DOCKED: ATOM      4  C   UNL     1      20.899  -9.588  -1.945 -0.51 -0.00    +0.000 A 
DOCKED: ATOM      5  C   UNL     1      21.519  -9.394  -0.708 -0.49 -0.00    +0.000 A 
DOCKED: ATOM      6  C   UNL     1      21.019 -10.023   0.433 -0.57 -0.00    +0.000 A 
DOCKED: ENDROOT
DOCKED: BRANCH   1   8
DOCKED: ATOM      7  O   UNL     1      18.640 -10.583   2.711 -0.64 -0.00    +0.000 OA
DOCKED: ATOM      8  S   UNL     1      19.233 -11.611   1.789 -0.84 -0.00    +0.000 S 
DOCKED: ATOM      9  O   UNL     1      20.345 -12.326   2.502 -1.93 -0.00    +0.000 OA
DOCKED: BRANCH   8  10
DOCKED: ATOM     10  N   UNL     1      18.004 -12.757   1.353 -0.43 +0.00    +0.000 N 
DOCKED: ATOM     11  H   UNL     1      18.243 -13.712   1.350 -0.27 +0.00    +0.000 HD
DOCKED: BRANCH  10  12
DOCKED: ATOM     12  C   UNL     1      16.658 -12.395   0.996 -0.41 +0.00    +0.000 A 
DOCKED: ATOM     13  C   UNL     1      15.834 -11.646   1.859 -0.41 +0.00    +0.000 A 
DOCKED: ATOM     14  C   UNL     1      14.534 -11.304   1.474 -0.37 +0.00    +0.000 A 
DOCKED: ATOM     15  C   UNL     1      14.040 -11.709   0.232 -0.38 +0.00    +0.000 A 
DOCKED: ATOM     16  C   UNL     1      14.846 -12.460  -0.627 -0.44 +0.00    +0.000 A 
DOCKED: ATOM     17  C   UNL     1      16.146 -12.804  -0.247 -0.46 +0.00    +0.000 A 
DOCKED: ENDBRANCH  10  12
DOCKED: ENDBRANCH   8  10
DOCKED: ENDBRANCH   1   8
DOCKED: BRANCH   3  18
DOCKED: ATOM     18  C   UNL     1      19.148 -10.589  -3.393 -0.40 -0.00    +0.000 C 
DOCKED: ATOM     19  C   UNL     1      19.778 -11.112  -4.456 -0.48 -0.00    +0.000 C 
DOCKED: BRANCH  19  20
DOCKED: ATOM     20  C   UNL     1      19.142 -11.273  -5.780 -0.43 -0.00    +0.000 C 
DOCKED: ATOM     21  N   UNL     1      17.766 -11.642  -5.931 -0.35 -0.00    +0.000 N 
DOCKED: ATOM     22  O   UNL     1      17.259 -11.879  -7.163 -0.46 -0.00    +0.000 OA
DOCKED: ATOM     23  O   UNL     1      19.835 -11.052  -6.809 -0.36 -0.00    +0.000 OA
DOCKED: ATOM     24  H   UNL     1      17.189 -11.723  -5.137 -0.02 -0.00    +0.000 HD
DOCKED: ENDBRANCH  19  20
DOCKED: ENDBRANCH   3  18
DOCKED: TORSDOF 5
DOCKED: TER
DOCKED: ENDMDL
________________________________________________________________________________


	BEGINNING GENETIC ALGORITHM DOCKING 98 of 100
Run: 98 Seed: 1377974364 1943390954 [ Run 98 of 100 GA/GALS ]
Beginning LAMARCKIAN GENETIC ALGORITHM (LGA), with a maximum of 2500000 energy evaluations.

Final-Value: -13.478


	FINAL GENETIC ALGORITHM DOCKED STATE
	_______________________________________________


Detailed state:  trans 20.934 -11.801 -0.990 quatxyzw 0.746284 0.441284 -0.483823 -0.119347 center 0.217 0.012 -0.211 ntor 5 83.7307 -151.8456 -179.1417 122.6326 175.1891
State:	 20.934 -11.801  -0.990   0.752  0.444 -0.487 -166.291     83.73 -151.85 -179.14  122.63  175.19

DOCKED: MODEL       98
DOCKED: USER    Run = 98
DOCKED: USER    DPF = ligand_dock.biased.dpf
DOCKED: USER  
DOCKED: USER    Estimated Free Energy of Binding    =  -10.94 kcal/mol  [=(1)+(2)+(3)-(4)]
DOCKED: USER    Estimated Inhibition Constant, Ki   =    9.49 nM (nanomolar)  [Temperature = 298.15 K]
DOCKED: USER    
DOCKED: USER    (1) Final Intermolecular Energy     =  -12.44 kcal/mol
DOCKED: USER        vdW + Hbond + desolv Energy     =  -12.44 kcal/mol
DOCKED: USER        Electrostatic Energy            =   +0.00 kcal/mol
DOCKED: USER    (2) Final Total Internal Energy     =   -1.04 kcal/mol
DOCKED: USER    (3) Torsional Free Energy           =   +1.49 kcal/mol
DOCKED: USER    (4) Unbound System's Energy  [=(2)] =   -1.04 kcal/mol
DOCKED: USER    
DOCKED: USER    
DOCKED: USER    NEWDPF move ligand.pdbqt
DOCKED: USER    NEWDPF about 0.217000 0.012000 -0.211000
DOCKED: USER    NEWDPF tran0 20.934245 -11.800768 -0.989645
DOCKED: USER    NEWDPF quaternion0 0.746284 0.441284 -0.483823 -0.119347
DOCKED: USER    NEWDPF axisangle0 0.751656 0.444461 -0.487306 -166.291208
DOCKED: USER    NEWDPF quat0 0.751656 0.444461 -0.487306 -166.291208
DOCKED: USER    NEWDPF dihe0 83.73 -151.85 -179.14 122.63 175.19 
DOCKED: USER  keepresnum = 1 
DOCKED: USER  
DOCKED: REMARK  Name = 
DOCKED: REMARK  5 active torsions:
DOCKED: REMARK  status: ('A' for Active; 'I' for Inactive)
DOCKED: REMARK    1  A    between atoms: S_2  and  N_3
DOCKED: REMARK    2  A    between atoms: S_2  and  C_10
DOCKED: REMARK    3  A    between atoms: N_3  and  C_4
DOCKED: REMARK    4  A    between atoms: C_12  and  C_13
DOCKED: REMARK    5  A    between atoms: C_14  and  C_15
DOCKED: REMARK                            x       y       z     vdW  Elec       q    Type
DOCKED: REMARK                         _______ _______ _______ _____ _____    ______ ____
DOCKED: USER                              x       y       z     vdW  Elec       q    Type
DOCKED: USER                           _______ _______ _______ _____ _____    ______ ____
DOCKED: ROOT
DOCKED: ATOM      1  C   UNL     1      19.255 -10.829   0.009 -0.47 -0.00    +0.000 A 
DOCKED: ATOM      2  C   UNL     1      20.315 -10.873  -0.909 -0.46 -0.00    +0.000 A 
DOCKED: ATOM      3  C   UNL     1      20.071 -10.736  -2.292 -0.40 -0.00    +0.000 A 
DOCKED: ATOM      4  C   UNL     1      18.749 -10.570  -2.733 -0.32 -0.00    +0.000 A 
DOCKED: ATOM      5  C   UNL     1      17.694 -10.516  -1.818 -0.22 -0.00    +0.000 A 
DOCKED: ATOM      6  C   UNL     1      17.946 -10.640  -0.451 -0.25 -0.00    +0.000 A 
DOCKED: ENDROOT
DOCKED: BRANCH   1   8
DOCKED: ATOM      7  O   UNL     1      21.011 -10.723   2.042 -0.84 -0.00    +0.000 OA
DOCKED: ATOM      8  S   UNL     1      19.572 -11.024   1.731 -0.84 -0.00    +0.000 S 
DOCKED: ATOM      9  O   UNL     1      19.272 -12.444   2.117 -1.37 -0.00    +0.000 OA
DOCKED: BRANCH   8  10
DOCKED: ATOM     10  N   UNL     1      18.558  -9.955   2.650 -0.54 -0.00    +0.000 N 
DOCKED: ATOM     11  H   UNL     1      18.983  -9.193   3.105 -0.38 -0.00    +0.000 HD
DOCKED: BRANCH  10  12
DOCKED: ATOM     12  C   UNL     1      17.135 -10.117   2.787 -0.42 +0.00    +0.000 A 
DOCKED: ATOM     13  C   UNL     1      16.308  -9.075   3.248 -0.33 +0.00    +0.000 A 
DOCKED: ATOM     14  C   UNL     1      14.927  -9.266   3.359 -0.33 +0.00    +0.000 A 
DOCKED: ATOM     15  C   UNL     1      14.359 -10.496   3.020 -0.36 +0.00    +0.000 A 
DOCKED: ATOM     16  C   UNL     1      15.172 -11.539   2.571 -0.45 +0.00    +0.000 A 
DOCKED: ATOM     17  C   UNL     1      16.552 -11.352   2.457 -0.35 +0.00    +0.000 A 
DOCKED: ENDBRANCH  10  12
DOCKED: ENDBRANCH   8  10
DOCKED: ENDBRANCH   1   8
DOCKED: BRANCH   3  18
DOCKED: ATOM     18  C   UNL     1      21.154 -10.800  -3.304 -0.48 -0.00    +0.000 C 
DOCKED: ATOM     19  C   UNL     1      20.949 -11.097  -4.597 -0.53 -0.00    +0.000 C 
DOCKED: BRANCH  19  20
DOCKED: ATOM     20  C   UNL     1      22.032 -11.157  -5.600 -0.50 -0.00    +0.000 C 
DOCKED: ATOM     21  N   UNL     1      22.589 -12.397  -6.054 -0.58 -0.00    +0.000 N 
DOCKED: ATOM     22  O   UNL     1      23.649 -12.396  -6.895 -1.13 -0.00    +0.000 OA
DOCKED: ATOM     23  O   UNL     1      22.459 -10.076  -6.087 -0.37 -0.00    +0.000 OA
DOCKED: ATOM     24  H   UNL     1      22.199 -13.250  -5.754 -0.51 -0.00    +0.000 HD
DOCKED: ENDBRANCH  19  20
DOCKED: ENDBRANCH   3  18
DOCKED: TORSDOF 5
DOCKED: TER
DOCKED: ENDMDL
________________________________________________________________________________


	BEGINNING GENETIC ALGORITHM DOCKING 99 of 100
Run: 99 Seed: 1119491460 972913126 [ Run 99 of 100 GA/GALS ]
Beginning LAMARCKIAN GENETIC ALGORITHM (LGA), with a maximum of 2500000 energy evaluations.

Final-Value: -13.407


	FINAL GENETIC ALGORITHM DOCKED STATE
	_______________________________________________


Detailed state:  trans 21.656 -11.647 -2.564 quatxyzw -0.422663 -0.315374 -0.849641 -0.002365 center 0.217 0.012 -0.211 ntor 5 178.5835 73.2586 173.1109 59.8790 119.9109
State:	 21.656 -11.647  -2.564  -0.423 -0.315 -0.850 -179.729    178.58   73.26  173.11   59.88  119.91

DOCKED: MODEL       99
DOCKED: USER    Run = 99
DOCKED: USER    DPF = ligand_dock.biased.dpf
DOCKED: USER  
DOCKED: USER    Estimated Free Energy of Binding    =  -10.61 kcal/mol  [=(1)+(2)+(3)-(4)]
DOCKED: USER    Estimated Inhibition Constant, Ki   =   16.73 nM (nanomolar)  [Temperature = 298.15 K]
DOCKED: USER    
DOCKED: USER    (1) Final Intermolecular Energy     =  -12.10 kcal/mol
DOCKED: USER        vdW + Hbond + desolv Energy     =  -12.10 kcal/mol
DOCKED: USER        Electrostatic Energy            =   +0.00 kcal/mol
DOCKED: USER    (2) Final Total Internal Energy     =   -1.31 kcal/mol
DOCKED: USER    (3) Torsional Free Energy           =   +1.49 kcal/mol
DOCKED: USER    (4) Unbound System's Energy  [=(2)] =   -1.31 kcal/mol
DOCKED: USER    
DOCKED: USER    
DOCKED: USER    NEWDPF move ligand.pdbqt
DOCKED: USER    NEWDPF about 0.217000 0.012000 -0.211000
DOCKED: USER    NEWDPF tran0 21.656344 -11.646755 -2.564323
DOCKED: USER    NEWDPF quaternion0 -0.422663 -0.315374 -0.849641 -0.002365
DOCKED: USER    NEWDPF axisangle0 -0.422664 -0.315375 -0.849643 -179.728967
DOCKED: USER    NEWDPF quat0 -0.422664 -0.315375 -0.849643 -179.728967
DOCKED: USER    NEWDPF dihe0 178.58 73.26 173.11 59.88 119.91 
DOCKED: USER  keepresnum = 1 
DOCKED: USER  
DOCKED: REMARK  Name = 
DOCKED: REMARK  5 active torsions:
DOCKED: REMARK  status: ('A' for Active; 'I' for Inactive)
DOCKED: REMARK    1  A    between atoms: S_2  and  N_3
DOCKED: REMARK    2  A    between atoms: S_2  and  C_10
DOCKED: REMARK    3  A    between atoms: N_3  and  C_4
DOCKED: REMARK    4  A    between atoms: C_12  and  C_13
DOCKED: REMARK    5  A    between atoms: C_14  and  C_15
DOCKED: REMARK                            x       y       z     vdW  Elec       q    Type
DOCKED: REMARK                         _______ _______ _______ _____ _____    ______ ____
DOCKED: USER                              x       y       z     vdW  Elec       q    Type
DOCKED: USER                           _______ _______ _______ _____ _____    ______ ____
DOCKED: ROOT
DOCKED: ATOM      1  C   UNL     1      21.390 -10.124  -4.104 -0.43 -0.00    +0.000 A 
DOCKED: ATOM      2  C   UNL     1      20.993 -10.840  -2.966 -0.38 -0.00    +0.000 A 
DOCKED: ATOM      3  C   UNL     1      20.799 -10.180  -1.735 -0.53 -0.00    +0.000 A 
DOCKED: ATOM      4  C   UNL     1      21.027  -8.796  -1.666 -0.49 -0.00    +0.000 A 
DOCKED: ATOM      5  C   UNL     1      21.412  -8.080  -2.802 -0.39 -0.00    +0.000 A 
DOCKED: ATOM      6  C   UNL     1      21.590  -8.740  -4.019 -0.30 -0.00    +0.000 A 
DOCKED: ENDROOT
DOCKED: BRANCH   1   8
DOCKED: ATOM      7  O   UNL     1      22.213 -12.338  -5.389 -0.81 -0.00    +0.000 OA
DOCKED: ATOM      8  S   UNL     1      21.649 -10.966  -5.630 -0.61 -0.00    +0.000 S 
DOCKED: ATOM      9  O   UNL     1      22.622 -10.174  -6.456 -0.36 -0.00    +0.000 OA
DOCKED: BRANCH   8  10
DOCKED: ATOM     10  N   UNL     1      20.151 -11.113  -6.494 -0.30 -0.00    +0.000 N 
DOCKED: ATOM     11  H   UNL     1      20.141 -11.662  -7.311 -0.20 -0.00    +0.000 HD
DOCKED: BRANCH  10  12
DOCKED: ATOM     12  C   UNL     1      18.924 -10.481  -6.088 -0.29 -0.00    +0.000 A 
DOCKED: ATOM     13  C   UNL     1      18.803  -9.081  -5.993 -0.14 -0.00    +0.000 A 
DOCKED: ATOM     14  C   UNL     1      17.590  -8.502  -5.605 -0.12 -0.00    +0.000 A 
DOCKED: ATOM     15  C   UNL     1      16.492  -9.309  -5.301 -0.14 -0.00    +0.000 A 
DOCKED: ATOM     16  C   UNL     1      16.605 -10.699  -5.383 -0.23 -0.00    +0.000 A 
DOCKED: ATOM     17  C   UNL     1      17.814 -11.283  -5.772 -0.31 -0.00    +0.000 A 
DOCKED: ENDBRANCH  10  12
DOCKED: ENDBRANCH   8  10
DOCKED: ENDBRANCH   1   8
DOCKED: BRANCH   3  18
DOCKED: ATOM     18  C   UNL     1      20.404 -10.896  -0.497 -0.59 -0.00    +0.000 C 
DOCKED: ATOM     19  C   UNL     1      20.746 -10.495   0.738 -0.67 -0.00    +0.000 C 
DOCKED: BRANCH  19  20
DOCKED: ATOM     20  C   UNL     1      20.347 -11.212   1.966 -0.75 -0.00    +0.000 C 
DOCKED: ATOM     21  N   UNL     1      20.414 -10.608   3.263 -0.68 -0.00    +0.000 N 
DOCKED: ATOM     22  O   UNL     1      20.137 -11.340   4.367 -1.00 -0.00    +0.000 OA
DOCKED: ATOM     23  O   UNL     1      19.908 -12.389   1.858 -1.80 -0.00    +0.000 OA
DOCKED: ATOM     24  H   UNL     1      20.662  -9.659   3.352 -0.58 -0.00    +0.000 HD
DOCKED: ENDBRANCH  19  20
DOCKED: ENDBRANCH   3  18
DOCKED: TORSDOF 5
DOCKED: TER
DOCKED: ENDMDL
________________________________________________________________________________


	BEGINNING GENETIC ALGORITHM DOCKING 100 of 100
Run: 100 Seed: 839270971 255271663 [ Run 100 of 100 GA/GALS ]
Beginning LAMARCKIAN GENETIC ALGORITHM (LGA), with a maximum of 2500000 energy evaluations.

Final-Value: -13.680


	FINAL GENETIC ALGORITHM DOCKED STATE
	_______________________________________________


Detailed state:  trans 21.491 -11.601 -2.475 quatxyzw -0.577524 -0.334102 -0.744845 -0.006911 center 0.217 0.012 -0.211 ntor 5 80.6516 15.3274 -68.6023 -8.8491 -64.5850
State:	 21.491 -11.601  -2.475  -0.578 -0.334 -0.745 -179.208     80.65   15.33  -68.60   -8.85  -64.59

DOCKED: MODEL      100
DOCKED: USER    Run = 100
DOCKED: USER    DPF = ligand_dock.biased.dpf
DOCKED: USER  
DOCKED: USER    Estimated Free Energy of Binding    =  -11.20 kcal/mol  [=(1)+(2)+(3)-(4)]
DOCKED: USER    Estimated Inhibition Constant, Ki   =    6.22 nM (nanomolar)  [Temperature = 298.15 K]
DOCKED: USER    
DOCKED: USER    (1) Final Intermolecular Energy     =  -12.69 kcal/mol
DOCKED: USER        vdW + Hbond + desolv Energy     =  -12.69 kcal/mol
DOCKED: USER        Electrostatic Energy            =   +0.00 kcal/mol
DOCKED: USER    (2) Final Total Internal Energy     =   -0.99 kcal/mol
DOCKED: USER    (3) Torsional Free Energy           =   +1.49 kcal/mol
DOCKED: USER    (4) Unbound System's Energy  [=(2)] =   -0.99 kcal/mol
DOCKED: USER    
DOCKED: USER    
DOCKED: USER    NEWDPF move ligand.pdbqt
DOCKED: USER    NEWDPF about 0.217000 0.012000 -0.211000
DOCKED: USER    NEWDPF tran0 21.491073 -11.600676 -2.474539
DOCKED: USER    NEWDPF quaternion0 -0.577524 -0.334102 -0.744845 -0.006911
DOCKED: USER    NEWDPF axisangle0 -0.577537 -0.334110 -0.744863 -179.208063
DOCKED: USER    NEWDPF quat0 -0.577537 -0.334110 -0.744863 -179.208063
DOCKED: USER    NEWDPF dihe0 80.65 15.33 -68.60 -8.85 -64.59 
DOCKED: USER  keepresnum = 1 
DOCKED: USER  
DOCKED: REMARK  Name = 
DOCKED: REMARK  5 active torsions:
DOCKED: REMARK  status: ('A' for Active; 'I' for Inactive)
DOCKED: REMARK    1  A    between atoms: S_2  and  N_3
DOCKED: REMARK    2  A    between atoms: S_2  and  C_10
DOCKED: REMARK    3  A    between atoms: N_3  and  C_4
DOCKED: REMARK    4  A    between atoms: C_12  and  C_13
DOCKED: REMARK    5  A    between atoms: C_14  and  C_15
DOCKED: REMARK                            x       y       z     vdW  Elec       q    Type
DOCKED: REMARK                         _______ _______ _______ _____ _____    ______ ____
DOCKED: USER                              x       y       z     vdW  Elec       q    Type
DOCKED: USER                           _______ _______ _______ _____ _____    ______ ____
DOCKED: ROOT
DOCKED: ATOM      1  C   UNL     1      20.785 -10.188  -3.980 -0.42 -0.00    +0.000 A 
DOCKED: ATOM      2  C   UNL     1      20.775 -10.773  -2.706 -0.39 -0.00    +0.000 A 
DOCKED: ATOM      3  C   UNL     1      21.064 -10.002  -1.561 -0.56 -0.00    +0.000 A 
DOCKED: ATOM      4  C   UNL     1      21.377  -8.643  -1.722 -0.46 -0.00    +0.000 A 
DOCKED: ATOM      5  C   UNL     1      21.377  -8.057  -2.991 -0.38 -0.00    +0.000 A 
DOCKED: ATOM      6  C   UNL     1      21.078  -8.826  -4.117 -0.33 -0.00    +0.000 A 
DOCKED: ENDROOT
DOCKED: BRANCH   1   8
DOCKED: ATOM      7  O   UNL     1      19.610 -10.401  -6.389 -0.29 -0.00    +0.000 OA
DOCKED: ATOM      8  S   UNL     1      20.444 -11.169  -5.403 -0.59 -0.00    +0.000 S 
DOCKED: ATOM      9  O   UNL     1      19.691 -12.395  -4.973 -0.63 -0.00    +0.000 OA
DOCKED: BRANCH   8  10
DOCKED: ATOM     10  N   UNL     1      21.927 -11.649  -6.169 -0.45 -0.00    +0.000 N 
DOCKED: ATOM     11  H   UNL     1      22.123 -12.611  -6.234 -0.56 -0.00    +0.000 HD
DOCKED: BRANCH  10  12
DOCKED: ATOM     12  C   UNL     1      22.886 -10.724  -6.713 -0.31 -0.00    +0.000 A 
DOCKED: ATOM     13  C   UNL     1      22.720  -9.330  -6.604 -0.24 -0.00    +0.000 A 
DOCKED: ATOM     14  C   UNL     1      23.679  -8.462  -7.137 -0.18 -0.00    +0.000 A 
DOCKED: ATOM     15  C   UNL     1      24.804  -8.972  -7.788 -0.22 -0.00    +0.000 A 
DOCKED: ATOM     16  C   UNL     1      24.972 -10.353  -7.909 -0.31 -0.00    +0.000 A 
DOCKED: ATOM     17  C   UNL     1      24.018 -11.225  -7.378 -0.34 -0.00    +0.000 A 
DOCKED: ENDBRANCH  10  12
DOCKED: ENDBRANCH   8  10
DOCKED: ENDBRANCH   1   8
DOCKED: BRANCH   3  18
DOCKED: ATOM     18  C   UNL     1      21.090 -10.578  -0.194 -0.70 -0.00    +0.000 C 
DOCKED: ATOM     19  C   UNL     1      20.024 -10.613   0.621 -0.64 -0.00    +0.000 C 
DOCKED: BRANCH  19  20
DOCKED: ATOM     20  C   UNL     1      20.058 -11.191   1.980 -0.74 -0.00    +0.000 C 
DOCKED: ATOM     21  N   UNL     1      20.208 -10.383   3.154 -0.63 -0.00    +0.000 N 
DOCKED: ATOM     22  O   UNL     1      20.339 -10.968   4.367 -0.94 -0.00    +0.000 OA
DOCKED: ATOM     23  O   UNL     1      19.924 -12.438   2.106 -1.79 -0.00    +0.000 OA
DOCKED: ATOM     24  H   UNL     1      20.217  -9.401   3.078 -0.58 -0.00    +0.000 HD
DOCKED: ENDBRANCH  19  20
DOCKED: ENDBRANCH   3  18
DOCKED: TORSDOF 5
DOCKED: TER
DOCKED: ENDMDL
________________________________________________________________________________

DPF>                           # do this many hybrid GA-LS runs

DPF> analysis                             # perform a ranked cluster analysis


		CLUSTER ANALYSIS OF CONFORMATIONS
		_________________________________

Number of conformations = 100

RMSD cluster analysis will be performed using the ligand atoms only (24 / 24 total atoms).

Outputting structurally similar clusters, ranked in order of increasing energy.


________________________________________________________________________________

Number of distinct conformational clusters found = 11,  out of 100 runs,
Using an rmsd-tolerance of 2.0 A


	CLUSTERING HISTOGRAM
	____________________

________________________________________________________________________________
     |           |     |           |     |                                    
Clus | Lowest    | Run | Mean      | Num | Histogram                          
-ter | Binding   |     | Binding   | in  |                                    
Rank | Energy    |     | Energy    | Clus|    5    10   15   20   25   30   35
_____|___________|_____|___________|_____|____:____|____:____|____:____|____:___
   1 |    -11.92 |  68 |    -11.22 |   8 |########
   2 |    -11.42 |  83 |    -11.26 |  23 |#######################
   3 |    -11.34 |  77 |    -10.85 |  21 |#####################
   4 |    -10.94 |  98 |    -10.72 |   7 |#######
   5 |    -10.79 |  78 |    -10.42 |   4 |####
   6 |    -10.56 |  23 |    -10.48 |   2 |##
   7 |    -10.56 |  97 |    -10.40 |  25 |#########################
   8 |    -10.41 |  61 |    -10.27 |   4 |####
   9 |    -10.19 |  15 |     -9.96 |   3 |###
  10 |     -9.59 |  31 |     -9.53 |   2 |##
  11 |     -9.32 |  88 |     -9.32 |   1 |#
_____|___________|_____|___________|_____|______________________________________


Number of multi-member conformational clusters found = 10, out of 100 runs.

	RMSD TABLE
	__________

_____________________________________________________________________
     |      |      |           |         |                 |
Rank | Sub- | Run  | Binding   | Cluster | Reference       | Grep
     | Rank |      | Energy    | RMSD    | RMSD            | Pattern
_____|______|______|___________|_________|_________________|___________
   1      1     68      -11.92      0.00     18.31           RANKING
   1      2     40      -11.72      0.79     18.43           RANKING
   1      3     93      -11.66      0.37     18.20           RANKING
   1      4     79      -11.60      0.97     18.32           RANKING
   1      5     57      -11.45      0.95     18.35           RANKING
   1      6     48      -11.02      1.91     18.43           RANKING
   1      7     95      -10.36      1.83     17.48           RANKING
   1      8     52      -10.04      1.87     17.40           RANKING
   2      1     83      -11.42      0.00     22.77           RANKING
   2      2      2      -11.41      0.30     22.80           RANKING
   2      3     87      -11.37      0.32     22.83           RANKING
   2      4     84      -11.36      0.58     22.56           RANKING
   2      5     80      -11.36      0.46     22.67           RANKING
   2      6     51      -11.32      1.25     22.45           RANKING
   2      7     34      -11.30      0.47     22.71           RANKING
   2      8     56      -11.30      1.12     22.29           RANKING
   2      9     37      -11.30      1.10     22.32           RANKING
   2     10     42      -11.29      0.81     22.46           RANKING
   2     11     73      -11.29      1.10     22.26           RANKING
   2     12     49      -11.28      0.42     22.66           RANKING
   2     13     12      -11.27      0.87     22.36           RANKING
   2     14     90      -11.25      0.63     22.54           RANKING
   2     15     53      -11.21      0.86     22.62           RANKING
   2     16     70      -11.21      0.49     22.71           RANKING
   2     17     19      -11.21      0.74     22.52           RANKING
   2     18    100      -11.20      1.28     22.17           RANKING
   2     19     47      -11.18      0.31     22.78           RANKING
   2     20     13      -11.17      1.34     22.05           RANKING
   2     21     21      -11.16      1.18     22.42           RANKING
   2     22     36      -11.15      0.40     22.67           RANKING
   2     23     55      -11.05      1.30     22.21           RANKING
   3      1     77      -11.34      0.00     20.75           RANKING
   3      2     43      -11.26      0.31     20.72           RANKING
   3      3     22      -11.24      0.26     20.73           RANKING
   3      4     82      -10.99      1.20     20.96           RANKING
   3      5     16      -10.96      0.97     20.92           RANKING
   3      6     11      -10.94      1.11     20.88           RANKING
   3      7     66      -10.93      0.61     20.71           RANKING
   3      8      3      -10.92      0.62     20.70           RANKING
   3      9     38      -10.90      1.18     21.00           RANKING
   3     10     60      -10.85      1.11     20.76           RANKING
   3     11     39      -10.83      0.64     20.67           RANKING
   3     12     17      -10.81      1.03     20.95           RANKING
   3     13     85      -10.81      0.86     20.94           RANKING
   3     14     72      -10.79      0.57     20.67           RANKING
   3     15     62      -10.69      0.82     20.79           RANKING
   3     16     74      -10.67      1.11     20.96           RANKING
   3     17      7      -10.64      0.96     20.83           RANKING
   3     18     99      -10.61      0.99     20.85           RANKING
   3     19     94      -10.59      1.05     20.90           RANKING
   3     20     50      -10.57      0.92     20.85           RANKING
   3     21     63      -10.53      1.27     20.89           RANKING
   4      1     98      -10.94      0.00     20.00           RANKING
   4      2     32      -10.94      0.12     20.03           RANKING
   4      3      5      -10.91      0.47     20.15           RANKING
   4      4     10      -10.90      0.44     20.16           RANKING
   4      5     92      -10.87      0.17     20.01           RANKING
   4      6     96      -10.54      0.94     19.70           RANKING
   4      7     45       -9.95      0.57     19.91           RANKING
   5      1     78      -10.79      0.00     19.88           RANKING
   5      2     58      -10.56      0.23     19.83           RANKING
   5      3     41      -10.29      1.34     20.28           RANKING
   5      4     29      -10.06      1.24     19.82           RANKING
   6      1     23      -10.56      0.00     23.55           RANKING
   6      2      4      -10.41      0.23     23.53           RANKING
   7      1     97      -10.56      0.00     19.61           RANKING
   7      2      1      -10.54      1.21     19.53           RANKING
   7      3     14      -10.54      0.47     19.70           RANKING
   7      4     81      -10.53      0.59     19.72           RANKING
   7      5     89      -10.52      1.60     19.48           RANKING
   7      6     65      -10.52      0.45     19.79           RANKING
   7      7      9      -10.50      0.50     19.64           RANKING
   7      8     28      -10.50      1.63     19.52           RANKING
   7      9     71      -10.50      1.43     19.50           RANKING
   7     10     59      -10.50      1.42     19.57           RANKING
   7     11     44      -10.49      1.16     19.44           RANKING
   7     12     24      -10.49      1.40     19.47           RANKING
   7     13     27      -10.47      1.22     19.50           RANKING
   7     14     76      -10.46      1.62     19.51           RANKING
   7     15     67      -10.43      1.41     19.56           RANKING
   7     16     33      -10.42      1.41     19.42           RANKING
   7     17     91      -10.41      1.46     19.45           RANKING
   7     18     25      -10.40      0.39     19.55           RANKING
   7     19      6      -10.34      0.74     19.55           RANKING
   7     20     35      -10.30      0.73     19.63           RANKING
   7     21     86      -10.28      0.99     19.67           RANKING
   7     22     30      -10.26      0.98     19.77           RANKING
   7     23     26      -10.18      0.84     19.61           RANKING
   7     24     20      -10.16      1.03     19.80           RANKING
   7     25     54       -9.73      0.91     19.71           RANKING
   8      1     61      -10.41      0.00     18.89           RANKING
   8      2     69      -10.26      0.82     18.72           RANKING
   8      3     18      -10.22      0.87     18.78           RANKING
   8      4     46      -10.19      0.35     18.82           RANKING
   9      1     15      -10.19      0.00     16.55           RANKING
   9      2     75      -10.01      0.64     16.66           RANKING
   9      3     64       -9.68      1.51     16.28           RANKING
  10      1     31       -9.59      0.00     15.89           RANKING
  10      2      8       -9.47      0.96     16.02           RANKING
  11      1     88       -9.32      0.00     18.85           RANKING
_______________________________________________________________________



	INFORMATION ENTROPY ANALYSIS FOR THIS CLUSTERING
	________________________________________________


Information entropy for this clustering = 0.43  (rmstol = 2.00 Angstrom)

_______________________________________________________________________


	STATISTICAL MECHANICAL ANALYSIS
	_______________________________


Partition function, Q =   101.83            at Temperature, T = 298.15 K
Free energy,        A ~ -2739.21 kcal/mol   at Temperature, T = 298.15 K
Internal energy,    U =   -10.74 kcal/mol   at Temperature, T = 298.15 K
Entropy,            S =     9.15 kcal/mol/K at Temperature, T = 298.15 K

_______________________________________________________________________


	LOWEST ENERGY DOCKED CONFORMATION from EACH CLUSTER
	___________________________________________________



Keeping original residue number (specified in the input PDBQ file) for outputting.

MODEL       68
USER    Run = 68
USER    Cluster Rank = 1
USER    Number of conformations in this cluster = 8
USER  
USER    RMSD from reference structure       = 18.308 A
USER  
USER    Estimated Free Energy of Binding    =  -11.92 kcal/mol  [=(1)+(2)+(3)-(4)]
USER    Estimated Inhibition Constant, Ki   =    1.84 nM (nanomolar)  [Temperature = 298.15 K]
USER    
USER    (1) Final Intermolecular Energy     =  -13.41 kcal/mol
USER        vdW + Hbond + desolv Energy     =  -13.41 kcal/mol
USER        Electrostatic Energy            =   +0.00 kcal/mol
USER    (2) Final Total Internal Energy     =   -1.07 kcal/mol
USER    (3) Torsional Free Energy           =   +1.49 kcal/mol
USER    (4) Unbound System's Energy  [=(2)] =   -1.07 kcal/mol
USER    
USER    
USER  
USER    DPF = ligand_dock.biased.dpf
USER    NEWDPF move	ligand.pdbqt
USER    NEWDPF about	0.217000 0.012000 -0.211000
USER    NEWDPF tran0	17.560155 -9.212936 2.869031
USER    NEWDPF axisangle0	0.028573 -0.991875 -0.123963 -151.841673
USER    NEWDPF quaternion0	0.027715 -0.962080 -0.120239 -0.243262
USER    NEWDPF dihe0	141.02 -145.24 62.34 -13.52 -52.39 
USER  
USER                              x       y       z    vdW   Elec        q     RMS 
ATOM      1  C   UNL     1      18.048 -11.214   2.151 -0.45 +0.00    +0.000    18.308
ATOM      2  C   UNL     1      17.352 -10.308   2.963 -0.41 +0.00    +0.000    18.308
ATOM      3  C   UNL     1      15.948 -10.201   2.877 -0.39 +0.00    +0.000    18.308
ATOM      4  C   UNL     1      15.263 -11.005   1.953 -0.37 +0.00    +0.000    18.308
ATOM      5  C   UNL     1      15.955 -11.916   1.151 -0.41 +0.00    +0.000    18.308
ATOM      6  C   UNL     1      17.343 -12.024   1.251 -0.42 +0.00    +0.000    18.308
ATOM      7  O   UNL     1      20.275 -12.692   1.853 -1.54 -0.00    +0.000    18.308
ATOM      8  S   UNL     1      19.804 -11.322   2.253 -0.91 -0.00    +0.000    18.308
ATOM      9  O   UNL     1      20.220 -11.054   3.670 -1.24 -0.00    +0.000    18.308
ATOM     10  N   UNL     1      20.537 -10.144   1.209 -0.56 -0.00    +0.000    18.308
ATOM     11  H   UNL     1      21.050  -9.414   1.625 -0.52 -0.00    +0.000    18.308
ATOM     12  C   UNL     1      20.439 -10.170  -0.226 -0.56 -0.00    +0.000    18.308
ATOM     13  C   UNL     1      21.383  -9.526  -1.049 -0.57 -0.00    +0.000    18.308
ATOM     14  C   UNL     1      21.262  -9.582  -2.441 -0.48 -0.00    +0.000    18.308
ATOM     15  C   UNL     1      20.198 -10.272  -3.026 -0.42 -0.00    +0.000    18.308
ATOM     16  C   UNL     1      19.252 -10.907  -2.218 -0.38 -0.00    +0.000    18.308
ATOM     17  C   UNL     1      19.369 -10.855  -0.827 -0.44 -0.00    +0.000    18.308
ATOM     18  C   UNL     1      15.168  -9.240   3.697 -0.41 +0.00    +0.000    18.308
ATOM     19  C   UNL     1      15.573  -7.989   3.964 -0.36 +0.00    +0.000    18.308
ATOM     20  C   UNL     1      14.789  -7.037   4.779 -0.44 +0.00    +0.000    18.308
ATOM     21  N   UNL     1      15.387  -5.903   5.420 -0.44 +0.00    +0.000    18.308
ATOM     22  O   UNL     1      14.647  -5.121   6.240 -0.83 +0.00    +0.000    18.308
ATOM     23  O   UNL     1      13.548  -7.222   4.889 -0.34 +0.00    +0.000    18.308
ATOM     24  H   UNL     1      16.336  -5.693   5.263 -0.50 -0.00    +0.000    18.308
TER
ENDMDL
MODEL       83
USER    Run = 83
USER    Cluster Rank = 2
USER    Number of conformations in this cluster = 23
USER  
USER    RMSD from reference structure       = 22.766 A
USER  
USER    Estimated Free Energy of Binding    =  -11.42 kcal/mol  [=(1)+(2)+(3)-(4)]
USER    Estimated Inhibition Constant, Ki   =    4.24 nM (nanomolar)  [Temperature = 298.15 K]
USER    
USER    (1) Final Intermolecular Energy     =  -12.91 kcal/mol
USER        vdW + Hbond + desolv Energy     =  -12.91 kcal/mol
USER        Electrostatic Energy            =   +0.00 kcal/mol
USER    (2) Final Total Internal Energy     =   -0.92 kcal/mol
USER    (3) Torsional Free Energy           =   +1.49 kcal/mol
USER    (4) Unbound System's Energy  [=(2)] =   -0.92 kcal/mol
USER    
USER    
USER  
USER    DPF = ligand_dock.biased.dpf
USER    NEWDPF move	ligand.pdbqt
USER    NEWDPF about	0.217000 0.012000 -0.211000
USER    NEWDPF tran0	21.474204 -11.720267 -2.609603
USER    NEWDPF axisangle0	-0.441005 -0.311986 -0.841534 178.004445
USER    NEWDPF quaternion0	-0.440938 -0.311939 -0.841406 0.017414
USER    NEWDPF dihe0	-174.83 -122.86 166.20 -160.99 -117.37 
USER  
USER                              x       y       z    vdW   Elec        q     RMS 
ATOM      1  C   UNL     1      21.241 -10.210  -4.167 -0.43 -0.00    +0.000    22.766
ATOM      2  C   UNL     1      20.840 -10.889  -3.008 -0.38 -0.00    +0.000    22.766
ATOM      3  C   UNL     1      20.710 -10.201  -1.783 -0.52 -0.00    +0.000    22.766
ATOM      4  C   UNL     1      21.005  -8.829  -1.743 -0.48 -0.00    +0.000    22.766
ATOM      5  C   UNL     1      21.395  -8.150  -2.901 -0.39 -0.00    +0.000    22.766
ATOM      6  C   UNL     1      21.509  -8.837  -4.111 -0.31 -0.00    +0.000    22.766
ATOM      7  O   UNL     1      20.116 -11.127  -6.431 -0.38 -0.00    +0.000    22.766
ATOM      8  S   UNL     1      21.420 -11.087  -5.685 -0.61 -0.00    +0.000    22.766
ATOM      9  O   UNL     1      21.854 -12.493  -5.380 -0.83 -0.00    +0.000    22.766
ATOM     10  N   UNL     1      22.620 -10.322  -6.680 -0.33 -0.00    +0.000    22.766
ATOM     11  H   UNL     1      22.704  -9.343  -6.631 -0.01 -0.00    +0.000    22.766
ATOM     12  C   UNL     1      23.497 -11.033  -7.572 -0.37 -0.00    +0.000    22.766
ATOM     13  C   UNL     1      24.875 -10.753  -7.641 -0.32 -0.00    +0.000    22.766
ATOM     14  C   UNL     1      25.699 -11.472  -8.513 -0.36 -0.00    +0.000    22.766
ATOM     15  C   UNL     1      25.158 -12.470  -9.327 -0.36 -0.00    +0.000    22.766
ATOM     16  C   UNL     1      23.791 -12.749  -9.272 -0.38 -0.00    +0.000    22.766
ATOM     17  C   UNL     1      22.964 -12.034  -8.402 -0.36 -0.00    +0.000    22.766
ATOM     18  C   UNL     1      20.313 -10.878  -0.524 -0.59 -0.00    +0.000    22.766
ATOM     19  C   UNL     1      20.810 -10.559   0.682 -0.68 -0.00    +0.000    22.766
ATOM     20  C   UNL     1      20.408 -11.237   1.932 -0.75 -0.00    +0.000    22.766
ATOM     21  N   UNL     1      20.544 -10.618   3.217 -0.66 -0.00    +0.000    22.766
ATOM     22  O   UNL     1      20.260 -11.318   4.340 -1.04 -0.00    +0.000    22.766
ATOM     23  O   UNL     1      19.905 -12.390   1.855 -1.80 -0.00    +0.000    22.766
ATOM     24  H   UNL     1      20.844  -9.683   3.283 -0.60 -0.00    +0.000    22.766
TER
ENDMDL
MODEL       77
USER    Run = 77
USER    Cluster Rank = 3
USER    Number of conformations in this cluster = 21
USER  
USER    RMSD from reference structure       = 20.747 A
USER  
USER    Estimated Free Energy of Binding    =  -11.34 kcal/mol  [=(1)+(2)+(3)-(4)]
USER    Estimated Inhibition Constant, Ki   =    4.85 nM (nanomolar)  [Temperature = 298.15 K]
USER    
USER    (1) Final Intermolecular Energy     =  -12.83 kcal/mol
USER        vdW + Hbond + desolv Energy     =  -12.83 kcal/mol
USER        Electrostatic Energy            =   +0.00 kcal/mol
USER    (2) Final Total Internal Energy     =   -1.24 kcal/mol
USER    (3) Torsional Free Energy           =   +1.49 kcal/mol
USER    (4) Unbound System's Energy  [=(2)] =   -1.24 kcal/mol
USER    
USER    
USER  
USER    DPF = ligand_dock.biased.dpf
USER    NEWDPF move	ligand.pdbqt
USER    NEWDPF about	0.217000 0.012000 -0.211000
USER    NEWDPF tran0	22.123807 -11.262950 -2.214112
USER    NEWDPF axisangle0	0.491580 0.391564 0.777835 173.424030
USER    NEWDPF quaternion0	0.490770 0.390920 0.776554 0.057355
USER    NEWDPF dihe0	58.26 134.57 -60.23 101.45 101.28 
USER  
USER                              x       y       z    vdW   Elec        q     RMS 
ATOM      1  C   UNL     1      21.360 -10.004  -3.824 -0.43 -0.00    +0.000    20.747
ATOM      2  C   UNL     1      21.296 -10.591  -2.552 -0.45 -0.00    +0.000    20.747
ATOM      3  C   UNL     1      21.273  -9.788  -1.392 -0.56 -0.00    +0.000    20.747
ATOM      4  C   UNL     1      21.332  -8.392  -1.534 -0.44 -0.00    +0.000    20.747
ATOM      5  C   UNL     1      21.385  -7.807  -2.802 -0.39 -0.00    +0.000    20.747
ATOM      6  C   UNL     1      21.395  -8.609  -3.944 -0.34 -0.00    +0.000    20.747
ATOM      7  O   UNL     1      22.520 -12.028  -5.160 -0.68 -0.00    +0.000    20.747
ATOM      8  S   UNL     1      21.410 -11.020  -5.262 -0.64 -0.00    +0.000    20.747
ATOM      9  O   UNL     1      21.649 -10.146  -6.460 -0.32 -0.00    +0.000    20.747
ATOM     10  N   UNL     1      19.901 -11.856  -5.457 -0.42 -0.00    +0.000    20.747
ATOM     11  H   UNL     1      19.929 -12.826  -5.622 -0.54 -0.00    +0.000    20.747
ATOM     12  C   UNL     1      18.613 -11.217  -5.391 -0.34 -0.00    +0.000    20.747
ATOM     13  C   UNL     1      17.695 -11.282  -6.457 -0.34 -0.00    +0.000    20.747
ATOM     14  C   UNL     1      16.448 -10.657  -6.353 -0.23 -0.00    +0.000    20.747
ATOM     15  C   UNL     1      16.108  -9.957  -5.193 -0.17 -0.00    +0.000    20.747
ATOM     16  C   UNL     1      17.016  -9.879  -4.135 -0.22 -0.00    +0.000    20.747
ATOM     17  C   UNL     1      18.262 -10.503  -4.233 -0.27 -0.00    +0.000    20.747
ATOM     18  C   UNL     1      21.231 -10.361  -0.024 -0.70 -0.00    +0.000    20.747
ATOM     19  C   UNL     1      20.103 -10.762   0.581 -0.66 -0.00    +0.000    20.747
ATOM     20  C   UNL     1      20.070 -11.334   1.944 -0.75 -0.00    +0.000    20.747
ATOM     21  N   UNL     1      20.197 -10.524   3.119 -0.69 -0.00    +0.000    20.747
ATOM     22  O   UNL     1      20.266 -11.106   4.339 -1.00 -0.00    +0.000    20.747
ATOM     23  O   UNL     1      19.898 -12.576   2.069 -1.70 -0.00    +0.000    20.747
ATOM     24  H   UNL     1      20.235  -9.543   3.038 -0.57 -0.00    +0.000    20.747
TER
ENDMDL
MODEL       98
USER    Run = 98
USER    Cluster Rank = 4
USER    Number of conformations in this cluster = 7
USER  
USER    RMSD from reference structure       = 19.999 A
USER  
USER    Estimated Free Energy of Binding    =  -10.94 kcal/mol  [=(1)+(2)+(3)-(4)]
USER    Estimated Inhibition Constant, Ki   =    9.49 nM (nanomolar)  [Temperature = 298.15 K]
USER    
USER    (1) Final Intermolecular Energy     =  -12.44 kcal/mol
USER        vdW + Hbond + desolv Energy     =  -12.44 kcal/mol
USER        Electrostatic Energy            =   +0.00 kcal/mol
USER    (2) Final Total Internal Energy     =   -1.04 kcal/mol
USER    (3) Torsional Free Energy           =   +1.49 kcal/mol
USER    (4) Unbound System's Energy  [=(2)] =   -1.04 kcal/mol
USER    
USER    
USER  
USER    DPF = ligand_dock.biased.dpf
USER    NEWDPF move	ligand.pdbqt
USER    NEWDPF about	0.217000 0.012000 -0.211000
USER    NEWDPF tran0	20.934245 -11.800768 -0.989645
USER    NEWDPF axisangle0	0.751656 0.444461 -0.487306 -166.291208
USER    NEWDPF quaternion0	0.746284 0.441284 -0.483823 -0.119347
USER    NEWDPF dihe0	83.73 -151.85 -179.14 122.63 175.19 
USER  
USER                              x       y       z    vdW   Elec        q     RMS 
ATOM      1  C   UNL     1      19.255 -10.829   0.009 -0.47 -0.00    +0.000    19.999
ATOM      2  C   UNL     1      20.315 -10.873  -0.909 -0.46 -0.00    +0.000    19.999
ATOM      3  C   UNL     1      20.071 -10.736  -2.292 -0.40 -0.00    +0.000    19.999
ATOM      4  C   UNL     1      18.749 -10.570  -2.733 -0.32 -0.00    +0.000    19.999
ATOM      5  C   UNL     1      17.694 -10.516  -1.818 -0.22 -0.00    +0.000    19.999
ATOM      6  C   UNL     1      17.946 -10.640  -0.451 -0.25 -0.00    +0.000    19.999
ATOM      7  O   UNL     1      21.011 -10.723   2.042 -0.84 -0.00    +0.000    19.999
ATOM      8  S   UNL     1      19.572 -11.024   1.731 -0.84 -0.00    +0.000    19.999
ATOM      9  O   UNL     1      19.272 -12.444   2.117 -1.37 -0.00    +0.000    19.999
ATOM     10  N   UNL     1      18.558  -9.955   2.650 -0.54 -0.00    +0.000    19.999
ATOM     11  H   UNL     1      18.983  -9.193   3.105 -0.38 -0.00    +0.000    19.999
ATOM     12  C   UNL     1      17.135 -10.117   2.787 -0.42 +0.00    +0.000    19.999
ATOM     13  C   UNL     1      16.308  -9.075   3.248 -0.33 +0.00    +0.000    19.999
ATOM     14  C   UNL     1      14.927  -9.266   3.359 -0.33 +0.00    +0.000    19.999
ATOM     15  C   UNL     1      14.359 -10.496   3.020 -0.36 +0.00    +0.000    19.999
ATOM     16  C   UNL     1      15.172 -11.539   2.571 -0.45 +0.00    +0.000    19.999
ATOM     17  C   UNL     1      16.552 -11.352   2.457 -0.35 +0.00    +0.000    19.999
ATOM     18  C   UNL     1      21.154 -10.800  -3.304 -0.48 -0.00    +0.000    19.999
ATOM     19  C   UNL     1      20.949 -11.097  -4.597 -0.53 -0.00    +0.000    19.999
ATOM     20  C   UNL     1      22.032 -11.157  -5.600 -0.50 -0.00    +0.000    19.999
ATOM     21  N   UNL     1      22.589 -12.397  -6.054 -0.58 -0.00    +0.000    19.999
ATOM     22  O   UNL     1      23.649 -12.396  -6.895 -1.13 -0.00    +0.000    19.999
ATOM     23  O   UNL     1      22.459 -10.076  -6.087 -0.37 -0.00    +0.000    19.999
ATOM     24  H   UNL     1      22.199 -13.250  -5.754 -0.51 -0.00    +0.000    19.999
TER
ENDMDL
MODEL       78
USER    Run = 78
USER    Cluster Rank = 5
USER    Number of conformations in this cluster = 4
USER  
USER    RMSD from reference structure       = 19.877 A
USER  
USER    Estimated Free Energy of Binding    =  -10.79 kcal/mol  [=(1)+(2)+(3)-(4)]
USER    Estimated Inhibition Constant, Ki   =   12.41 nM (nanomolar)  [Temperature = 298.15 K]
USER    
USER    (1) Final Intermolecular Energy     =  -12.28 kcal/mol
USER        vdW + Hbond + desolv Energy     =  -12.28 kcal/mol
USER        Electrostatic Energy            =   +0.00 kcal/mol
USER    (2) Final Total Internal Energy     =   -0.93 kcal/mol
USER    (3) Torsional Free Energy           =   +1.49 kcal/mol
USER    (4) Unbound System's Energy  [=(2)] =   -0.93 kcal/mol
USER    
USER    
USER  
USER    DPF = ligand_dock.biased.dpf
USER    NEWDPF move	ligand.pdbqt
USER    NEWDPF about	0.217000 0.012000 -0.211000
USER    NEWDPF tran0	20.328312 -7.786715 -0.765716
USER    NEWDPF axisangle0	-0.775601 0.577595 0.254612 133.885157
USER    NEWDPF quaternion0	-0.713640 0.531452 0.234272 0.391653
USER    NEWDPF dihe0	161.69 -179.73 27.19 -137.11 -8.72 
USER  
USER                              x       y       z    vdW   Elec        q     RMS 
ATOM      1  C   UNL     1      21.410  -6.992  -2.486 -0.41 -0.00    +0.000    19.877
ATOM      2  C   UNL     1      21.205  -7.914  -1.449 -0.31 -0.00    +0.000    19.877
ATOM      3  C   UNL     1      20.974  -9.275  -1.736 -0.51 -0.00    +0.000    19.877
ATOM      4  C   UNL     1      20.937  -9.688  -3.077 -0.45 -0.00    +0.000    19.877
ATOM      5  C   UNL     1      21.153  -8.772  -4.110 -0.33 -0.00    +0.000    19.877
ATOM      6  C   UNL     1      21.393  -7.429  -3.816 -0.31 -0.00    +0.000    19.877
ATOM      7  O   UNL     1      21.466  -4.442  -3.336 -0.20 -0.00    +0.000    19.877
ATOM      8  S   UNL     1      21.676  -5.291  -2.113 -0.53 -0.00    +0.000    19.877
ATOM      9  O   UNL     1      23.088  -5.119  -1.632 -0.71 +0.00    +0.000    19.877
ATOM     10  N   UNL     1      20.581  -4.773  -0.869 -0.47 +0.00    +0.000    19.877
ATOM     11  H   UNL     1      19.856  -5.386  -0.608 -0.08 +0.00    +0.000    19.877
ATOM     12  C   UNL     1      20.668  -3.503  -0.200 -0.35 +0.00    +0.000    19.877
ATOM     13  C   UNL     1      19.631  -3.021   0.622 -0.32 -0.00    +0.000    19.877
ATOM     14  C   UNL     1      19.756  -1.785   1.265 -0.35 -0.00    +0.000    19.877
ATOM     15  C   UNL     1      20.908  -1.017   1.092 -0.31 -0.00    +0.000    19.877
ATOM     16  C   UNL     1      21.939  -1.482   0.272 -0.30 -0.00    +0.000    19.877
ATOM     17  C   UNL     1      21.820  -2.716  -0.373 -0.33 +0.00    +0.000    19.877
ATOM     18  C   UNL     1      20.726 -10.285  -0.677 -0.66 -0.00    +0.000    19.877
ATOM     19  C   UNL     1      20.615  -9.985   0.627 -0.59 -0.00    +0.000    19.877
ATOM     20  C   UNL     1      20.366 -10.996   1.676 -0.73 -0.00    +0.000    19.877
ATOM     21  N   UNL     1      20.260 -10.652   3.062 -0.69 -0.00    +0.000    19.877
ATOM     22  O   UNL     1      20.136 -11.625   3.994 -1.20 -0.00    +0.000    19.877
ATOM     23  O   UNL     1      20.217 -12.198   1.327 -1.59 -0.00    +0.000    19.877
ATOM     24  H   UNL     1      20.278  -9.706   3.337 -0.56 -0.00    +0.000    19.877
TER
ENDMDL
MODEL       23
USER    Run = 23
USER    Cluster Rank = 6
USER    Number of conformations in this cluster = 2
USER  
USER    RMSD from reference structure       = 23.546 A
USER  
USER    Estimated Free Energy of Binding    =  -10.56 kcal/mol  [=(1)+(2)+(3)-(4)]
USER    Estimated Inhibition Constant, Ki   =   18.29 nM (nanomolar)  [Temperature = 298.15 K]
USER    
USER    (1) Final Intermolecular Energy     =  -12.05 kcal/mol
USER        vdW + Hbond + desolv Energy     =  -12.05 kcal/mol
USER        Electrostatic Energy            =   +0.00 kcal/mol
USER    (2) Final Total Internal Energy     =   -0.91 kcal/mol
USER    (3) Torsional Free Energy           =   +1.49 kcal/mol
USER    (4) Unbound System's Energy  [=(2)] =   -0.91 kcal/mol
USER    
USER    
USER  
USER    DPF = ligand_dock.biased.dpf
USER    NEWDPF move	ligand.pdbqt
USER    NEWDPF about	0.217000 0.012000 -0.211000
USER    NEWDPF tran0	22.644111 -10.250342 -4.044803
USER    NEWDPF axisangle0	-0.137925 -0.769698 -0.623331 -127.872032
USER    NEWDPF quaternion0	-0.123898 -0.691423 -0.559941 -0.439375
USER    NEWDPF dihe0	-143.02 54.48 -126.45 -159.04 -46.72 
USER  
USER                              x       y       z    vdW   Elec        q     RMS 
ATOM      1  C   UNL     1      21.581 -10.850  -5.853 -0.42 -0.00    +0.000    23.546
ATOM      2  C   UNL     1      21.854 -10.912  -4.479 -0.39 -0.00    +0.000    23.546
ATOM      3  C   UNL     1      20.856 -10.592  -3.535 -0.46 -0.00    +0.000    23.546
ATOM      4  C   UNL     1      19.590 -10.195  -3.995 -0.33 -0.00    +0.000    23.546
ATOM      5  C   UNL     1      19.315 -10.143  -5.365 -0.27 -0.00    +0.000    23.546
ATOM      6  C   UNL     1      20.305 -10.473  -6.291 -0.30 -0.00    +0.000    23.546
ATOM      7  O   UNL     1      22.243 -11.604  -8.348 -0.37 -0.00    +0.000    23.546
ATOM      8  S   UNL     1      22.843 -11.231  -7.021 -0.57 -0.00    +0.000    23.546
ATOM      9  O   UNL     1      23.645 -12.391  -6.502 -1.17 -0.00    +0.000    23.546
ATOM     10  N   UNL     1      23.891  -9.863  -7.237 -0.29 -0.00    +0.000    23.546
ATOM     11  H   UNL     1      23.502  -8.964  -7.142 -0.01 -0.00    +0.000    23.546
ATOM     12  C   UNL     1      25.292  -9.966  -7.547 -0.28 -0.00    +0.000    23.546
ATOM     13  C   UNL     1      25.781 -10.890  -8.491 -0.36 -0.00    +0.000    23.546
ATOM     14  C   UNL     1      27.149 -10.954  -8.774 -0.34 -0.00    +0.000    23.546
ATOM     15  C   UNL     1      28.042 -10.105  -8.117 -0.42 -0.00    +0.000    23.546
ATOM     16  C   UNL     1      27.569  -9.191  -7.173 -0.40 -0.00    +0.000    23.546
ATOM     17  C   UNL     1      26.202  -9.123  -6.887 -0.27 -0.00    +0.000    23.546
ATOM     18  C   UNL     1      21.102 -10.618  -2.072 -0.52 -0.00    +0.000    23.546
ATOM     19  C   UNL     1      20.159 -10.910  -1.163 -0.48 -0.00    +0.000    23.546
ATOM     20  C   UNL     1      20.412 -10.936   0.293 -0.67 -0.00    +0.000    23.546
ATOM     21  N   UNL     1      20.118 -12.081   1.102 -0.66 -0.00    +0.000    23.546
ATOM     22  O   UNL     1      20.270 -12.019   2.445 -1.98 -0.00    +0.000    23.546
ATOM     23  O   UNL     1      20.928  -9.920   0.830 -0.68 -0.00    +0.000    23.546
ATOM     24  H   UNL     1      19.805 -12.915   0.680 -0.44 -0.00    +0.000    23.546
TER
ENDMDL
MODEL       97
USER    Run = 97
USER    Cluster Rank = 7
USER    Number of conformations in this cluster = 25
USER  
USER    RMSD from reference structure       = 19.607 A
USER  
USER    Estimated Free Energy of Binding    =  -10.56 kcal/mol  [=(1)+(2)+(3)-(4)]
USER    Estimated Inhibition Constant, Ki   =   18.32 nM (nanomolar)  [Temperature = 298.15 K]
USER    
USER    (1) Final Intermolecular Energy     =  -12.05 kcal/mol
USER        vdW + Hbond + desolv Energy     =  -12.05 kcal/mol
USER        Electrostatic Energy            =   +0.00 kcal/mol
USER    (2) Final Total Internal Energy     =   -1.20 kcal/mol
USER    (3) Torsional Free Energy           =   +1.49 kcal/mol
USER    (4) Unbound System's Energy  [=(2)] =   -1.20 kcal/mol
USER    
USER    
USER  
USER    DPF = ligand_dock.biased.dpf
USER    NEWDPF move	ligand.pdbqt
USER    NEWDPF about	0.217000 0.012000 -0.211000
USER    NEWDPF tran0	18.211056 -10.727146 -1.045518
USER    NEWDPF axisangle0	0.743499 -0.526879 -0.411834 107.546361
USER    NEWDPF quaternion0	0.599769 -0.425025 -0.332220 0.590983
USER    NEWDPF dihe0	-55.07 -44.68 -97.05 -25.89 43.30 
USER  
USER                              x       y       z    vdW   Elec        q     RMS 
ATOM      1  C   UNL     1      19.889 -10.845   0.344 -0.56 -0.00    +0.000    19.607
ATOM      2  C   UNL     1      19.273 -11.048  -0.899 -0.42 -0.00    +0.000    19.607
ATOM      3  C   UNL     1      19.778 -10.426  -2.059 -0.42 -0.00    +0.000    19.607
ATOM      4  C   UNL     1      20.899  -9.588  -1.945 -0.51 -0.00    +0.000    19.607
ATOM      5  C   UNL     1      21.519  -9.394  -0.708 -0.49 -0.00    +0.000    19.607
ATOM      6  C   UNL     1      21.019 -10.023   0.433 -0.57 -0.00    +0.000    19.607
ATOM      7  O   UNL     1      18.640 -10.583   2.711 -0.64 -0.00    +0.000    19.607
ATOM      8  S   UNL     1      19.233 -11.611   1.789 -0.84 -0.00    +0.000    19.607
ATOM      9  O   UNL     1      20.345 -12.326   2.502 -1.93 -0.00    +0.000    19.607
ATOM     10  N   UNL     1      18.004 -12.757   1.353 -0.43 +0.00    +0.000    19.607
ATOM     11  H   UNL     1      18.243 -13.712   1.350 -0.27 +0.00    +0.000    19.607
ATOM     12  C   UNL     1      16.658 -12.395   0.996 -0.41 +0.00    +0.000    19.607
ATOM     13  C   UNL     1      15.834 -11.646   1.859 -0.41 +0.00    +0.000    19.607
ATOM     14  C   UNL     1      14.534 -11.304   1.474 -0.37 +0.00    +0.000    19.607
ATOM     15  C   UNL     1      14.040 -11.709   0.232 -0.38 +0.00    +0.000    19.607
ATOM     16  C   UNL     1      14.846 -12.460  -0.627 -0.44 +0.00    +0.000    19.607
ATOM     17  C   UNL     1      16.146 -12.804  -0.247 -0.46 +0.00    +0.000    19.607
ATOM     18  C   UNL     1      19.148 -10.589  -3.393 -0.40 -0.00    +0.000    19.607
ATOM     19  C   UNL     1      19.778 -11.112  -4.456 -0.48 -0.00    +0.000    19.607
ATOM     20  C   UNL     1      19.142 -11.273  -5.780 -0.43 -0.00    +0.000    19.607
ATOM     21  N   UNL     1      17.766 -11.642  -5.931 -0.35 -0.00    +0.000    19.607
ATOM     22  O   UNL     1      17.259 -11.879  -7.163 -0.46 -0.00    +0.000    19.607
ATOM     23  O   UNL     1      19.835 -11.052  -6.809 -0.36 -0.00    +0.000    19.607
ATOM     24  H   UNL     1      17.189 -11.723  -5.137 -0.02 -0.00    +0.000    19.607
TER
ENDMDL
MODEL       61
USER    Run = 61
USER    Cluster Rank = 8
USER    Number of conformations in this cluster = 4
USER  
USER    RMSD from reference structure       = 18.895 A
USER  
USER    Estimated Free Energy of Binding    =  -10.41 kcal/mol  [=(1)+(2)+(3)-(4)]
USER    Estimated Inhibition Constant, Ki   =   23.44 nM (nanomolar)  [Temperature = 298.15 K]
USER    
USER    (1) Final Intermolecular Energy     =  -11.90 kcal/mol
USER        vdW + Hbond + desolv Energy     =  -11.90 kcal/mol
USER        Electrostatic Energy            =   +0.00 kcal/mol
USER    (2) Final Total Internal Energy     =   -1.30 kcal/mol
USER    (3) Torsional Free Energy           =   +1.49 kcal/mol
USER    (4) Unbound System's Energy  [=(2)] =   -1.30 kcal/mol
USER    
USER    
USER  
USER    DPF = ligand_dock.biased.dpf
USER    NEWDPF move	ligand.pdbqt
USER    NEWDPF about	0.217000 0.012000 -0.211000
USER    NEWDPF tran0	17.184589 -12.242939 0.490431
USER    NEWDPF axisangle0	0.295720 0.318320 -0.900679 154.233463
USER    NEWDPF quaternion0	0.288276 0.310307 -0.878005 0.222965
USER    NEWDPF dihe0	-180.00 -166.26 -13.84 -18.32 109.25 
USER  
USER                              x       y       z    vdW   Elec        q     RMS 
ATOM      1  C   UNL     1      18.064 -11.030   2.076 -0.46 -0.00    +0.000    18.895
ATOM      2  C   UNL     1      17.291 -11.216   0.921 -0.39 +0.00    +0.000    18.895
ATOM      3  C   UNL     1      15.914 -10.912   0.924 -0.32 +0.00    +0.000    18.895
ATOM      4  C   UNL     1      15.328 -10.435   2.107 -0.33 +0.00    +0.000    18.895
ATOM      5  C   UNL     1      16.100 -10.240   3.256 -0.43 +0.00    +0.000    18.895
ATOM      6  C   UNL     1      17.465 -10.532   3.240 -0.36 +0.00    +0.000    18.895
ATOM      7  O   UNL     1      20.003 -12.769   1.411 -1.44 -0.00    +0.000    18.895
ATOM      8  S   UNL     1      19.779 -11.435   2.065 -0.91 -0.00    +0.000    18.895
ATOM      9  O   UNL     1      20.268 -11.495   3.483 -1.41 -0.00    +0.000    18.895
ATOM     10  N   UNL     1      20.674 -10.223   1.202 -0.57 -0.00    +0.000    18.895
ATOM     11  H   UNL     1      21.258  -9.624   1.720 -0.55 -0.00    +0.000    18.895
ATOM     12  C   UNL     1      20.613 -10.043  -0.225 -0.58 -0.00    +0.000    18.895
ATOM     13  C   UNL     1      21.385  -9.068  -0.885 -0.52 -0.00    +0.000    18.895
ATOM     14  C   UNL     1      21.307  -8.928  -2.275 -0.45 -0.00    +0.000    18.895
ATOM     15  C   UNL     1      20.457  -9.750  -3.016 -0.42 -0.00    +0.000    18.895
ATOM     16  C   UNL     1      19.680 -10.714  -2.369 -0.40 -0.00    +0.000    18.895
ATOM     17  C   UNL     1      19.755 -10.858  -0.981 -0.45 -0.00    +0.000    18.895
ATOM     18  C   UNL     1      15.048 -11.115  -0.264 -0.35 +0.00    +0.000    18.895
ATOM     19  C   UNL     1      15.453 -10.906  -1.526 -0.32 -0.00    +0.000    18.895
ATOM     20  C   UNL     1      14.586 -11.113  -2.704 -0.33 -0.00    +0.000    18.895
ATOM     21  N   UNL     1      15.112 -11.252  -4.029 -0.26 -0.00    +0.000    18.895
ATOM     22  O   UNL     1      14.272 -11.335  -5.087 -0.31 -0.00    +0.000    18.895
ATOM     23  O   UNL     1      13.341 -11.193  -2.526 -0.32 -0.00    +0.000    18.895
ATOM     24  H   UNL     1      16.086 -11.288  -4.170 -0.01 -0.00    +0.000    18.895
TER
ENDMDL
MODEL       15
USER    Run = 15
USER    Cluster Rank = 9
USER    Number of conformations in this cluster = 3
USER  
USER    RMSD from reference structure       = 16.552 A
USER  
USER    Estimated Free Energy of Binding    =  -10.19 kcal/mol  [=(1)+(2)+(3)-(4)]
USER    Estimated Inhibition Constant, Ki   =   34.20 nM (nanomolar)  [Temperature = 298.15 K]
USER    
USER    (1) Final Intermolecular Energy     =  -11.68 kcal/mol
USER        vdW + Hbond + desolv Energy     =  -11.68 kcal/mol
USER        Electrostatic Energy            =   +0.00 kcal/mol
USER    (2) Final Total Internal Energy     =   -1.04 kcal/mol
USER    (3) Torsional Free Energy           =   +1.49 kcal/mol
USER    (4) Unbound System's Energy  [=(2)] =   -1.04 kcal/mol
USER    
USER    
USER  
USER    DPF = ligand_dock.biased.dpf
USER    NEWDPF move	ligand.pdbqt
USER    NEWDPF about	0.217000 0.012000 -0.211000
USER    NEWDPF tran0	16.901535 -9.138072 4.142056
USER    NEWDPF axisangle0	-0.621755 -0.437403 0.649692 104.397215
USER    NEWDPF quaternion0	-0.491273 -0.345610 0.513348 0.612926
USER    NEWDPF dihe0	15.67 134.42 111.19 163.45 44.46 
USER  
USER                              x       y       z    vdW   Elec        q     RMS 
ATOM      1  C   UNL     1      14.732  -8.909   4.102 -0.35 +0.00    +0.000    16.552
ATOM      2  C   UNL     1      15.993  -9.018   3.500 -0.34 +0.00    +0.000    16.552
ATOM      3  C   UNL     1      16.283 -10.092   2.632 -0.38 +0.00    +0.000    16.552
ATOM      4  C   UNL     1      15.291 -11.058   2.396 -0.41 +0.00    +0.000    16.552
ATOM      5  C   UNL     1      14.030 -10.943   2.988 -0.32 +0.00    +0.000    16.552
ATOM      6  C   UNL     1      13.749  -9.870   3.835 -0.29 +0.00    +0.000    16.552
ATOM      7  O   UNL     1      14.266  -8.071   6.614 -0.53 +0.00    +0.000    16.552
ATOM      8  S   UNL     1      14.393  -7.575   5.201 -0.55 +0.00    +0.000    16.552
ATOM      9  O   UNL     1      13.100  -6.930   4.790 -0.29 +0.00    +0.000    16.552
ATOM     10  N   UNL     1      15.668  -6.399   5.126 -0.49 +0.00    +0.000    16.552
ATOM     11  H   UNL     1      16.548  -6.649   5.489 -0.46 -0.00    +0.000    16.552
ATOM     12  C   UNL     1      15.515  -5.082   4.566 -0.39 +0.00    +0.000    16.552
ATOM     13  C   UNL     1      15.776  -3.919   5.317 -0.50 -0.00    +0.000    16.552
ATOM     14  C   UNL     1      15.626  -2.656   4.736 -0.41 -0.00    +0.000    16.552
ATOM     15  C   UNL     1      15.209  -2.538   3.408 -0.36 -0.00    +0.000    16.552
ATOM     16  C   UNL     1      14.939  -3.685   2.659 -0.25 -0.00    +0.000    16.552
ATOM     17  C   UNL     1      15.088  -4.950   3.234 -0.26 -0.00    +0.000    16.552
ATOM     18  C   UNL     1      17.609 -10.267   1.990 -0.45 -0.00    +0.000    16.552
ATOM     19  C   UNL     1      18.626 -10.939   2.551 -0.60 -0.00    +0.000    16.552
ATOM     20  C   UNL     1      19.943 -11.110   1.904 -0.72 -0.00    +0.000    16.552
ATOM     21  N   UNL     1      20.519 -10.107   1.060 -0.56 -0.00    +0.000    16.552
ATOM     22  O   UNL     1      21.679 -10.353   0.407 -0.65 -0.00    +0.000    16.552
ATOM     23  O   UNL     1      20.589 -12.169   2.128 -1.89 -0.00    +0.000    16.552
ATOM     24  H   UNL     1      20.071  -9.236   0.954 -0.22 -0.00    +0.000    16.552
TER
ENDMDL
MODEL       31
USER    Run = 31
USER    Cluster Rank = 10
USER    Number of conformations in this cluster = 2
USER  
USER    RMSD from reference structure       = 15.893 A
USER  
USER    Estimated Free Energy of Binding    =   -9.59 kcal/mol  [=(1)+(2)+(3)-(4)]
USER    Estimated Inhibition Constant, Ki   =   93.12 nM (nanomolar)  [Temperature = 298.15 K]
USER    
USER    (1) Final Intermolecular Energy     =  -11.08 kcal/mol
USER        vdW + Hbond + desolv Energy     =  -11.08 kcal/mol
USER        Electrostatic Energy            =   +0.00 kcal/mol
USER    (2) Final Total Internal Energy     =   -0.90 kcal/mol
USER    (3) Torsional Free Energy           =   +1.49 kcal/mol
USER    (4) Unbound System's Energy  [=(2)] =   -0.90 kcal/mol
USER    
USER    
USER  
USER    DPF = ligand_dock.biased.dpf
USER    NEWDPF move	ligand.pdbqt
USER    NEWDPF about	0.217000 0.012000 -0.211000
USER    NEWDPF tran0	16.091371 -10.036494 4.701245
USER    NEWDPF axisangle0	-0.805409 -0.399475 0.437876 113.105552
USER    NEWDPF quaternion0	-0.672029 -0.333319 0.365361 0.551169
USER    NEWDPF dihe0	-99.71 143.84 177.74 -169.99 178.05 
USER  
USER                              x       y       z    vdW   Elec        q     RMS 
ATOM      1  C   UNL     1      14.025  -9.647   4.118 -0.34 +0.00    +0.000    15.893
ATOM      2  C   UNL     1      15.412  -9.627   3.912 -0.38 +0.00    +0.000    15.893
ATOM      3  C   UNL     1      15.987 -10.338   2.838 -0.40 +0.00    +0.000    15.893
ATOM      4  C   UNL     1      15.148 -11.077   1.989 -0.38 +0.00    +0.000    15.893
ATOM      5  C   UNL     1      13.765 -11.088   2.188 -0.36 +0.00    +0.000    15.893
ATOM      6  C   UNL     1      13.204 -10.372   3.246 -0.06 +0.00    +0.000    15.893
ATOM      7  O   UNL     1      14.234  -7.662   5.920 -0.55 +0.00    +0.000    15.893
ATOM      8  S   UNL     1      13.323  -8.773   5.477 -0.59 +0.00    +0.000    15.893
ATOM      9  O   UNL     1      13.129  -9.732   6.617 -0.69 +0.00    +0.000    15.893
ATOM     10  N   UNL     1      11.787  -8.100   5.027 -0.26 +0.00    +0.000    15.893
ATOM     11  H   UNL     1      11.710  -7.677   4.141 +0.00 +0.00    +0.000    15.893
ATOM     12  C   UNL     1      10.622  -8.124   5.870 -0.24 +0.00    +0.000    15.893
ATOM     13  C   UNL     1       9.843  -6.972   6.096 -0.21 +0.00    +0.000    15.893
ATOM     14  C   UNL     1       8.710  -7.035   6.914 -0.35 +0.00    +0.000    15.893
ATOM     15  C   UNL     1       8.347  -8.240   7.519 -0.47 +0.00    +0.000    15.893
ATOM     16  C   UNL     1       9.118  -9.385   7.309 -0.50 +0.00    +0.000    15.893
ATOM     17  C   UNL     1      10.251  -9.328   6.492 -0.30 +0.00    +0.000    15.893
ATOM     18  C   UNL     1      17.450 -10.369   2.592 -0.50 +0.00    +0.000    15.893
ATOM     19  C   UNL     1      18.074 -11.359   1.935 -0.51 +0.00    +0.000    15.893
ATOM     20  C   UNL     1      19.532 -11.382   1.693 -0.70 -0.00    +0.000    15.893
ATOM     21  N   UNL     1      20.141 -10.661   0.615 -0.58 -0.00    +0.000    15.893
ATOM     22  O   UNL     1      21.465 -10.798   0.371 -0.73 -0.00    +0.000    15.893
ATOM     23  O   UNL     1      20.261 -12.042   2.480 -1.98 -0.00    +0.000    15.893
ATOM     24  H   UNL     1      19.596 -10.065   0.052 -0.02 -0.00    +0.000    15.893
TER
ENDMDL
MODEL       88
USER    Run = 88
USER    Cluster Rank = 11
USER    Number of conformations in this cluster = 1
USER  
USER    RMSD from reference structure       = 18.845 A
USER  
USER    Estimated Free Energy of Binding    =   -9.32 kcal/mol  [=(1)+(2)+(3)-(4)]
USER    Estimated Inhibition Constant, Ki   =  146.99 nM (nanomolar)  [Temperature = 298.15 K]
USER    
USER    (1) Final Intermolecular Energy     =  -10.81 kcal/mol
USER        vdW + Hbond + desolv Energy     =  -10.81 kcal/mol
USER        Electrostatic Energy            =   +0.00 kcal/mol
USER    (2) Final Total Internal Energy     =   -1.21 kcal/mol
USER    (3) Torsional Free Energy           =   +1.49 kcal/mol
USER    (4) Unbound System's Energy  [=(2)] =   -1.21 kcal/mol
USER    
USER    
USER  
USER    DPF = ligand_dock.biased.dpf
USER    NEWDPF move	ligand.pdbqt
USER    NEWDPF about	0.217000 0.012000 -0.211000
USER    NEWDPF tran0	17.843249 -9.753140 0.890109
USER    NEWDPF axisangle0	0.688436 -0.714703 0.123511 69.672723
USER    NEWDPF quaternion0	0.393259 -0.408263 0.070554 0.820787
USER    NEWDPF dihe0	-78.56 110.97 -172.17 -19.82 92.91 
USER  
USER                              x       y       z    vdW   Elec        q     RMS 
ATOM      1  C   UNL     1      17.885 -10.990   2.687 -0.43 +0.00    +0.000    18.845
ATOM      2  C   UNL     1      18.126 -10.743   1.328 -0.41 -0.00    +0.000    18.845
ATOM      3  C   UNL     1      19.442 -10.760   0.820 -0.52 -0.00    +0.000    18.845
ATOM      4  C   UNL     1      20.505 -11.013   1.701 -0.63 -0.00    +0.000    18.845
ATOM      5  C   UNL     1      20.264 -11.269   3.053 -0.58 -0.00    +0.000    18.845
ATOM      6  C   UNL     1      18.957 -11.262   3.545 -0.41 -0.00    +0.000    18.845
ATOM      7  O   UNL     1      15.641  -9.576   3.131 -0.41 +0.00    +0.000    18.845
ATOM      8  S   UNL     1      16.238 -10.943   3.312 -0.65 +0.00    +0.000    18.845
ATOM      9  O   UNL     1      16.270 -11.274   4.777 -0.63 +0.00    +0.000    18.845
ATOM     10  N   UNL     1      15.251 -12.107   2.485 -0.50 +0.00    +0.000    18.845
ATOM     11  H   UNL     1      14.979 -12.916   2.977 -0.19 +0.00    +0.000    18.845
ATOM     12  C   UNL     1      14.806 -11.962   1.124 -0.43 +0.00    +0.000    18.845
ATOM     13  C   UNL     1      15.459 -12.605   0.055 -0.48 +0.00    +0.000    18.845
ATOM     14  C   UNL     1      14.992 -12.448  -1.254 -0.34 +0.00    +0.000    18.845
ATOM     15  C   UNL     1      13.878 -11.646  -1.511 -0.32 +0.00    +0.000    18.845
ATOM     16  C   UNL     1      13.230 -10.996  -0.458 -0.29 +0.00    +0.000    18.845
ATOM     17  C   UNL     1      13.692 -11.151   0.852 -0.33 +0.00    +0.000    18.845
ATOM     18  C   UNL     1      19.752 -10.480  -0.604 -0.53 -0.00    +0.000    18.845
ATOM     19  C   UNL     1      20.985 -10.205  -1.058 -0.66 -0.00    +0.000    18.845
ATOM     20  C   UNL     1      21.287  -9.929  -2.478 -0.56 -0.00    +0.000    18.845
ATOM     21  N   UNL     1      21.040 -10.888  -3.514 -0.50 -0.00    +0.000    18.845
ATOM     22  O   UNL     1      21.430 -10.629  -4.784 -0.49 -0.00    +0.000    18.845
ATOM     23  O   UNL     1      21.754  -8.800  -2.784 -0.50 -0.00    +0.000    18.845
ATOM     24  H   UNL     1      20.587 -11.736  -3.302 -0.02 -0.00    +0.000    18.845
TER
ENDMDL


AVSFLD: # AVS field file
AVSFLD: #
AVSFLD: # Created by AutoDock
AVSFLD: #
AVSFLD: ndim=2           # number of dimensions in the field
AVSFLD: nspace=1         # number of physical coordinates
AVSFLD: veclen=7         # vector size
AVSFLD: dim1=24          # atoms
AVSFLD: dim2=11          # conformations
AVSFLD: data=Real       # data type (byte,integer,Real,double)
AVSFLD: field=uniform    # field coordinate layout
AVSFLD: label= x y z vdW Elec q RMS
AVSFLD: variable 1 file = ligand_dock.biased.dlg.pdb filetype = ascii offset = 5 stride = 12
AVSFLD: variable 2 file = ligand_dock.biased.dlg.pdb filetype = ascii offset = 6 stride = 12
AVSFLD: variable 3 file = ligand_dock.biased.dlg.pdb filetype = ascii offset = 7 stride = 12
AVSFLD: variable 4 file = ligand_dock.biased.dlg.pdb filetype = ascii offset = 8 stride = 12
AVSFLD: variable 5 file = ligand_dock.biased.dlg.pdb filetype = ascii offset = 9 stride = 12
AVSFLD: variable 6 file = ligand_dock.biased.dlg.pdb filetype = ascii offset = 10 stride = 12
AVSFLD: variable 7 file = ligand_dock.biased.dlg.pdb filetype = ascii offset = 11 stride = 12
AVSFLD: # end of file

>>> Closing the docking parameter file (DPF)...
This docking finished at:			5:17 21" p.m., 11/03/2024


________________________________________________________________________________

autodock4: Successful Completion on "ThinkStation-P620"

Real= 10m 59.28s,  CPU= 10m 56.65s,  System= 0.20s
________________________________________________________________________________

