REMARK  Name = 
REMARK  11 active torsions:
REMARK  status: ('A' for Active; 'I' for Inactive)
REMARK    1  A    between atoms: C_2  and  C_5
REMARK    2  A    between atoms: N_3  and  O_4
REMARK    3  A    between atoms: C_6  and  C_7
REMARK    4  A    between atoms: C_10  and  C_11
REMARK    5  A    between atoms: C_11  and  N_12
REMARK    6  A    between atoms: N_12  and  C_13
REMARK    7  A    between atoms: N_12  and  C_16
REMARK    8  A    between atoms: C_13  and  C_14
REMARK    9  A    between atoms: C_14  and  O_15
REMARK   10  A    between atoms: C_16  and  C_17
REMARK   11  A    between atoms: C_17  and  C_18
REMARK                            x       y       z     vdW  Elec       q    Type
REMARK                         _______ _______ _______ _____ _____    ______ ____
ROOT
ATOM      1  N   UNL     1      -0.465  -1.102   0.017  0.00  0.00    +0.000 N 
ATOM      2  H   UNL     1       0.123  -0.991  -0.809  0.00  0.00    +0.000 HD
ENDROOT
BRANCH   1   3
ATOM      3  C   UNL     1      -0.104  -0.044   0.986  0.00  0.00    +0.000 C 
BRANCH   3   7
ATOM      4  C   UNL     1       4.127   0.813   0.695  0.00  0.00    +0.000 A 
ATOM      5  C   UNL     1       3.605   0.186   1.838  0.00  0.00    +0.000 A 
ATOM      6  C   UNL     1       2.237  -0.085   1.940  0.00  0.00    +0.000 A 
ATOM      7  C   UNL     1       1.368   0.260   0.894  0.00  0.00    +0.000 A 
ATOM      8  C   UNL     1       1.886   0.867  -0.258  0.00  0.00    +0.000 A 
ATOM      9  C   UNL     1       3.253   1.139  -0.361  0.00  0.00    +0.000 A 
BRANCH   4  11
ATOM     10  C   UNL     1       6.138   2.003  -0.161  0.00  0.00    +0.000 C 
ATOM     11  C   UNL     1       5.587   1.068   0.627  0.00  0.00    +0.000 C 
BRANCH  10  13
ATOM     12  O   UNL     1       7.988   3.361  -0.688  0.00  0.00    +0.000 OA
ATOM     13  C   UNL     1       7.590   2.265  -0.211  0.00  0.00    +0.000 C 
ATOM     14  N   UNL     1       8.556   1.303   0.234  0.00  0.00    +0.000 N 
ATOM     15  H   UNL     1       8.262   0.404   0.506  0.00  0.00    +0.000 HD
BRANCH  14  16
ATOM     16  O   UNL     1       9.870   1.627   0.281  0.00  0.00    +0.000 OA
ATOM     17  H   UNL     1       9.989   2.543  -0.017  0.00  0.00    +0.000 HD
ENDBRANCH  14  16
ENDBRANCH  10  13
ENDBRANCH   4  11
ENDBRANCH   3   7
ENDBRANCH   1   3
BRANCH   1  18
ATOM     18  C   UNL     1      -0.151  -2.451   0.545  0.00  0.00    +0.000 C 
BRANCH  18  19
ATOM     19  C   UNL     1      -0.166  -3.525  -0.554  0.00  0.00    +0.000 C 
BRANCH  19  20
ATOM     20  O   UNL     1      -1.466  -4.000  -0.782  0.00  0.00    +0.000 OA
ATOM     21  H   UNL     1      -1.811  -4.400   0.032  0.00  0.00    +0.000 HD
ENDBRANCH  19  20
ENDBRANCH  18  19
ENDBRANCH   1  18
BRANCH   1  22
ATOM     22  C   UNL     1      -1.853  -0.947  -0.484  0.00  0.00    +0.000 C 
BRANCH  22  23
ATOM     23  C   UNL     1      -2.939  -1.172   0.586  0.00  0.00    +0.000 C 
BRANCH  23  24
ATOM     24  C   UNL     1      -4.286  -0.798   0.045  0.00  0.00    +0.000 A 
ATOM     25  C   UNL     1      -5.199  -1.647  -0.573  0.00  0.00    +0.000 A 
ATOM     26  N   UNL     1      -6.274  -0.950  -1.005  0.00  0.00    +0.000 N 
ATOM     27  C   UNL     1      -6.041   0.333  -0.678  0.00  0.00    +0.000 A 
ATOM     28  C   UNL     1      -4.834   0.467  -0.041  0.00  0.00    +0.000 A 
ATOM     29  C   UNL     1      -4.354   1.709   0.373  0.00  0.00    +0.000 A 
ATOM     30  C   UNL     1      -5.157   2.837   0.126  0.00  0.00    +0.000 A 
ATOM     31  C   UNL     1      -6.404   2.700  -0.525  0.00  0.00    +0.000 A 
ATOM     32  C   UNL     1      -6.857   1.434  -0.938  0.00  0.00    +0.000 A 
ATOM     33  H   UNL     1      -7.067  -1.309  -1.465  0.00  0.00    +0.000 HD
ENDBRANCH  23  24
ENDBRANCH  22  23
ENDBRANCH   1  22
TORSDOF 11
