          AutoDock 4.2 Release 4.2.6   
         (C) 1989-2012 The Scripps Research Institute
        AutoDock comes with ABSOLUTELY NO WARRANTY.
        AutoDock is free software, and you are welcome
        to redistribute it under certain conditions;
        for details type 'autodock4 -C'

                     main.cc  $Revision: 1.213 $

                   Compiled on Feb 20 2022 at 09:48:33


This file was created at:			10:03 16" a.m., 11/08/2024
                   on host:		"ThinkStation-P620"
Current Working Directory = "/home/antonio/Documenti/buccheri/IDROSSAMICO HDAC/HDAC 2/P/Ligand_4"

      ________________________________________________________________

                   SETTING UP DEFAULT PARAMETER LIBRARY
      ________________________________________________________________


Random number generator was seeded with values 328171, 1731056596.
Docking parameter file (DPF) used for this docking:		ligand_dock.biased.dpf
DPF> autodock_parameter_version 4.2       # used by autodock to validate parameter set

	Autodock parameter version 4.2.
DPF> outlev 1                             # diagnostic output level

Output Level = 1  ADT-COMPATIBLE OUTPUT DURING DOCKING.
DPF> intelec                              # calculate internal electrostatics

Electrostatic energies will be calculated for all non-bonds between moving atoms.
DPF> seed pid time                        # seeds for random generator

Random number generator was seeded with values 328171, 1731056596.
DPF> ligand_types A C OA HD N             # atoms types in ligand

DPF> fld receptor.maps.fld                # grid_data_file

Opening Grid Map Dimensions file:		receptor.maps.fld
Grid Point Spacing =				0.375 Angstroms

Even Number of User-specified Grid Points =	70 x-points
						70 y-points
						70 z-points

Coordinates of Central Grid Point of Maps =	(24.757, -16.735, 0.794)
Macromolecule file used to create Grid Maps =	receptor.pdbqt
Grid Parameter file used to create Grid Maps =	receptor.gpf
Minimum coordinates in grid = (11.632, -29.860, -12.331)
Maximum coordinates in grid = (37.882, -3.610, 13.919)

DPF> map receptor.A.map                   # atom-specific affinity map

DPF> map receptor.C.map                   # atom-specific affinity map

DPF> map receptor.OA.biased.map

DPF> map receptor.HD.biased.map

DPF> map receptor.N.map                   # atom-specific affinity map

DPF> elecmap receptor.e.map               # electrostatics map

DPF> desolvmap receptor.d.map             # desolvation map

DPF> move ligand.pdbqt                    # small molecule

1,4-interactions will be _ignored_ in the non-bonded internal energy calculation.

Ligand PDBQT file = "ligand.pdbqt"

INPUT LIGAND PDBQT FILE:
________________________

INPUT-LIGAND-PDBQT: REMARK  Name = 
INPUT-LIGAND-PDBQT: REMARK  11 active torsions:
INPUT-LIGAND-PDBQT: REMARK  status: ('A' for Active; 'I' for Inactive)
INPUT-LIGAND-PDBQT: REMARK    1  A    between atoms: C_2  and  C_5
INPUT-LIGAND-PDBQT: REMARK    2  A    between atoms: N_3  and  O_4
INPUT-LIGAND-PDBQT: REMARK    3  A    between atoms: C_6  and  C_7
INPUT-LIGAND-PDBQT: REMARK    4  A    between atoms: C_10  and  C_11
INPUT-LIGAND-PDBQT: REMARK    5  A    between atoms: C_11  and  N_12
INPUT-LIGAND-PDBQT: REMARK    6  A    between atoms: N_12  and  C_13
INPUT-LIGAND-PDBQT: REMARK    7  A    between atoms: N_12  and  C_16
INPUT-LIGAND-PDBQT: REMARK    8  A    between atoms: C_13  and  C_14
INPUT-LIGAND-PDBQT: REMARK    9  A    between atoms: C_14  and  O_15
INPUT-LIGAND-PDBQT: REMARK   10  A    between atoms: C_16  and  C_17
INPUT-LIGAND-PDBQT: REMARK   11  A    between atoms: C_17  and  C_18
INPUT-LIGAND-PDBQT: REMARK                            x       y       z     vdW  Elec       q    Type
INPUT-LIGAND-PDBQT: REMARK                         _______ _______ _______ _____ _____    ______ ____
INPUT-LIGAND-PDBQT: ROOT
INPUT-LIGAND-PDBQT: ATOM      1  N   UNL     1      -0.465  -1.102   0.017  0.00  0.00    +0.000 N 
INPUT-LIGAND-PDBQT: ATOM      2  H   UNL     1       0.123  -0.991  -0.809  0.00  0.00    +0.000 HD
INPUT-LIGAND-PDBQT: ENDROOT
INPUT-LIGAND-PDBQT: BRANCH   1   3
INPUT-LIGAND-PDBQT: ATOM      3  C   UNL     1      -0.104  -0.044   0.986  0.00  0.00    +0.000 C 
INPUT-LIGAND-PDBQT: BRANCH   3   7
INPUT-LIGAND-PDBQT: ATOM      4  C   UNL     1       4.127   0.813   0.695  0.00  0.00    +0.000 A 
INPUT-LIGAND-PDBQT: ATOM      5  C   UNL     1       3.605   0.186   1.838  0.00  0.00    +0.000 A 
INPUT-LIGAND-PDBQT: ATOM      6  C   UNL     1       2.237  -0.085   1.940  0.00  0.00    +0.000 A 
INPUT-LIGAND-PDBQT: ATOM      7  C   UNL     1       1.368   0.260   0.894  0.00  0.00    +0.000 A 
INPUT-LIGAND-PDBQT: ATOM      8  C   UNL     1       1.886   0.867  -0.258  0.00  0.00    +0.000 A 
INPUT-LIGAND-PDBQT: ATOM      9  C   UNL     1       3.253   1.139  -0.361  0.00  0.00    +0.000 A 
INPUT-LIGAND-PDBQT: BRANCH   4  11
INPUT-LIGAND-PDBQT: ATOM     10  C   UNL     1       6.138   2.003  -0.161  0.00  0.00    +0.000 C 
INPUT-LIGAND-PDBQT: ATOM     11  C   UNL     1       5.587   1.068   0.627  0.00  0.00    +0.000 C 
INPUT-LIGAND-PDBQT: BRANCH  10  13
INPUT-LIGAND-PDBQT: ATOM     12  O   UNL     1       7.988   3.361  -0.688  0.00  0.00    +0.000 OA
INPUT-LIGAND-PDBQT: ATOM     13  C   UNL     1       7.590   2.265  -0.211  0.00  0.00    +0.000 C 
INPUT-LIGAND-PDBQT: ATOM     14  N   UNL     1       8.556   1.303   0.234  0.00  0.00    +0.000 N 
INPUT-LIGAND-PDBQT: ATOM     15  H   UNL     1       8.262   0.404   0.506  0.00  0.00    +0.000 HD
INPUT-LIGAND-PDBQT: BRANCH  14  16
INPUT-LIGAND-PDBQT: ATOM     16  O   UNL     1       9.870   1.627   0.281  0.00  0.00    +0.000 OA
INPUT-LIGAND-PDBQT: ATOM     17  H   UNL     1       9.989   2.543  -0.017  0.00  0.00    +0.000 HD
INPUT-LIGAND-PDBQT: ENDBRANCH  14  16
INPUT-LIGAND-PDBQT: ENDBRANCH  10  13
INPUT-LIGAND-PDBQT: ENDBRANCH   4  11
INPUT-LIGAND-PDBQT: ENDBRANCH   3   7
INPUT-LIGAND-PDBQT: ENDBRANCH   1   3
INPUT-LIGAND-PDBQT: BRANCH   1  18
INPUT-LIGAND-PDBQT: ATOM     18  C   UNL     1      -0.151  -2.451   0.545  0.00  0.00    +0.000 C 
INPUT-LIGAND-PDBQT: BRANCH  18  19
INPUT-LIGAND-PDBQT: ATOM     19  C   UNL     1      -0.166  -3.525  -0.554  0.00  0.00    +0.000 C 
INPUT-LIGAND-PDBQT: BRANCH  19  20
INPUT-LIGAND-PDBQT: ATOM     20  O   UNL     1      -1.466  -4.000  -0.782  0.00  0.00    +0.000 OA
INPUT-LIGAND-PDBQT: ATOM     21  H   UNL     1      -1.811  -4.400   0.032  0.00  0.00    +0.000 HD
INPUT-LIGAND-PDBQT: ENDBRANCH  19  20
INPUT-LIGAND-PDBQT: ENDBRANCH  18  19
INPUT-LIGAND-PDBQT: ENDBRANCH   1  18
INPUT-LIGAND-PDBQT: BRANCH   1  22
INPUT-LIGAND-PDBQT: ATOM     22  C   UNL     1      -1.853  -0.947  -0.484  0.00  0.00    +0.000 C 
INPUT-LIGAND-PDBQT: BRANCH  22  23
INPUT-LIGAND-PDBQT: ATOM     23  C   UNL     1      -2.939  -1.172   0.586  0.00  0.00    +0.000 C 
INPUT-LIGAND-PDBQT: BRANCH  23  24
INPUT-LIGAND-PDBQT: ATOM     24  C   UNL     1      -4.286  -0.798   0.045  0.00  0.00    +0.000 A 
INPUT-LIGAND-PDBQT: ATOM     25  C   UNL     1      -5.199  -1.647  -0.573  0.00  0.00    +0.000 A 
INPUT-LIGAND-PDBQT: ATOM     26  N   UNL     1      -6.274  -0.950  -1.005  0.00  0.00    +0.000 N 
INPUT-LIGAND-PDBQT: ATOM     27  C   UNL     1      -6.041   0.333  -0.678  0.00  0.00    +0.000 A 
INPUT-LIGAND-PDBQT: ATOM     28  C   UNL     1      -4.834   0.467  -0.041  0.00  0.00    +0.000 A 
INPUT-LIGAND-PDBQT: ATOM     29  C   UNL     1      -4.354   1.709   0.373  0.00  0.00    +0.000 A 
INPUT-LIGAND-PDBQT: ATOM     30  C   UNL     1      -5.157   2.837   0.126  0.00  0.00    +0.000 A 
INPUT-LIGAND-PDBQT: ATOM     31  C   UNL     1      -6.404   2.700  -0.525  0.00  0.00    +0.000 A 
INPUT-LIGAND-PDBQT: ATOM     32  C   UNL     1      -6.857   1.434  -0.938  0.00  0.00    +0.000 A 
INPUT-LIGAND-PDBQT: ATOM     33  H   UNL     1      -7.067  -1.309  -1.465  0.00  0.00    +0.000 HD
INPUT-LIGAND-PDBQT: ENDBRANCH  23  24
INPUT-LIGAND-PDBQT: ENDBRANCH  22  23
INPUT-LIGAND-PDBQT: ENDBRANCH   1  22
INPUT-LIGAND-PDBQT: TORSDOF 11
________________________________________________________________________________

Total charge on ligand                               =	+0.000 e
REMARK  Name = 
REMARK  11 active torsions:
REMARK  status: ('A' for Active; 'I' for Inactive)
REMARK    1  A    between atoms: C_2  and  C_5
REMARK    2  A    between atoms: N_3  and  O_4
REMARK    3  A    between atoms: C_6  and  C_7
REMARK    4  A    between atoms: C_10  and  C_11
REMARK    5  A    between atoms: C_11  and  N_12
REMARK    6  A    between atoms: N_12  and  C_13
REMARK    7  A    between atoms: N_12  and  C_16
REMARK    8  A    between atoms: C_13  and  C_14
REMARK    9  A    between atoms: C_14  and  O_15
REMARK   10  A    between atoms: C_16  and  C_17
REMARK   11  A    between atoms: C_17  and  C_18
REMARK                            x       y       z     vdW  Elec       q    Type
REMARK                         _______ _______ _______ _____ _____    ______ ____


Number of Rotatable Bonds in Small Molecule =	11 torsions
Number of atoms in ligand:  33

Number of non-hydrogen atoms in ligand:  28

Number of vibrational degrees of freedom of ligand:  93


Number of torsional degrees of freedom = 11
Estimated loss of torsional free energy upon binding = +3.2813 kcal/mol


DPF> about 0.459 0.118 0.005            # small molecule center

Small molecule center of rotation =	(+0.459, +0.118, +0.005)

DPF> tran0 random                         # initial coordinates/A or random

Initial translation =			(34.148, -21.356, -6.282) Angstroms
DPF> quaternion0 random                   # initial orientation

Each run will begin with a new, random initial orientation.
Initial quaternion,  (x,y,z,w) =	( -0.716, 0.104, 0.000, 0.690 ),
DPF> dihe0 random                         # initial dihedrals (relative) or random

DPF> torsdof 11                            # torsional degrees of freedom

Number of torsional degrees of freedom = 11
Free energy coefficient for torsional degrees of freedom = 0.2983, the factory default value.

Estimated loss of torsional free energy upon binding = +3.2813 kcal/mol

DPF> rmstol 2.0                           # cluster_tolerance/A

Maximum RMS tolerance for conformational cluster analysis = 2.00 Angstroms
DPF> extnrg 1000.0                        # external grid energy

External grid energy (beyond grid map walls) = 1000.00

DPF> e0max 0.0 10000                      # max initial energy; max number of retries

Using user-specified maximum number of retries for simanneal initialization, 10000 retries.
If the simanneal initial energy is greater than e0max, 0.000,
then a new, random initial state will be created.

DPF> ga_pop_size 150                      # number of individuals in population

A population of 150 individuals will be used
DPF> ga_num_evals 2500000                 # maximum number of energy evaluations

There will be at most 2500000 function evaluations used.
DPF> ga_num_generations 27000             # maximum number of generations

The GA will run for at most 27000 generations.
DPF> ga_elitism 1                         # number of top individuals to survive to next generation

The 1 best will be preserved each GA generation.
DPF> ga_mutation_rate 0.02                # rate of gene mutation

The mutation rate is 0.020000.
DPF> ga_crossover_rate 0.8                # rate of crossover

The crossover rate is 0.800000.
DPF> ga_window_size 10                    # 

The GA's selection window is 10 generations.
DPF> ga_cauchy_alpha 0.0                  # Alpha parameter of Cauchy distribution

The alpha parameter (for the Cauchy distribution) is being set to 0.000000.
DPF> ga_cauchy_beta 1.0                   # Beta parameter Cauchy distribution

The beta parameter (for the Cauchy distribution) is being set to 1.000000.
DPF> set_ga                               # set the above parameters for GA or LGA

DPF> sw_max_its 300                       # iterations of Solis & Wets local search

Solis & Wets algorithms will perform at most 300 iterations.
DPF> sw_max_succ 4                        # consecutive successes before changing rho

Solis & Wets algorithms expand rho every 4 in a row successes.
DPF> sw_max_fail 4                        # consecutive failures before changing rho

Solis & Wets algorithms contract rho every 4 in a row failures.
DPF> sw_rho 1.0                           # size of local search space to sample

rho is set to 1.000000.
DPF> sw_lb_rho 0.01                       # lower bound on rho

rho will never get smaller than 0.010000.
DPF> ls_search_freq 0.06                  # probability of performing local search on individual

Local search will be performed with frequency 0.060000.
DPF> set_psw1                             # set the above pseudo-Solis & Wets parameters

Creating a new Local Search object using the pseudo-Solis-Wets algorithm (pSW1) with the current settings.

DPF> unbound_model bound                  # state of unbound ligand

DPF> ga_run 100

centering ligand on specified point: 0.459 0.118 0.005
Furthest true ligand atom from "about" center is 9.834 Angstroms (maxrad).
Number of requested GA dockings = 100 runs
Unbound model to be used is 'same as bound' [AutoDock 4.2 default].

	BEGINNING GENETIC ALGORITHM DOCKING 1 of 100
Run: 1 Seed: 1930252079 869124343 [ Run 1 of 100 GA/GALS ]
Beginning LAMARCKIAN GENETIC ALGORITHM (LGA), with a maximum of 2500000 energy evaluations.

Final-Value: -17.393


	FINAL GENETIC ALGORITHM DOCKED STATE
	_______________________________________________


Detailed state:  trans 29.476 -15.030 -0.217 quatxyzw -0.437617 0.253091 -0.384801 0.772246 center 0.459 0.118 0.005 ntor 11 -1.9624 -59.2452 152.2899 -179.8657 82.0791 27.5884 -124.9633 51.4739 -170.7132 34.4624 149.6467
State:	 29.476 -15.030  -0.217  -0.689  0.398 -0.606 78.888     -1.96  -59.25  152.29 -179.87   82.08   27.59 -124.96   51.47 -170.71   34.46  149.65

DOCKED: MODEL        1
DOCKED: USER    Run = 1
DOCKED: USER    DPF = ligand_dock.biased.dpf
DOCKED: USER  
DOCKED: USER    Estimated Free Energy of Binding    =  -11.58 kcal/mol  [=(1)+(2)+(3)-(4)]
DOCKED: USER    Estimated Inhibition Constant, Ki   =    3.26 nM (nanomolar)  [Temperature = 298.15 K]
DOCKED: USER    
DOCKED: USER    (1) Final Intermolecular Energy     =  -14.86 kcal/mol
DOCKED: USER        vdW + Hbond + desolv Energy     =  -14.86 kcal/mol
DOCKED: USER        Electrostatic Energy            =   +0.00 kcal/mol
DOCKED: USER    (2) Final Total Internal Energy     =   -2.53 kcal/mol
DOCKED: USER    (3) Torsional Free Energy           =   +3.28 kcal/mol
DOCKED: USER    (4) Unbound System's Energy  [=(2)] =   -2.53 kcal/mol
DOCKED: USER    
DOCKED: USER    
DOCKED: USER    NEWDPF move ligand.pdbqt
DOCKED: USER    NEWDPF about 0.459000 0.118000 0.005000
DOCKED: USER    NEWDPF tran0 29.475640 -15.029978 -0.217169
DOCKED: USER    NEWDPF quaternion0 -0.437617 0.253091 -0.384801 0.772246
DOCKED: USER    NEWDPF axisangle0 -0.688810 0.398365 -0.605677 78.887924
DOCKED: USER    NEWDPF quat0 -0.688810 0.398365 -0.605677 78.887924
DOCKED: USER    NEWDPF dihe0 -1.96 -59.25 152.29 -179.87 82.08 27.59 -124.96 51.47 -170.71 34.46 149.65 
DOCKED: USER  keepresnum = 1 
DOCKED: USER  
DOCKED: REMARK  Name = 
DOCKED: REMARK  11 active torsions:
DOCKED: REMARK  status: ('A' for Active; 'I' for Inactive)
DOCKED: REMARK    1  A    between atoms: C_2  and  C_5
DOCKED: REMARK    2  A    between atoms: N_3  and  O_4
DOCKED: REMARK    3  A    between atoms: C_6  and  C_7
DOCKED: REMARK    4  A    between atoms: C_10  and  C_11
DOCKED: REMARK    5  A    between atoms: C_11  and  N_12
DOCKED: REMARK    6  A    between atoms: N_12  and  C_13
DOCKED: REMARK    7  A    between atoms: N_12  and  C_16
DOCKED: REMARK    8  A    between atoms: C_13  and  C_14
DOCKED: REMARK    9  A    between atoms: C_14  and  O_15
DOCKED: REMARK   10  A    between atoms: C_16  and  C_17
DOCKED: REMARK   11  A    between atoms: C_17  and  C_18
DOCKED: REMARK                            x       y       z     vdW  Elec       q    Type
DOCKED: REMARK                         _______ _______ _______ _____ _____    ______ ____
DOCKED: USER                              x       y       z     vdW  Elec       q    Type
DOCKED: USER                           _______ _______ _______ _____ _____    ______ ____
DOCKED: ROOT
DOCKED: ATOM      1  N   UNL     1      29.938 -15.776  -1.471 -0.12 -0.00    +0.000 N 
DOCKED: ATOM      2  H   UNL     1      30.231 -14.802  -1.393 +0.00 -0.00    +0.000 HD
DOCKED: ENDROOT
DOCKED: BRANCH   1   3
DOCKED: ATOM      3  C   UNL     1      29.231 -16.146  -0.225 -0.19 -0.00    +0.000 C 
DOCKED: BRANCH   3   7
DOCKED: ATOM      4  C   UNL     1      25.106 -17.102  -1.115 -0.58 -0.00    +0.000 A 
DOCKED: ATOM      5  C   UNL     1      25.532 -15.765  -1.070 -0.42 -0.00    +0.000 A 
DOCKED: ATOM      6  C   UNL     1      26.863 -15.451  -0.775 -0.32 -0.00    +0.000 A 
DOCKED: ATOM      7  C   UNL     1      27.792 -16.473  -0.526 -0.33 -0.00    +0.000 A 
DOCKED: ATOM      8  C   UNL     1      27.377 -17.810  -0.590 -0.38 -0.00    +0.000 A 
DOCKED: ATOM      9  C   UNL     1      26.047 -18.125  -0.885 -0.47 -0.00    +0.000 A 
DOCKED: BRANCH   4  11
DOCKED: ATOM     10  C   UNL     1      22.908 -18.200  -0.718 -0.83 -0.00    +0.000 C 
DOCKED: ATOM     11  C   UNL     1      23.688 -17.386  -1.446 -0.67 -0.00    +0.000 C 
DOCKED: BRANCH  10  13
DOCKED: ATOM     12  O   UNL     1      20.629 -17.607  -0.714 -2.16 +0.00    +0.000 OA
DOCKED: ATOM     13  C   UNL     1      21.492 -18.464  -1.042 -0.77 -0.00    +0.000 C 
DOCKED: ATOM     14  N   UNL     1      21.068 -19.674  -1.685 -0.68 -0.00    +0.000 N 
DOCKED: ATOM     15  H   UNL     1      21.717 -20.396  -1.846 -0.43 -0.00    +0.000 HD
DOCKED: BRANCH  14  16
DOCKED: ATOM     16  O   UNL     1      19.778 -19.827  -2.069 -1.77 -0.00    +0.000 OA
DOCKED: ATOM     17  H   UNL     1      19.268 -19.043  -1.811 -0.48 -0.00    +0.000 HD
DOCKED: ENDBRANCH  14  16
DOCKED: ENDBRANCH  10  13
DOCKED: ENDBRANCH   4  11
DOCKED: ENDBRANCH   3   7
DOCKED: ENDBRANCH   1   3
DOCKED: BRANCH   1  18
DOCKED: ATOM     18  C   UNL     1      31.191 -16.552  -1.633 -0.10 -0.00    +0.000 C 
DOCKED: BRANCH  18  19
DOCKED: ATOM     19  C   UNL     1      31.248 -17.770  -0.698 -0.17 -0.00    +0.000 C 
DOCKED: BRANCH  19  20
DOCKED: ATOM     20  O   UNL     1      30.293 -18.732  -1.060 -0.28 -0.00    +0.000 OA
DOCKED: ATOM     21  H   UNL     1      29.684 -18.878  -0.318 -0.60 -0.00    +0.000 HD
DOCKED: ENDBRANCH  19  20
DOCKED: ENDBRANCH  18  19
DOCKED: ENDBRANCH   1  18
DOCKED: BRANCH   1  22
DOCKED: ATOM     22  C   UNL     1      29.040 -15.808  -2.651 -0.21 -0.00    +0.000 C 
DOCKED: BRANCH  22  23
DOCKED: ATOM     23  C   UNL     1      28.953 -14.472  -3.414 -0.15 -0.00    +0.000 C 
DOCKED: BRANCH  23  24
DOCKED: ATOM     24  C   UNL     1      27.531 -14.177  -3.784 -0.24 -0.00    +0.000 A 
DOCKED: ATOM     25  C   UNL     1      26.542 -15.106  -4.091 -0.47 -0.00    +0.000 A 
DOCKED: ATOM     26  N   UNL     1      25.401 -14.478  -4.455 -0.51 -0.00    +0.000 N 
DOCKED: ATOM     27  C   UNL     1      25.665 -13.161  -4.393 -0.33 -0.00    +0.000 A 
DOCKED: ATOM     28  C   UNL     1      26.958 -12.937  -3.993 -0.23 -0.00    +0.000 A 
DOCKED: ATOM     29  C   UNL     1      27.481 -11.650  -3.881 -0.12 -0.00    +0.000 A 
DOCKED: ATOM     30  C   UNL     1      26.633 -10.569  -4.182 -0.16 -0.00    +0.000 A 
DOCKED: ATOM     31  C   UNL     1      25.298 -10.798  -4.588 -0.30 -0.00    +0.000 A 
DOCKED: ATOM     32  C   UNL     1      24.802 -12.109  -4.700 -0.18 -0.00    +0.000 A 
DOCKED: ATOM     33  H   UNL     1      24.549 -14.899  -4.712 -0.20 +0.00    +0.000 HD
DOCKED: ENDBRANCH  23  24
DOCKED: ENDBRANCH  22  23
DOCKED: ENDBRANCH   1  22
DOCKED: TORSDOF 11
DOCKED: TER
DOCKED: ENDMDL
________________________________________________________________________________


	BEGINNING GENETIC ALGORITHM DOCKING 2 of 100
Run: 2 Seed: 1841982745 695718469 [ Run 2 of 100 GA/GALS ]
Beginning LAMARCKIAN GENETIC ALGORITHM (LGA), with a maximum of 2500000 energy evaluations.

Final-Value: -15.927


	FINAL GENETIC ALGORITHM DOCKED STATE
	_______________________________________________


Detailed state:  trans 28.283 -15.735 0.183 quatxyzw -0.466675 0.871126 0.095833 -0.119043 center 0.459 0.118 0.005 ntor 11 -6.0762 137.0095 32.1552 9.0839 -73.5316 166.2626 -102.0898 -28.3337 132.0472 -110.3732 16.6908
State:	 28.283 -15.735   0.183  -0.470  0.877  0.097 -166.326     -6.08  137.01   32.16    9.08  -73.53  166.26 -102.09  -28.33  132.05 -110.37   16.69

DOCKED: MODEL        2
DOCKED: USER    Run = 2
DOCKED: USER    DPF = ligand_dock.biased.dpf
DOCKED: USER  
DOCKED: USER    Estimated Free Energy of Binding    =  -10.53 kcal/mol  [=(1)+(2)+(3)-(4)]
DOCKED: USER    Estimated Inhibition Constant, Ki   =   18.98 nM (nanomolar)  [Temperature = 298.15 K]
DOCKED: USER    
DOCKED: USER    (1) Final Intermolecular Energy     =  -13.82 kcal/mol
DOCKED: USER        vdW + Hbond + desolv Energy     =  -13.82 kcal/mol
DOCKED: USER        Electrostatic Energy            =   +0.00 kcal/mol
DOCKED: USER    (2) Final Total Internal Energy     =   -2.11 kcal/mol
DOCKED: USER    (3) Torsional Free Energy           =   +3.28 kcal/mol
DOCKED: USER    (4) Unbound System's Energy  [=(2)] =   -2.11 kcal/mol
DOCKED: USER    
DOCKED: USER    
DOCKED: USER    NEWDPF move ligand.pdbqt
DOCKED: USER    NEWDPF about 0.459000 0.118000 0.005000
DOCKED: USER    NEWDPF tran0 28.282779 -15.734973 0.182509
DOCKED: USER    NEWDPF quaternion0 -0.466675 0.871126 0.095833 -0.119043
DOCKED: USER    NEWDPF axisangle0 -0.470017 0.877364 0.096519 -166.326286
DOCKED: USER    NEWDPF quat0 -0.470017 0.877364 0.096519 -166.326286
DOCKED: USER    NEWDPF dihe0 -6.08 137.01 32.16 9.08 -73.53 166.26 -102.09 -28.33 132.05 -110.37 16.69 
DOCKED: USER  keepresnum = 1 
DOCKED: USER  
DOCKED: REMARK  Name = 
DOCKED: REMARK  11 active torsions:
DOCKED: REMARK  status: ('A' for Active; 'I' for Inactive)
DOCKED: REMARK    1  A    between atoms: C_2  and  C_5
DOCKED: REMARK    2  A    between atoms: N_3  and  O_4
DOCKED: REMARK    3  A    between atoms: C_6  and  C_7
DOCKED: REMARK    4  A    between atoms: C_10  and  C_11
DOCKED: REMARK    5  A    between atoms: C_11  and  N_12
DOCKED: REMARK    6  A    between atoms: N_12  and  C_13
DOCKED: REMARK    7  A    between atoms: N_12  and  C_16
DOCKED: REMARK    8  A    between atoms: C_13  and  C_14
DOCKED: REMARK    9  A    between atoms: C_14  and  O_15
DOCKED: REMARK   10  A    between atoms: C_16  and  C_17
DOCKED: REMARK   11  A    between atoms: C_17  and  C_18
DOCKED: REMARK                            x       y       z     vdW  Elec       q    Type
DOCKED: REMARK                         _______ _______ _______ _____ _____    ______ ____
DOCKED: USER                              x       y       z     vdW  Elec       q    Type
DOCKED: USER                           _______ _______ _______ _____ _____    ______ ____
DOCKED: ROOT
DOCKED: ATOM      1  N   UNL     1      29.799 -15.668   0.377 -0.16 -0.00    +0.000 N 
DOCKED: ATOM      2  H   UNL     1      29.294 -16.301   0.996 -0.72 -0.00    +0.000 HD
DOCKED: ENDROOT
DOCKED: BRANCH   1   3
DOCKED: ATOM      3  C   UNL     1      28.836 -15.106  -0.595 -0.19 -0.00    +0.000 C 
DOCKED: BRANCH   3   7
DOCKED: ATOM      4  C   UNL     1      25.246 -17.519  -0.695 -0.60 -0.00    +0.000 A 
DOCKED: ATOM      5  C   UNL     1      25.162 -16.118  -0.728 -0.38 -0.00    +0.000 A 
DOCKED: ATOM      6  C   UNL     1      26.319 -15.334  -0.687 -0.34 -0.00    +0.000 A 
DOCKED: ATOM      7  C   UNL     1      27.583 -15.940  -0.621 -0.31 -0.00    +0.000 A 
DOCKED: ATOM      8  C   UNL     1      27.674 -17.339  -0.609 -0.37 -0.00    +0.000 A 
DOCKED: ATOM      9  C   UNL     1      26.518 -18.124  -0.649 -0.50 -0.00    +0.000 A 
DOCKED: BRANCH   4  11
DOCKED: ATOM     10  C   UNL     1      22.789 -17.769  -1.003 -0.75 -0.00    +0.000 C 
DOCKED: ATOM     11  C   UNL     1      23.991 -18.309  -0.755 -0.80 -0.00    +0.000 C 
DOCKED: BRANCH  10  13
DOCKED: ATOM     12  O   UNL     1      20.579 -18.238  -0.339 -1.99 -0.00    +0.000 OA
DOCKED: ATOM     13  C   UNL     1      21.546 -18.562  -1.079 -0.79 -0.00    +0.000 C 
DOCKED: ATOM     14  N   UNL     1      21.419 -19.701  -1.940 -0.31 -0.00    +0.000 N 
DOCKED: ATOM     15  H   UNL     1      22.201 -20.027  -2.439 -0.58 -0.00    +0.000 HD
DOCKED: BRANCH  14  16
DOCKED: ATOM     16  O   UNL     1      20.226 -20.330  -2.067 -1.45 -0.00    +0.000 OA
DOCKED: ATOM     17  H   UNL     1      19.589 -19.948  -1.442 -0.25 -0.00    +0.000 HD
DOCKED: ENDBRANCH  14  16
DOCKED: ENDBRANCH  10  13
DOCKED: ENDBRANCH   4  11
DOCKED: ENDBRANCH   3   7
DOCKED: ENDBRANCH   1   3
DOCKED: BRANCH   1  18
DOCKED: ATOM     18  C   UNL     1      30.821 -16.506  -0.295 -0.15 -0.00    +0.000 C 
DOCKED: BRANCH  18  19
DOCKED: ATOM     19  C   UNL     1      31.441 -17.542   0.655 -0.11 -0.00    +0.000 C 
DOCKED: BRANCH  19  20
DOCKED: ATOM     20  O   UNL     1      31.915 -16.937   1.828 -0.22 -0.00    +0.000 OA
DOCKED: ATOM     21  H   UNL     1      31.166 -16.725   2.408 -0.21 -0.00    +0.000 HD
DOCKED: ENDBRANCH  19  20
DOCKED: ENDBRANCH  18  19
DOCKED: ENDBRANCH   1  18
DOCKED: BRANCH   1  22
DOCKED: ATOM     22  C   UNL     1      30.355 -14.625   1.275 -0.13 -0.00    +0.000 C 
DOCKED: BRANCH  22  23
DOCKED: ATOM     23  C   UNL     1      29.314 -13.977   2.209 -0.21 -0.00    +0.000 C 
DOCKED: BRANCH  23  24
DOCKED: ATOM     24  C   UNL     1      29.925 -13.689   3.547 -0.21 -0.00    +0.000 A 
DOCKED: ATOM     25  C   UNL     1      31.172 -14.109   4.000 -0.21 -0.00    +0.000 A 
DOCKED: ATOM     26  N   UNL     1      31.359 -13.731   5.284 -0.20 -0.00    +0.000 N 
DOCKED: ATOM     27  C   UNL     1      30.236 -13.089   5.651 -0.24 -0.00    +0.000 A 
DOCKED: ATOM     28  C   UNL     1      29.334 -13.048   4.619 -0.25 -0.00    +0.000 A 
DOCKED: ATOM     29  C   UNL     1      28.079 -12.459   4.762 -0.35 -0.00    +0.000 A 
DOCKED: ATOM     30  C   UNL     1      27.761 -11.889   6.008 -0.22 +0.00    +0.000 A 
DOCKED: ATOM     31  C   UNL     1      28.692 -11.925   7.070 -0.34 +0.00    +0.000 A 
DOCKED: ATOM     32  C   UNL     1      29.947 -12.535   6.897 -0.26 -0.00    +0.000 A 
DOCKED: ATOM     33  H   UNL     1      32.156 -13.893   5.839 -0.01 -0.00    +0.000 HD
DOCKED: ENDBRANCH  23  24
DOCKED: ENDBRANCH  22  23
DOCKED: ENDBRANCH   1  22
DOCKED: TORSDOF 11
DOCKED: TER
DOCKED: ENDMDL
________________________________________________________________________________


	BEGINNING GENETIC ALGORITHM DOCKING 3 of 100
Run: 3 Seed: 494822765 1659682763 [ Run 3 of 100 GA/GALS ]
Beginning LAMARCKIAN GENETIC ALGORITHM (LGA), with a maximum of 2500000 energy evaluations.

Final-Value: -17.287


	FINAL GENETIC ALGORITHM DOCKED STATE
	_______________________________________________


Detailed state:  trans 28.078 -16.688 -0.619 quatxyzw 0.676788 -0.610403 0.406123 -0.066570 center 0.459 0.118 0.005 ntor 11 8.9718 -179.8823 49.2150 37.9255 -105.2568 -161.5678 129.9426 64.3585 113.8976 -137.3606 59.3947
State:	 28.078 -16.688  -0.619   0.678 -0.612  0.407 -172.366      8.97 -179.88   49.21   37.93 -105.26 -161.57  129.94   64.36  113.90 -137.36   59.39

DOCKED: MODEL        3
DOCKED: USER    Run = 3
DOCKED: USER    DPF = ligand_dock.biased.dpf
DOCKED: USER  
DOCKED: USER    Estimated Free Energy of Binding    =  -11.25 kcal/mol  [=(1)+(2)+(3)-(4)]
DOCKED: USER    Estimated Inhibition Constant, Ki   =    5.68 nM (nanomolar)  [Temperature = 298.15 K]
DOCKED: USER    
DOCKED: USER    (1) Final Intermolecular Energy     =  -14.53 kcal/mol
DOCKED: USER        vdW + Hbond + desolv Energy     =  -14.53 kcal/mol
DOCKED: USER        Electrostatic Energy            =   +0.00 kcal/mol
DOCKED: USER    (2) Final Total Internal Energy     =   -2.76 kcal/mol
DOCKED: USER    (3) Torsional Free Energy           =   +3.28 kcal/mol
DOCKED: USER    (4) Unbound System's Energy  [=(2)] =   -2.76 kcal/mol
DOCKED: USER    
DOCKED: USER    
DOCKED: USER    NEWDPF move ligand.pdbqt
DOCKED: USER    NEWDPF about 0.459000 0.118000 0.005000
DOCKED: USER    NEWDPF tran0 28.077612 -16.687736 -0.618844
DOCKED: USER    NEWDPF quaternion0 0.676788 -0.610403 0.406123 -0.066570
DOCKED: USER    NEWDPF axisangle0 0.678292 -0.611760 0.407025 -172.366039
DOCKED: USER    NEWDPF quat0 0.678292 -0.611760 0.407025 -172.366039
DOCKED: USER    NEWDPF dihe0 8.97 -179.88 49.21 37.93 -105.26 -161.57 129.94 64.36 113.90 -137.36 59.39 
DOCKED: USER  keepresnum = 1 
DOCKED: USER  
DOCKED: REMARK  Name = 
DOCKED: REMARK  11 active torsions:
DOCKED: REMARK  status: ('A' for Active; 'I' for Inactive)
DOCKED: REMARK    1  A    between atoms: C_2  and  C_5
DOCKED: REMARK    2  A    between atoms: N_3  and  O_4
DOCKED: REMARK    3  A    between atoms: C_6  and  C_7
DOCKED: REMARK    4  A    between atoms: C_10  and  C_11
DOCKED: REMARK    5  A    between atoms: C_11  and  N_12
DOCKED: REMARK    6  A    between atoms: N_12  and  C_13
DOCKED: REMARK    7  A    between atoms: N_12  and  C_16
DOCKED: REMARK    8  A    between atoms: C_13  and  C_14
DOCKED: REMARK    9  A    between atoms: C_14  and  O_15
DOCKED: REMARK   10  A    between atoms: C_16  and  C_17
DOCKED: REMARK   11  A    between atoms: C_17  and  C_18
DOCKED: REMARK                            x       y       z     vdW  Elec       q    Type
DOCKED: REMARK                         _______ _______ _______ _____ _____    ______ ____
DOCKED: USER                              x       y       z     vdW  Elec       q    Type
DOCKED: USER                           _______ _______ _______ _____ _____    ______ ____
DOCKED: ROOT
DOCKED: ATOM      1  N   UNL     1      29.227 -15.681  -0.715 -0.17 -0.00    +0.000 N 
DOCKED: ATOM      2  H   UNL     1      28.698 -15.679   0.157 -0.11 -0.00    +0.000 HD
DOCKED: ENDROOT
DOCKED: BRANCH   1   3
DOCKED: ATOM      3  C   UNL     1      28.722 -16.788  -1.557 -0.31 -0.00    +0.000 C 
DOCKED: BRANCH   3   7
DOCKED: ATOM      4  C   UNL     1      24.633 -17.732  -0.503 -0.63 -0.00    +0.000 A 
DOCKED: ATOM      5  C   UNL     1      24.932 -17.151  -1.746 -0.58 -0.00    +0.000 A 
DOCKED: ATOM      6  C   UNL     1      26.250 -16.836  -2.087 -0.37 -0.00    +0.000 A 
DOCKED: ATOM      7  C   UNL     1      27.296 -17.106  -1.192 -0.41 -0.00    +0.000 A 
DOCKED: ATOM      8  C   UNL     1      27.007 -17.705   0.042 -0.38 -0.00    +0.000 A 
DOCKED: ATOM      9  C   UNL     1      25.690 -18.020   0.385 -0.33 -0.00    +0.000 A 
DOCKED: BRANCH   4  11
DOCKED: ATOM     10  C   UNL     1      22.371 -18.590  -1.083 -0.82 -0.00    +0.000 C 
DOCKED: ATOM     11  C   UNL     1      23.221 -18.061  -0.191 -0.77 -0.00    +0.000 C 
DOCKED: BRANCH  10  13
DOCKED: ATOM     12  O   UNL     1      20.074 -18.076  -0.990 -1.98 -0.00    +0.000 OA
DOCKED: ATOM     13  C   UNL     1      20.971 -18.932  -0.762 -0.88 -0.00    +0.000 C 
DOCKED: ATOM     14  N   UNL     1      20.606 -20.187  -0.172 -0.69 -0.00    +0.000 N 
DOCKED: ATOM     15  H   UNL     1      21.308 -20.817   0.110 -0.41 -0.00    +0.000 HD
DOCKED: BRANCH  14  16
DOCKED: ATOM     16  O   UNL     1      19.302 -20.508  -0.002 -0.82 -0.00    +0.000 OA
DOCKED: ATOM     17  H   UNL     1      18.745 -19.855  -0.455 -0.14 -0.00    +0.000 HD
DOCKED: ENDBRANCH  14  16
DOCKED: ENDBRANCH  10  13
DOCKED: ENDBRANCH   4  11
DOCKED: ENDBRANCH   3   7
DOCKED: ENDBRANCH   1   3
DOCKED: BRANCH   1  18
DOCKED: ATOM     18  C   UNL     1      30.638 -15.901  -0.319 -0.14 -0.00    +0.000 C 
DOCKED: BRANCH  18  19
DOCKED: ATOM     19  C   UNL     1      30.839 -15.798   1.201 +0.04 -0.00    +0.000 C 
DOCKED: BRANCH  19  20
DOCKED: ATOM     20  O   UNL     1      29.999 -14.824   1.760 -0.19 -0.00    +0.000 OA
DOCKED: ATOM     21  H   UNL     1      29.407 -15.240   2.407 -1.88 -0.00    +0.000 HD
DOCKED: ENDBRANCH  19  20
DOCKED: ENDBRANCH  18  19
DOCKED: ENDBRANCH   1  18
DOCKED: BRANCH   1  22
DOCKED: ATOM     22  C   UNL     1      28.960 -14.354  -1.322 -0.11 -0.00    +0.000 C 
DOCKED: BRANCH  22  23
DOCKED: ATOM     23  C   UNL     1      27.519 -14.175  -1.840 -0.21 -0.00    +0.000 C 
DOCKED: BRANCH  23  24
DOCKED: ATOM     24  C   UNL     1      27.533 -13.796  -3.291 -0.19 -0.00    +0.000 A 
DOCKED: ATOM     25  C   UNL     1      26.743 -12.830  -3.905 -0.25 -0.00    +0.000 A 
DOCKED: ATOM     26  N   UNL     1      26.967 -12.814  -5.238 -0.25 -0.00    +0.000 N 
DOCKED: ATOM     27  C   UNL     1      27.882 -13.771  -5.472 -0.27 -0.00    +0.000 A 
DOCKED: ATOM     28  C   UNL     1      28.247 -14.398  -4.309 -0.22 -0.00    +0.000 A 
DOCKED: ATOM     29  C   UNL     1      29.163 -15.449  -4.295 -0.22 -0.00    +0.000 A 
DOCKED: ATOM     30  C   UNL     1      29.720 -15.848  -5.523 -0.28 -0.00    +0.000 A 
DOCKED: ATOM     31  C   UNL     1      29.349 -15.199  -6.723 -0.28 -0.00    +0.000 A 
DOCKED: ATOM     32  C   UNL     1      28.416 -14.148  -6.705 -0.25 -0.00    +0.000 A 
DOCKED: ATOM     33  H   UNL     1      26.548 -12.221  -5.903 -0.01 -0.00    +0.000 HD
DOCKED: ENDBRANCH  23  24
DOCKED: ENDBRANCH  22  23
DOCKED: ENDBRANCH   1  22
DOCKED: TORSDOF 11
DOCKED: TER
DOCKED: ENDMDL
________________________________________________________________________________


	BEGINNING GENETIC ALGORITHM DOCKING 4 of 100
Run: 4 Seed: 1022626052 219426 [ Run 4 of 100 GA/GALS ]
Beginning LAMARCKIAN GENETIC ALGORITHM (LGA), with a maximum of 2500000 energy evaluations.

Final-Value: -19.284


	FINAL GENETIC ALGORITHM DOCKED STATE
	_______________________________________________


Detailed state:  trans 28.364 -16.162 0.613 quatxyzw 0.731810 -0.592499 0.321344 0.100682 center 0.459 0.118 0.005 ntor 11 5.7242 12.2450 161.2324 -1.9122 174.2563 -22.5712 -178.3079 -119.7932 176.8707 180.0000 77.0619
State:	 28.364 -16.162   0.613   0.736 -0.596  0.323 168.443      5.72   12.25  161.23   -1.91  174.26  -22.57 -178.31 -119.79  176.87  180.00   77.06

DOCKED: MODEL        4
DOCKED: USER    Run = 4
DOCKED: USER    DPF = ligand_dock.biased.dpf
DOCKED: USER  
DOCKED: USER    Estimated Free Energy of Binding    =  -13.41 kcal/mol  [=(1)+(2)+(3)-(4)]
DOCKED: USER    Estimated Inhibition Constant, Ki   =  148.03 pM (picomolar)  [Temperature = 298.15 K]
DOCKED: USER    
DOCKED: USER    (1) Final Intermolecular Energy     =  -16.69 kcal/mol
DOCKED: USER        vdW + Hbond + desolv Energy     =  -16.69 kcal/mol
DOCKED: USER        Electrostatic Energy            =   +0.00 kcal/mol
DOCKED: USER    (2) Final Total Internal Energy     =   -2.59 kcal/mol
DOCKED: USER    (3) Torsional Free Energy           =   +3.28 kcal/mol
DOCKED: USER    (4) Unbound System's Energy  [=(2)] =   -2.59 kcal/mol
DOCKED: USER    
DOCKED: USER    
DOCKED: USER    NEWDPF move ligand.pdbqt
DOCKED: USER    NEWDPF about 0.459000 0.118000 0.005000
DOCKED: USER    NEWDPF tran0 28.364233 -16.162108 0.612642
DOCKED: USER    NEWDPF quaternion0 0.731810 -0.592499 0.321344 0.100682
DOCKED: USER    NEWDPF axisangle0 0.735548 -0.595525 0.322985 168.443140
DOCKED: USER    NEWDPF quat0 0.735548 -0.595525 0.322985 168.443140
DOCKED: USER    NEWDPF dihe0 5.72 12.25 161.23 -1.91 174.26 -22.57 -178.31 -119.79 176.87 180.00 77.06 
DOCKED: USER  keepresnum = 1 
DOCKED: USER  
DOCKED: REMARK  Name = 
DOCKED: REMARK  11 active torsions:
DOCKED: REMARK  status: ('A' for Active; 'I' for Inactive)
DOCKED: REMARK    1  A    between atoms: C_2  and  C_5
DOCKED: REMARK    2  A    between atoms: N_3  and  O_4
DOCKED: REMARK    3  A    between atoms: C_6  and  C_7
DOCKED: REMARK    4  A    between atoms: C_10  and  C_11
DOCKED: REMARK    5  A    between atoms: C_11  and  N_12
DOCKED: REMARK    6  A    between atoms: N_12  and  C_13
DOCKED: REMARK    7  A    between atoms: N_12  and  C_16
DOCKED: REMARK    8  A    between atoms: C_13  and  C_14
DOCKED: REMARK    9  A    between atoms: C_14  and  O_15
DOCKED: REMARK   10  A    between atoms: C_16  and  C_17
DOCKED: REMARK   11  A    between atoms: C_17  and  C_18
DOCKED: REMARK                            x       y       z     vdW  Elec       q    Type
DOCKED: REMARK                         _______ _______ _______ _____ _____    ______ ____
DOCKED: USER                              x       y       z     vdW  Elec       q    Type
DOCKED: USER                           _______ _______ _______ _____ _____    ______ ____
DOCKED: ROOT
DOCKED: ATOM      1  N   UNL     1      29.266 -14.965   0.923 -0.15 -0.00    +0.000 N 
DOCKED: ATOM      2  H   UNL     1      28.744 -15.351   1.710 -1.29 -0.00    +0.000 HD
DOCKED: ENDROOT
DOCKED: BRANCH   1   3
DOCKED: ATOM      3  C   UNL     1      29.021 -15.821  -0.258 -0.22 -0.00    +0.000 C 
DOCKED: BRANCH   3   7
DOCKED: ATOM      4  C   UNL     1      24.832 -16.869  -0.525 -0.41 -0.00    +0.000 A 
DOCKED: ATOM      5  C   UNL     1      25.250 -15.547  -0.747 -0.20 -0.00    +0.000 A 
DOCKED: ATOM      6  C   UNL     1      26.602 -15.202  -0.653 -0.32 -0.00    +0.000 A 
DOCKED: ATOM      7  C   UNL     1      27.561 -16.178  -0.343 -0.33 -0.00    +0.000 A 
DOCKED: ATOM      8  C   UNL     1      27.152 -17.503  -0.142 -0.38 -0.00    +0.000 A 
DOCKED: ATOM      9  C   UNL     1      25.801 -17.849  -0.234 -0.58 -0.00    +0.000 A 
DOCKED: BRANCH   4  11
DOCKED: ATOM     10  C   UNL     1      22.885 -18.418  -0.465 -0.83 -0.00    +0.000 C 
DOCKED: ATOM     11  C   UNL     1      23.388 -17.189  -0.649 -0.70 -0.00    +0.000 C 
DOCKED: BRANCH  10  13
DOCKED: ATOM     12  O   UNL     1      20.681 -17.866  -1.080 -2.20 -0.00    +0.000 OA
DOCKED: ATOM     13  C   UNL     1      21.446 -18.727  -0.571 -0.86 -0.00    +0.000 C 
DOCKED: ATOM     14  N   UNL     1      20.890 -19.957  -0.086 -0.69 -0.00    +0.000 N 
DOCKED: ATOM     15  H   UNL     1      21.459 -20.589   0.410 -0.59 -0.00    +0.000 HD
DOCKED: BRANCH  14  16
DOCKED: ATOM     16  O   UNL     1      19.587 -20.252  -0.308 -0.91 -0.00    +0.000 OA
DOCKED: ATOM     17  H   UNL     1      19.195 -19.576  -0.884 -0.17 -0.00    +0.000 HD
DOCKED: ENDBRANCH  14  16
DOCKED: ENDBRANCH  10  13
DOCKED: ENDBRANCH   4  11
DOCKED: ENDBRANCH   3   7
DOCKED: ENDBRANCH   1   3
DOCKED: BRANCH   1  18
DOCKED: ATOM     18  C   UNL     1      30.688 -15.007   1.338 -0.12 -0.00    +0.000 C 
DOCKED: BRANCH  18  19
DOCKED: ATOM     19  C   UNL     1      30.908 -14.395   2.730 -0.19 -0.00    +0.000 C 
DOCKED: BRANCH  19  20
DOCKED: ATOM     20  O   UNL     1      30.500 -15.277   3.742 -0.37 -0.00    +0.000 OA
DOCKED: ATOM     21  H   UNL     1      29.614 -15.616   3.537 -1.25 -0.00    +0.000 HD
DOCKED: ENDBRANCH  19  20
DOCKED: ENDBRANCH  18  19
DOCKED: ENDBRANCH   1  18
DOCKED: BRANCH   1  22
DOCKED: ATOM     22  C   UNL     1      28.719 -13.598   0.742 -0.16 -0.00    +0.000 C 
DOCKED: BRANCH  22  23
DOCKED: ATOM     23  C   UNL     1      27.494 -13.286   1.623 -0.29 -0.00    +0.000 C 
DOCKED: BRANCH  23  24
DOCKED: ATOM     24  C   UNL     1      27.791 -13.606   3.057 -0.33 -0.00    +0.000 A 
DOCKED: ATOM     25  C   UNL     1      27.661 -14.845   3.676 -0.14 -0.00    +0.000 A 
DOCKED: ATOM     26  N   UNL     1      27.941 -14.745   4.995 -0.59 -0.00    +0.000 N 
DOCKED: ATOM     27  C   UNL     1      28.233 -13.452   5.216 -0.45 -0.00    +0.000 A 
DOCKED: ATOM     28  C   UNL     1      28.146 -12.723   4.058 -0.31 -0.00    +0.000 A 
DOCKED: ATOM     29  C   UNL     1      28.376 -11.348   4.034 -0.22 +0.00    +0.000 A 
DOCKED: ATOM     30  C   UNL     1      28.715 -10.720   5.246 -0.25 +0.00    +0.000 A 
DOCKED: ATOM     31  C   UNL     1      28.811 -11.470   6.440 -0.31 +0.00    +0.000 A 
DOCKED: ATOM     32  C   UNL     1      28.565 -12.855   6.433 -0.38 -0.00    +0.000 A 
DOCKED: ATOM     33  H   UNL     1      27.933 -15.472   5.659 -0.49 -0.00    +0.000 HD
DOCKED: ENDBRANCH  23  24
DOCKED: ENDBRANCH  22  23
DOCKED: ENDBRANCH   1  22
DOCKED: TORSDOF 11
DOCKED: TER
DOCKED: ENDMDL
________________________________________________________________________________


	BEGINNING GENETIC ALGORITHM DOCKING 5 of 100
Run: 5 Seed: 1274672586 2024529600 [ Run 5 of 100 GA/GALS ]
Beginning LAMARCKIAN GENETIC ALGORITHM (LGA), with a maximum of 2500000 energy evaluations.

Final-Value: -15.349


	FINAL GENETIC ALGORITHM DOCKED STATE
	_______________________________________________


Detailed state:  trans 28.936 -17.070 -1.121 quatxyzw 0.200816 -0.584866 -0.771724 0.148483 center 0.459 0.118 0.005 ntor 11 -16.4633 178.9443 45.4334 52.4661 27.3006 -114.2038 -62.8378 -90.5302 -177.2569 -176.5064 14.5409
State:	 28.936 -17.070  -1.121   0.203 -0.591 -0.780 162.922    -16.46  178.94   45.43   52.47   27.30 -114.20  -62.84  -90.53 -177.26 -176.51   14.54

DOCKED: MODEL        5
DOCKED: USER    Run = 5
DOCKED: USER    DPF = ligand_dock.biased.dpf
DOCKED: USER  
DOCKED: USER    Estimated Free Energy of Binding    =   -8.77 kcal/mol  [=(1)+(2)+(3)-(4)]
DOCKED: USER    Estimated Inhibition Constant, Ki   =  373.86 nM (nanomolar)  [Temperature = 298.15 K]
DOCKED: USER    
DOCKED: USER    (1) Final Intermolecular Energy     =  -12.05 kcal/mol
DOCKED: USER        vdW + Hbond + desolv Energy     =  -12.05 kcal/mol
DOCKED: USER        Electrostatic Energy            =   +0.00 kcal/mol
DOCKED: USER    (2) Final Total Internal Energy     =   -3.30 kcal/mol
DOCKED: USER    (3) Torsional Free Energy           =   +3.28 kcal/mol
DOCKED: USER    (4) Unbound System's Energy  [=(2)] =   -3.30 kcal/mol
DOCKED: USER    
DOCKED: USER    
DOCKED: USER    NEWDPF move ligand.pdbqt
DOCKED: USER    NEWDPF about 0.459000 0.118000 0.005000
DOCKED: USER    NEWDPF tran0 28.936426 -17.069610 -1.120620
DOCKED: USER    NEWDPF quaternion0 0.200816 -0.584866 -0.771724 0.148483
DOCKED: USER    NEWDPF axisangle0 0.203067 -0.591422 -0.780374 162.922001
DOCKED: USER    NEWDPF quat0 0.203067 -0.591422 -0.780374 162.922001
DOCKED: USER    NEWDPF dihe0 -16.46 178.94 45.43 52.47 27.30 -114.20 -62.84 -90.53 -177.26 -176.51 14.54 
DOCKED: USER  keepresnum = 1 
DOCKED: USER  
DOCKED: REMARK  Name = 
DOCKED: REMARK  11 active torsions:
DOCKED: REMARK  status: ('A' for Active; 'I' for Inactive)
DOCKED: REMARK    1  A    between atoms: C_2  and  C_5
DOCKED: REMARK    2  A    between atoms: N_3  and  O_4
DOCKED: REMARK    3  A    between atoms: C_6  and  C_7
DOCKED: REMARK    4  A    between atoms: C_10  and  C_11
DOCKED: REMARK    5  A    between atoms: C_11  and  N_12
DOCKED: REMARK    6  A    between atoms: N_12  and  C_13
DOCKED: REMARK    7  A    between atoms: N_12  and  C_16
DOCKED: REMARK    8  A    between atoms: C_13  and  C_14
DOCKED: REMARK    9  A    between atoms: C_14  and  O_15
DOCKED: REMARK   10  A    between atoms: C_16  and  C_17
DOCKED: REMARK   11  A    between atoms: C_17  and  C_18
DOCKED: REMARK                            x       y       z     vdW  Elec       q    Type
DOCKED: REMARK                         _______ _______ _______ _____ _____    ______ ____
DOCKED: USER                              x       y       z     vdW  Elec       q    Type
DOCKED: USER                           _______ _______ _______ _____ _____    ______ ____
DOCKED: ROOT
DOCKED: ATOM      1  N   UNL     1      30.310 -16.721  -1.699 -0.15 -0.00    +0.000 N 
DOCKED: ATOM      2  H   UNL     1      29.856 -17.550  -2.085 -0.02 -0.00    +0.000 HD
DOCKED: ENDROOT
DOCKED: BRANCH   1   3
DOCKED: ATOM      3  C   UNL     1      29.371 -16.078  -0.754 -0.21 -0.00    +0.000 C 
DOCKED: BRANCH   3   7
DOCKED: ATOM      4  C   UNL     1      25.322 -17.405  -1.508 -0.57 -0.00    +0.000 A 
DOCKED: ATOM      5  C   UNL     1      26.256 -18.271  -0.917 -0.35 -0.00    +0.000 A 
DOCKED: ATOM      6  C   UNL     1      27.568 -17.849  -0.680 -0.33 -0.00    +0.000 A 
DOCKED: ATOM      7  C   UNL     1      27.965 -16.548  -1.022 -0.33 -0.00    +0.000 A 
DOCKED: ATOM      8  C   UNL     1      27.032 -15.672  -1.593 -0.32 -0.00    +0.000 A 
DOCKED: ATOM      9  C   UNL     1      25.721 -16.093  -1.831 -0.48 -0.00    +0.000 A 
DOCKED: BRANCH   4  11
DOCKED: ATOM     10  C   UNL     1      22.966 -17.796  -0.809 -0.79 -0.00    +0.000 C 
DOCKED: ATOM     11  C   UNL     1      23.938 -17.893  -1.728 -0.66 -0.00    +0.000 C 
DOCKED: BRANCH  10  13
DOCKED: ATOM     12  O   UNL     1      20.630 -17.517  -0.707 -2.10 +0.00    +0.000 OA
DOCKED: ATOM     13  C   UNL     1      21.586 -18.267  -1.040 -0.73 -0.00    +0.000 C 
DOCKED: ATOM     14  N   UNL     1      21.302 -19.557  -1.599 -0.65 -0.00    +0.000 N 
DOCKED: ATOM     15  H   UNL     1      22.035 -20.193  -1.761 -0.44 -0.00    +0.000 HD
DOCKED: BRANCH  14  16
DOCKED: ATOM     16  O   UNL     1      20.028 -19.904  -1.903 -1.83 -0.00    +0.000 OA
DOCKED: ATOM     17  H   UNL     1      19.413 -19.300  -1.458 -0.29 -0.00    +0.000 HD
DOCKED: ENDBRANCH  14  16
DOCKED: ENDBRANCH  10  13
DOCKED: ENDBRANCH   4  11
DOCKED: ENDBRANCH   3   7
DOCKED: ENDBRANCH   1   3
DOCKED: BRANCH   1  18
DOCKED: ATOM     18  C   UNL     1      30.589 -15.848  -2.864 -0.11 -0.00    +0.000 C 
DOCKED: BRANCH  18  19
DOCKED: ATOM     19  C   UNL     1      30.017 -16.420  -4.171 -0.23 -0.00    +0.000 C 
DOCKED: BRANCH  19  20
DOCKED: ATOM     20  O   UNL     1      30.173 -17.813  -4.227 -0.31 -0.00    +0.000 OA
DOCKED: ATOM     21  H   UNL     1      29.299 -18.234  -4.271 -0.03 -0.00    +0.000 HD
DOCKED: ENDBRANCH  19  20
DOCKED: ENDBRANCH  18  19
DOCKED: ENDBRANCH   1  18
DOCKED: BRANCH   1  22
DOCKED: ATOM     22  C   UNL     1      31.521 -17.238  -1.015 -0.13 -0.00    +0.000 C 
DOCKED: BRANCH  22  23
DOCKED: ATOM     23  C   UNL     1      31.677 -18.769  -1.078 -0.16 -0.00    +0.000 C 
DOCKED: BRANCH  23  24
DOCKED: ATOM     24  C   UNL     1      32.264 -19.178  -2.396 -0.09 -0.00    +0.000 A 
DOCKED: ATOM     25  C   UNL     1      33.137 -18.434  -3.184 -0.04 -0.00    +0.000 A 
DOCKED: ATOM     26  N   UNL     1      33.396 -19.082  -4.341 -0.04 -0.00    +0.000 N 
DOCKED: ATOM     27  C   UNL     1      32.684 -20.221  -4.298 -0.08 -0.00    +0.000 A 
DOCKED: ATOM     28  C   UNL     1      31.974 -20.313  -3.128 -0.12 -0.00    +0.000 A 
DOCKED: ATOM     29  C   UNL     1      31.134 -21.393  -2.859 -0.03 -0.00    +0.000 A 
DOCKED: ATOM     30  C   UNL     1      31.041 -22.407  -3.829 -0.20 -0.00    +0.000 A 
DOCKED: ATOM     31  C   UNL     1      31.776 -22.317  -5.032 -0.16 -0.00    +0.000 A 
DOCKED: ATOM     32  C   UNL     1      32.608 -21.210  -5.278 -0.09 -0.00    +0.000 A 
DOCKED: ATOM     33  H   UNL     1      33.987 -18.781  -5.069 +0.00 -0.00    +0.000 HD
DOCKED: ENDBRANCH  23  24
DOCKED: ENDBRANCH  22  23
DOCKED: ENDBRANCH   1  22
DOCKED: TORSDOF 11
DOCKED: TER
DOCKED: ENDMDL
________________________________________________________________________________


	BEGINNING GENETIC ALGORITHM DOCKING 6 of 100
Run: 6 Seed: 1754009748 1457046634 [ Run 6 of 100 GA/GALS ]
Beginning LAMARCKIAN GENETIC ALGORITHM (LGA), with a maximum of 2500000 energy evaluations.

Final-Value: -15.935


	FINAL GENETIC ALGORITHM DOCKED STATE
	_______________________________________________


Detailed state:  trans 28.423 -15.565 -2.520 quatxyzw -0.277089 -0.584170 0.758280 -0.083533 center 0.459 0.118 0.005 ntor 11 -8.4772 15.1252 -8.5270 4.1916 -90.1643 42.5960 -12.1960 -53.2700 39.5470 21.6733 -70.8906
State:	 28.423 -15.565  -2.520  -0.278 -0.586  0.761 -170.417     -8.48   15.13   -8.53    4.19  -90.16   42.60  -12.20  -53.27   39.55   21.67  -70.89

DOCKED: MODEL        6
DOCKED: USER    Run = 6
DOCKED: USER    DPF = ligand_dock.biased.dpf
DOCKED: USER  
DOCKED: USER    Estimated Free Energy of Binding    =  -10.53 kcal/mol  [=(1)+(2)+(3)-(4)]
DOCKED: USER    Estimated Inhibition Constant, Ki   =   19.02 nM (nanomolar)  [Temperature = 298.15 K]
DOCKED: USER    
DOCKED: USER    (1) Final Intermolecular Energy     =  -13.81 kcal/mol
DOCKED: USER        vdW + Hbond + desolv Energy     =  -13.81 kcal/mol
DOCKED: USER        Electrostatic Energy            =   +0.00 kcal/mol
DOCKED: USER    (2) Final Total Internal Energy     =   -2.12 kcal/mol
DOCKED: USER    (3) Torsional Free Energy           =   +3.28 kcal/mol
DOCKED: USER    (4) Unbound System's Energy  [=(2)] =   -2.12 kcal/mol
DOCKED: USER    
DOCKED: USER    
DOCKED: USER    NEWDPF move ligand.pdbqt
DOCKED: USER    NEWDPF about 0.459000 0.118000 0.005000
DOCKED: USER    NEWDPF tran0 28.422971 -15.564712 -2.519567
DOCKED: USER    NEWDPF quaternion0 -0.277089 -0.584170 0.758280 -0.083533
DOCKED: USER    NEWDPF axisangle0 -0.278061 -0.586219 0.760940 -170.416631
DOCKED: USER    NEWDPF quat0 -0.278061 -0.586219 0.760940 -170.416631
DOCKED: USER    NEWDPF dihe0 -8.48 15.13 -8.53 4.19 -90.16 42.60 -12.20 -53.27 39.55 21.67 -70.89 
DOCKED: USER  keepresnum = 1 
DOCKED: USER  
DOCKED: REMARK  Name = 
DOCKED: REMARK  11 active torsions:
DOCKED: REMARK  status: ('A' for Active; 'I' for Inactive)
DOCKED: REMARK    1  A    between atoms: C_2  and  C_5
DOCKED: REMARK    2  A    between atoms: N_3  and  O_4
DOCKED: REMARK    3  A    between atoms: C_6  and  C_7
DOCKED: REMARK    4  A    between atoms: C_10  and  C_11
DOCKED: REMARK    5  A    between atoms: C_11  and  N_12
DOCKED: REMARK    6  A    between atoms: N_12  and  C_13
DOCKED: REMARK    7  A    between atoms: N_12  and  C_16
DOCKED: REMARK    8  A    between atoms: C_13  and  C_14
DOCKED: REMARK    9  A    between atoms: C_14  and  O_15
DOCKED: REMARK   10  A    between atoms: C_16  and  C_17
DOCKED: REMARK   11  A    between atoms: C_17  and  C_18
DOCKED: REMARK                            x       y       z     vdW  Elec       q    Type
DOCKED: REMARK                         _______ _______ _______ _____ _____    ______ ____
DOCKED: USER                              x       y       z     vdW  Elec       q    Type
DOCKED: USER                           _______ _______ _______ _____ _____    ______ ____
DOCKED: ROOT
DOCKED: ATOM      1  N   UNL     1      28.946 -15.621  -1.082 -0.17 -0.00    +0.000 N 
DOCKED: ATOM      2  H   UNL     1      28.906 -14.696  -1.511 +0.01 -0.00    +0.000 HD
DOCKED: ENDROOT
DOCKED: BRANCH   1   3
DOCKED: ATOM      3  C   UNL     1      28.352 -16.593  -2.026 -0.31 -0.00    +0.000 C 
DOCKED: BRANCH   3   7
DOCKED: ATOM      4  C   UNL     1      24.393 -17.704  -0.678 -0.66 -0.00    +0.000 A 
DOCKED: ATOM      5  C   UNL     1      25.519 -18.427  -0.252 -0.56 -0.00    +0.000 A 
DOCKED: ATOM      6  C   UNL     1      26.799 -18.077  -0.692 -0.44 -0.00    +0.000 A 
DOCKED: ATOM      7  C   UNL     1      26.976 -16.990  -1.561 -0.38 -0.00    +0.000 A 
DOCKED: ATOM      8  C   UNL     1      25.858 -16.251  -1.973 -0.47 -0.00    +0.000 A 
DOCKED: ATOM      9  C   UNL     1      24.578 -16.600  -1.535 -0.53 -0.00    +0.000 A 
DOCKED: BRANCH   4  11
DOCKED: ATOM     10  C   UNL     1      22.083 -18.584  -0.962 -0.83 -0.00    +0.000 C 
DOCKED: ATOM     11  C   UNL     1      23.057 -18.105  -0.174 -0.78 -0.00    +0.000 C 
DOCKED: BRANCH  10  13
DOCKED: ATOM     12  O   UNL     1      19.762 -18.278  -0.713 -1.75 -0.00    +0.000 OA
DOCKED: ATOM     13  C   UNL     1      20.761 -18.999  -0.452 -0.86 -0.00    +0.000 C 
DOCKED: ATOM     14  N   UNL     1      20.586 -20.173   0.353 -0.67 -0.00    +0.000 N 
DOCKED: ATOM     15  H   UNL     1      21.373 -20.682   0.653 -0.60 -0.00    +0.000 HD
DOCKED: BRANCH  14  16
DOCKED: ATOM     16  O   UNL     1      19.344 -20.583   0.702 -0.77 -0.00    +0.000 OA
DOCKED: ATOM     17  H   UNL     1      18.696 -19.908   0.443 -0.02 -0.00    +0.000 HD
DOCKED: ENDBRANCH  14  16
DOCKED: ENDBRANCH  10  13
DOCKED: ENDBRANCH   4  11
DOCKED: ENDBRANCH   3   7
DOCKED: ENDBRANCH   1   3
DOCKED: BRANCH   1  18
DOCKED: ATOM     18  C   UNL     1      28.145 -15.513   0.161 -0.27 -0.00    +0.000 C 
DOCKED: BRANCH  18  19
DOCKED: ATOM     19  C   UNL     1      28.441 -14.219   0.935 -0.22 -0.00    +0.000 C 
DOCKED: BRANCH  19  20
DOCKED: ATOM     20  O   UNL     1      29.439 -14.422   1.900 -0.22 -0.00    +0.000 OA
DOCKED: ATOM     21  H   UNL     1      29.255 -15.240   2.387 -1.97 -0.00    +0.000 HD
DOCKED: ENDBRANCH  19  20
DOCKED: ENDBRANCH  18  19
DOCKED: ENDBRANCH   1  18
DOCKED: BRANCH   1  22
DOCKED: ATOM     22  C   UNL     1      30.391 -15.872  -0.861 -0.14 -0.00    +0.000 C 
DOCKED: BRANCH  22  23
DOCKED: ATOM     23  C   UNL     1      30.813 -17.341  -1.058 -0.18 -0.00    +0.000 C 
DOCKED: BRANCH  23  24
DOCKED: ATOM     24  C   UNL     1      31.809 -17.450  -2.173 -0.08 -0.00    +0.000 A 
DOCKED: ATOM     25  C   UNL     1      33.173 -17.190  -2.098 -0.02 -0.00    +0.000 A 
DOCKED: ATOM     26  N   UNL     1      33.745 -17.316  -3.317 -0.02 -0.00    +0.000 N 
DOCKED: ATOM     27  C   UNL     1      32.751 -17.639  -4.163 -0.04 -0.00    +0.000 A 
DOCKED: ATOM     28  C   UNL     1      31.552 -17.724  -3.503 -0.12 -0.00    +0.000 A 
DOCKED: ATOM     29  C   UNL     1      30.364 -18.019  -4.170 -0.18 -0.00    +0.000 A 
DOCKED: ATOM     30  C   UNL     1      30.430 -18.240  -5.557 -0.31 -0.00    +0.000 A 
DOCKED: ATOM     31  C   UNL     1      31.666 -18.158  -6.238 -0.18 -0.00    +0.000 A 
DOCKED: ATOM     32  C   UNL     1      32.846 -17.851  -5.538 -0.05 -0.00    +0.000 A 
DOCKED: ATOM     33  H   UNL     1      34.697 -17.196  -3.540 +0.00 -0.00    +0.000 HD
DOCKED: ENDBRANCH  23  24
DOCKED: ENDBRANCH  22  23
DOCKED: ENDBRANCH   1  22
DOCKED: TORSDOF 11
DOCKED: TER
DOCKED: ENDMDL
________________________________________________________________________________


	BEGINNING GENETIC ALGORITHM DOCKING 7 of 100
Run: 7 Seed: 374018085 1108131708 [ Run 7 of 100 GA/GALS ]
Beginning LAMARCKIAN GENETIC ALGORITHM (LGA), with a maximum of 2500000 energy evaluations.

Final-Value: -19.471


	FINAL GENETIC ALGORITHM DOCKED STATE
	_______________________________________________


Detailed state:  trans 28.606 -16.279 0.245 quatxyzw 0.666846 -0.615754 0.409702 0.091148 center 0.459 0.118 0.005 ntor 11 8.3416 84.0888 106.8594 7.5657 95.3600 -35.7719 165.5053 -100.1692 161.6866 -141.5866 72.2649
State:	 28.606 -16.279   0.245   0.670 -0.618  0.411 169.541      8.34   84.09  106.86    7.57   95.36  -35.77  165.51 -100.17  161.69 -141.59   72.26

DOCKED: MODEL        7
DOCKED: USER    Run = 7
DOCKED: USER    DPF = ligand_dock.biased.dpf
DOCKED: USER  
DOCKED: USER    Estimated Free Energy of Binding    =  -12.92 kcal/mol  [=(1)+(2)+(3)-(4)]
DOCKED: USER    Estimated Inhibition Constant, Ki   =  340.91 pM (picomolar)  [Temperature = 298.15 K]
DOCKED: USER    
DOCKED: USER    (1) Final Intermolecular Energy     =  -16.20 kcal/mol
DOCKED: USER        vdW + Hbond + desolv Energy     =  -16.20 kcal/mol
DOCKED: USER        Electrostatic Energy            =   +0.00 kcal/mol
DOCKED: USER    (2) Final Total Internal Energy     =   -3.27 kcal/mol
DOCKED: USER    (3) Torsional Free Energy           =   +3.28 kcal/mol
DOCKED: USER    (4) Unbound System's Energy  [=(2)] =   -3.27 kcal/mol
DOCKED: USER    
DOCKED: USER    
DOCKED: USER    NEWDPF move ligand.pdbqt
DOCKED: USER    NEWDPF about 0.459000 0.118000 0.005000
DOCKED: USER    NEWDPF tran0 28.606023 -16.279135 0.244714
DOCKED: USER    NEWDPF quaternion0 0.666846 -0.615754 0.409702 0.091148
DOCKED: USER    NEWDPF axisangle0 0.669633 -0.618328 0.411415 169.540656
DOCKED: USER    NEWDPF quat0 0.669633 -0.618328 0.411415 169.540656
DOCKED: USER    NEWDPF dihe0 8.34 84.09 106.86 7.57 95.36 -35.77 165.51 -100.17 161.69 -141.59 72.26 
DOCKED: USER  keepresnum = 1 
DOCKED: USER  
DOCKED: REMARK  Name = 
DOCKED: REMARK  11 active torsions:
DOCKED: REMARK  status: ('A' for Active; 'I' for Inactive)
DOCKED: REMARK    1  A    between atoms: C_2  and  C_5
DOCKED: REMARK    2  A    between atoms: N_3  and  O_4
DOCKED: REMARK    3  A    between atoms: C_6  and  C_7
DOCKED: REMARK    4  A    between atoms: C_10  and  C_11
DOCKED: REMARK    5  A    between atoms: C_11  and  N_12
DOCKED: REMARK    6  A    between atoms: N_12  and  C_13
DOCKED: REMARK    7  A    between atoms: N_12  and  C_16
DOCKED: REMARK    8  A    between atoms: C_13  and  C_14
DOCKED: REMARK    9  A    between atoms: C_14  and  O_15
DOCKED: REMARK   10  A    between atoms: C_16  and  C_17
DOCKED: REMARK   11  A    between atoms: C_17  and  C_18
DOCKED: REMARK                            x       y       z     vdW  Elec       q    Type
DOCKED: REMARK                         _______ _______ _______ _____ _____    ______ ____
DOCKED: USER                              x       y       z     vdW  Elec       q    Type
DOCKED: USER                           _______ _______ _______ _____ _____    ______ ____
DOCKED: ROOT
DOCKED: ATOM      1  N   UNL     1      29.612 -15.181   0.600 -0.16 -0.00    +0.000 N 
DOCKED: ATOM      2  H   UNL     1      28.929 -15.417   1.320 -0.96 -0.00    +0.000 HD
DOCKED: ENDROOT
DOCKED: BRANCH   1   3
DOCKED: ATOM      3  C   UNL     1      29.426 -16.114  -0.534 -0.21 -0.00    +0.000 C 
DOCKED: BRANCH   3   7
DOCKED: ATOM      4  C   UNL     1      25.218 -16.911  -1.150 -0.56 -0.00    +0.000 A 
DOCKED: ATOM      5  C   UNL     1      25.929 -16.103  -2.052 -0.46 -0.00    +0.000 A 
DOCKED: ATOM      6  C   UNL     1      27.287 -15.835  -1.852 -0.30 -0.00    +0.000 A 
DOCKED: ATOM      7  C   UNL     1      27.960 -16.381  -0.748 -0.31 -0.00    +0.000 A 
DOCKED: ATOM      8  C   UNL     1      27.261 -17.205   0.144 -0.22 -0.00    +0.000 A 
DOCKED: ATOM      9  C   UNL     1      25.904 -17.473  -0.054 -0.46 -0.00    +0.000 A 
DOCKED: BRANCH   4  11
DOCKED: ATOM     10  C   UNL     1      23.080 -18.129  -0.780 -0.82 -0.00    +0.000 C 
DOCKED: ATOM     11  C   UNL     1      23.782 -17.177  -1.411 -0.65 -0.00    +0.000 C 
DOCKED: BRANCH  10  13
DOCKED: ATOM     12  O   UNL     1      20.816 -17.488  -0.706 -2.08 +0.00    +0.000 OA
DOCKED: ATOM     13  C   UNL     1      21.647 -18.378  -1.030 -0.76 -0.00    +0.000 C 
DOCKED: ATOM     14  N   UNL     1      21.171 -19.606  -1.597 -0.67 -0.00    +0.000 N 
DOCKED: ATOM     15  H   UNL     1      21.799 -20.348  -1.753 -0.41 -0.00    +0.000 HD
DOCKED: BRANCH  14  16
DOCKED: ATOM     16  O   UNL     1      19.864 -19.748  -1.920 -1.87 -0.00    +0.000 OA
DOCKED: ATOM     17  H   UNL     1      19.413 -18.893  -1.831 -0.36 -0.00    +0.000 HD
DOCKED: ENDBRANCH  14  16
DOCKED: ENDBRANCH  10  13
DOCKED: ENDBRANCH   4  11
DOCKED: ENDBRANCH   3   7
DOCKED: ENDBRANCH   1   3
DOCKED: BRANCH   1  18
DOCKED: ATOM     18  C   UNL     1      30.937 -15.361   1.239 -0.11 -0.00    +0.000 C 
DOCKED: BRANCH  18  19
DOCKED: ATOM     19  C   UNL     1      30.960 -14.849   2.687 -0.20 -0.00    +0.000 C 
DOCKED: BRANCH  19  20
DOCKED: ATOM     20  O   UNL     1      29.667 -14.807   3.231 -0.28 -0.00    +0.000 OA
DOCKED: ATOM     21  H   UNL     1      29.095 -15.427   2.752 -1.90 -0.00    +0.000 HD
DOCKED: ENDBRANCH  19  20
DOCKED: ENDBRANCH  18  19
DOCKED: ENDBRANCH   1  18
DOCKED: BRANCH   1  22
DOCKED: ATOM     22  C   UNL     1      29.296 -13.781   0.224 -0.11 -0.00    +0.000 C 
DOCKED: BRANCH  22  23
DOCKED: ATOM     23  C   UNL     1      27.855 -13.348   0.555 -0.20 -0.00    +0.000 C 
DOCKED: BRANCH  23  24
DOCKED: ATOM     24  C   UNL     1      27.685 -13.196   2.037 -0.25 -0.00    +0.000 A 
DOCKED: ATOM     25  C   UNL     1      27.076 -14.101   2.901 -0.02 -0.00    +0.000 A 
DOCKED: ATOM     26  N   UNL     1      27.033 -13.599   4.156 -0.46 -0.00    +0.000 N 
DOCKED: ATOM     27  C   UNL     1      27.596 -12.380   4.088 -0.25 +0.00    +0.000 A 
DOCKED: ATOM     28  C   UNL     1      28.001 -12.096   2.809 -0.21 -0.00    +0.000 A 
DOCKED: ATOM     29  C   UNL     1      28.589 -10.876   2.477 -0.12 +0.00    +0.000 A 
DOCKED: ATOM     30  C   UNL     1      28.769  -9.934   3.507 -0.13 +0.00    +0.000 A 
DOCKED: ATOM     31  C   UNL     1      28.357 -10.228   4.826 -0.26 +0.00    +0.000 A 
DOCKED: ATOM     32  C   UNL     1      27.759 -11.465   5.128 -0.35 +0.00    +0.000 A 
DOCKED: ATOM     33  H   UNL     1      26.665 -14.037   4.957 -0.06 -0.00    +0.000 HD
DOCKED: ENDBRANCH  23  24
DOCKED: ENDBRANCH  22  23
DOCKED: ENDBRANCH   1  22
DOCKED: TORSDOF 11
DOCKED: TER
DOCKED: ENDMDL
________________________________________________________________________________


	BEGINNING GENETIC ALGORITHM DOCKING 8 of 100
Run: 8 Seed: 664788839 2143945199 [ Run 8 of 100 GA/GALS ]
Beginning LAMARCKIAN GENETIC ALGORITHM (LGA), with a maximum of 2500000 energy evaluations.

Final-Value: -18.006


	FINAL GENETIC ALGORITHM DOCKED STATE
	_______________________________________________


Detailed state:  trans 27.775 -16.095 -0.799 quatxyzw 0.356652 -0.244541 0.876566 -0.211263 center 0.459 0.118 0.005 ntor 11 6.9865 140.5625 143.6749 86.4507 140.9954 -172.6711 -164.9217 0.9289 115.6537 -74.4741 49.7720
State:	 27.775 -16.095  -0.799   0.365 -0.250  0.897 -155.607      6.99  140.56  143.67   86.45  141.00 -172.67 -164.92    0.93  115.65  -74.47   49.77

DOCKED: MODEL        8
DOCKED: USER    Run = 8
DOCKED: USER    DPF = ligand_dock.biased.dpf
DOCKED: USER  
DOCKED: USER    Estimated Free Energy of Binding    =  -12.72 kcal/mol  [=(1)+(2)+(3)-(4)]
DOCKED: USER    Estimated Inhibition Constant, Ki   =  478.02 pM (picomolar)  [Temperature = 298.15 K]
DOCKED: USER    
DOCKED: USER    (1) Final Intermolecular Energy     =  -16.00 kcal/mol
DOCKED: USER        vdW + Hbond + desolv Energy     =  -16.00 kcal/mol
DOCKED: USER        Electrostatic Energy            =   +0.00 kcal/mol
DOCKED: USER    (2) Final Total Internal Energy     =   -2.01 kcal/mol
DOCKED: USER    (3) Torsional Free Energy           =   +3.28 kcal/mol
DOCKED: USER    (4) Unbound System's Energy  [=(2)] =   -2.01 kcal/mol
DOCKED: USER    
DOCKED: USER    
DOCKED: USER    NEWDPF move ligand.pdbqt
DOCKED: USER    NEWDPF about 0.459000 0.118000 0.005000
DOCKED: USER    NEWDPF tran0 27.774861 -16.095087 -0.798912
DOCKED: USER    NEWDPF quaternion0 0.356652 -0.244541 0.876566 -0.211263
DOCKED: USER    NEWDPF axisangle0 0.364888 -0.250187 0.896807 -155.607283
DOCKED: USER    NEWDPF quat0 0.364888 -0.250187 0.896807 -155.607283
DOCKED: USER    NEWDPF dihe0 6.99 140.56 143.67 86.45 141.00 -172.67 -164.92 0.93 115.65 -74.47 49.77 
DOCKED: USER  keepresnum = 1 
DOCKED: USER  
DOCKED: REMARK  Name = 
DOCKED: REMARK  11 active torsions:
DOCKED: REMARK  status: ('A' for Active; 'I' for Inactive)
DOCKED: REMARK    1  A    between atoms: C_2  and  C_5
DOCKED: REMARK    2  A    between atoms: N_3  and  O_4
DOCKED: REMARK    3  A    between atoms: C_6  and  C_7
DOCKED: REMARK    4  A    between atoms: C_10  and  C_11
DOCKED: REMARK    5  A    between atoms: C_11  and  N_12
DOCKED: REMARK    6  A    between atoms: N_12  and  C_13
DOCKED: REMARK    7  A    between atoms: N_12  and  C_16
DOCKED: REMARK    8  A    between atoms: C_13  and  C_14
DOCKED: REMARK    9  A    between atoms: C_14  and  O_15
DOCKED: REMARK   10  A    between atoms: C_16  and  C_17
DOCKED: REMARK   11  A    between atoms: C_17  and  C_18
DOCKED: REMARK                            x       y       z     vdW  Elec       q    Type
DOCKED: REMARK                         _______ _______ _______ _____ _____    ______ ____
DOCKED: USER                              x       y       z     vdW  Elec       q    Type
DOCKED: USER                           _______ _______ _______ _____ _____    ______ ____
DOCKED: ROOT
DOCKED: ATOM      1  N   UNL     1      29.052 -15.318  -1.125 -0.14 -0.00    +0.000 N 
DOCKED: ATOM      2  H   UNL     1      28.175 -14.812  -1.245 +0.01 -0.00    +0.000 HD
DOCKED: ENDROOT
DOCKED: BRANCH   1   3
DOCKED: ATOM      3  C   UNL     1      28.745 -16.646  -0.550 -0.28 -0.00    +0.000 C 
DOCKED: BRANCH   3   7
DOCKED: ATOM      4  C   UNL     1      24.521 -17.487  -0.970 -0.64 -0.00    +0.000 A 
DOCKED: ATOM      5  C   UNL     1      25.394 -18.463  -0.463 -0.57 -0.00    +0.000 A 
DOCKED: ATOM      6  C   UNL     1      26.761 -18.199  -0.334 -0.49 -0.00    +0.000 A 
DOCKED: ATOM      7  C   UNL     1      27.277 -16.947  -0.702 -0.41 -0.00    +0.000 A 
DOCKED: ATOM      8  C   UNL     1      26.408 -15.962  -1.189 -0.39 -0.00    +0.000 A 
DOCKED: ATOM      9  C   UNL     1      25.041 -16.225  -1.319 -0.48 -0.00    +0.000 A 
DOCKED: BRANCH   4  11
DOCKED: ATOM     10  C   UNL     1      22.449 -18.665  -0.256 -0.81 -0.00    +0.000 C 
DOCKED: ATOM     11  C   UNL     1      23.077 -17.810  -1.076 -0.77 -0.00    +0.000 C 
DOCKED: BRANCH  10  13
DOCKED: ATOM     12  O   UNL     1      20.259 -18.150  -0.954 -2.13 -0.00    +0.000 OA
DOCKED: ATOM     13  C   UNL     1      21.007 -18.968  -0.355 -0.85 -0.00    +0.000 C 
DOCKED: ATOM     14  N   UNL     1      20.431 -20.142   0.235 -0.70 -0.00    +0.000 N 
DOCKED: ATOM     15  H   UNL     1      20.985 -20.730   0.796 -0.58 -0.00    +0.000 HD
DOCKED: BRANCH  14  16
DOCKED: ATOM     16  O   UNL     1      19.128 -20.443   0.021 -0.83 -0.00    +0.000 OA
DOCKED: ATOM     17  H   UNL     1      18.757 -19.832  -0.636 -0.20 -0.00    +0.000 HD
DOCKED: ENDBRANCH  14  16
DOCKED: ENDBRANCH  10  13
DOCKED: ENDBRANCH   4  11
DOCKED: ENDBRANCH   3   7
DOCKED: ENDBRANCH   1   3
DOCKED: BRANCH   1  18
DOCKED: ATOM     18  C   UNL     1      29.857 -14.495  -0.191 -0.11 -0.00    +0.000 C 
DOCKED: BRANCH  18  19
DOCKED: ATOM     19  C   UNL     1      29.000 -13.869   0.920 -0.16 -0.00    +0.000 C 
DOCKED: BRANCH  19  20
DOCKED: ATOM     20  O   UNL     1      28.347 -14.856   1.674 -0.28 -0.00    +0.000 OA
DOCKED: ATOM     21  H   UNL     1      28.967 -15.234   2.317 -1.91 -0.00    +0.000 HD
DOCKED: ENDBRANCH  19  20
DOCKED: ENDBRANCH  18  19
DOCKED: ENDBRANCH   1  18
DOCKED: BRANCH   1  22
DOCKED: ATOM     22  C   UNL     1      29.617 -15.422  -2.493 -0.14 -0.00    +0.000 C 
DOCKED: BRANCH  22  23
DOCKED: ATOM     23  C   UNL     1      28.818 -16.341  -3.438 -0.25 -0.00    +0.000 C 
DOCKED: BRANCH  23  24
DOCKED: ATOM     24  C   UNL     1      29.354 -16.242  -4.834 -0.28 -0.00    +0.000 A 
DOCKED: ATOM     25  C   UNL     1      29.212 -15.167  -5.706 -0.31 -0.00    +0.000 A 
DOCKED: ATOM     26  N   UNL     1      29.756 -15.459  -6.909 -0.33 -0.00    +0.000 N 
DOCKED: ATOM     27  C   UNL     1      30.227 -16.714  -6.808 -0.25 -0.00    +0.000 A 
DOCKED: ATOM     28  C   UNL     1      29.995 -17.228  -5.559 -0.30 -0.00    +0.000 A 
DOCKED: ATOM     29  C   UNL     1      30.367 -18.528  -5.217 -0.30 -0.00    +0.000 A 
DOCKED: ATOM     30  C   UNL     1      31.006 -19.306  -6.198 -0.31 -0.00    +0.000 A 
DOCKED: ATOM     31  C   UNL     1      31.252 -18.776  -7.485 -0.30 -0.00    +0.000 A 
DOCKED: ATOM     32  C   UNL     1      30.857 -17.463  -7.802 -0.27 -0.00    +0.000 A 
DOCKED: ATOM     33  H   UNL     1      29.799 -14.872  -7.698 -0.19 -0.00    +0.000 HD
DOCKED: ENDBRANCH  23  24
DOCKED: ENDBRANCH  22  23
DOCKED: ENDBRANCH   1  22
DOCKED: TORSDOF 11
DOCKED: TER
DOCKED: ENDMDL
________________________________________________________________________________


	BEGINNING GENETIC ALGORITHM DOCKING 9 of 100
Run: 9 Seed: 50398122 1155826341 [ Run 9 of 100 GA/GALS ]
Beginning LAMARCKIAN GENETIC ALGORITHM (LGA), with a maximum of 2500000 energy evaluations.

Final-Value: -16.736


	FINAL GENETIC ALGORITHM DOCKED STATE
	_______________________________________________


Detailed state:  trans 28.694 -15.794 -2.288 quatxyzw 0.051723 -0.285773 0.952498 0.091685 center 0.459 0.118 0.005 ntor 11 25.8386 -148.3532 -49.1948 -150.8695 -165.8298 16.1158 20.5182 126.5390 -176.0557 -12.6679 -16.0336
State:	 28.694 -15.794  -2.288   0.052 -0.287  0.957 169.479     25.84 -148.35  -49.19 -150.87 -165.83   16.12   20.52  126.54 -176.06  -12.67  -16.03

DOCKED: MODEL        9
DOCKED: USER    Run = 9
DOCKED: USER    DPF = ligand_dock.biased.dpf
DOCKED: USER  
DOCKED: USER    Estimated Free Energy of Binding    =  -10.88 kcal/mol  [=(1)+(2)+(3)-(4)]
DOCKED: USER    Estimated Inhibition Constant, Ki   =   10.64 nM (nanomolar)  [Temperature = 298.15 K]
DOCKED: USER    
DOCKED: USER    (1) Final Intermolecular Energy     =  -14.16 kcal/mol
DOCKED: USER        vdW + Hbond + desolv Energy     =  -14.16 kcal/mol
DOCKED: USER        Electrostatic Energy            =   +0.00 kcal/mol
DOCKED: USER    (2) Final Total Internal Energy     =   -2.58 kcal/mol
DOCKED: USER    (3) Torsional Free Energy           =   +3.28 kcal/mol
DOCKED: USER    (4) Unbound System's Energy  [=(2)] =   -2.58 kcal/mol
DOCKED: USER    
DOCKED: USER    
DOCKED: USER    NEWDPF move ligand.pdbqt
DOCKED: USER    NEWDPF about 0.459000 0.118000 0.005000
DOCKED: USER    NEWDPF tran0 28.693823 -15.794020 -2.288433
DOCKED: USER    NEWDPF quaternion0 0.051723 -0.285773 0.952498 0.091685
DOCKED: USER    NEWDPF axisangle0 0.051941 -0.286982 0.956527 169.478883
DOCKED: USER    NEWDPF quat0 0.051941 -0.286982 0.956527 169.478883
DOCKED: USER    NEWDPF dihe0 25.84 -148.35 -49.19 -150.87 -165.83 16.12 20.52 126.54 -176.06 -12.67 -16.03 
DOCKED: USER  keepresnum = 1 
DOCKED: USER  
DOCKED: REMARK  Name = 
DOCKED: REMARK  11 active torsions:
DOCKED: REMARK  status: ('A' for Active; 'I' for Inactive)
DOCKED: REMARK    1  A    between atoms: C_2  and  C_5
DOCKED: REMARK    2  A    between atoms: N_3  and  O_4
DOCKED: REMARK    3  A    between atoms: C_6  and  C_7
DOCKED: REMARK    4  A    between atoms: C_10  and  C_11
DOCKED: REMARK    5  A    between atoms: C_11  and  N_12
DOCKED: REMARK    6  A    between atoms: N_12  and  C_13
DOCKED: REMARK    7  A    between atoms: N_12  and  C_16
DOCKED: REMARK    8  A    between atoms: C_13  and  C_14
DOCKED: REMARK    9  A    between atoms: C_14  and  O_15
DOCKED: REMARK   10  A    between atoms: C_16  and  C_17
DOCKED: REMARK   11  A    between atoms: C_17  and  C_18
DOCKED: REMARK                            x       y       z     vdW  Elec       q    Type
DOCKED: REMARK                         _______ _______ _______ _____ _____    ______ ____
DOCKED: USER                              x       y       z     vdW  Elec       q    Type
DOCKED: USER                           _______ _______ _______ _____ _____    ______ ____
DOCKED: ROOT
DOCKED: ATOM      1  N   UNL     1      29.422 -14.612  -1.645 -0.08 -0.00    +0.000 N 
DOCKED: ATOM      2  H   UNL     1      28.739 -14.381  -2.366 +0.01 -0.00    +0.000 HD
DOCKED: ENDROOT
DOCKED: BRANCH   1   3
DOCKED: ATOM      3  C   UNL     1      29.369 -16.071  -1.409 -0.20 -0.00    +0.000 C 
DOCKED: BRANCH   3   7
DOCKED: ATOM      4  C   UNL     1      25.264 -17.297  -0.803 -0.58 -0.00    +0.000 A 
DOCKED: ATOM      5  C   UNL     1      26.241 -17.577   0.166 -0.38 -0.00    +0.000 A 
DOCKED: ATOM      6  C   UNL     1      27.570 -17.190  -0.029 -0.21 -0.00    +0.000 A 
DOCKED: ATOM      7  C   UNL     1      27.944 -16.508  -1.197 -0.32 -0.00    +0.000 A 
DOCKED: ATOM      8  C   UNL     1      26.970 -16.208  -2.159 -0.35 -0.00    +0.000 A 
DOCKED: ATOM      9  C   UNL     1      25.641 -16.594  -1.965 -0.50 -0.00    +0.000 A 
DOCKED: BRANCH   4  11
DOCKED: ATOM     10  C   UNL     1      23.051 -18.200  -1.495 -0.66 -0.00    +0.000 C 
DOCKED: ATOM     11  C   UNL     1      23.864 -17.716  -0.545 -0.75 -0.00    +0.000 C 
DOCKED: BRANCH  10  13
DOCKED: ATOM     12  O   UNL     1      21.007 -18.032  -0.337 -1.92 -0.00    +0.000 OA
DOCKED: ATOM     13  C   UNL     1      21.664 -18.633  -1.228 -0.65 -0.00    +0.000 C 
DOCKED: ATOM     14  N   UNL     1      21.058 -19.729  -1.926 -0.57 -0.00    +0.000 N 
DOCKED: ATOM     15  H   UNL     1      21.597 -20.273  -2.545 -0.59 -0.00    +0.000 HD
DOCKED: BRANCH  14  16
DOCKED: ATOM     16  O   UNL     1      19.749 -20.018  -1.737 -1.63 -0.00    +0.000 OA
DOCKED: ATOM     17  H   UNL     1      19.276 -19.216  -1.461 -0.41 -0.00    +0.000 HD
DOCKED: ENDBRANCH  14  16
DOCKED: ENDBRANCH  10  13
DOCKED: ENDBRANCH   4  11
DOCKED: ENDBRANCH   3   7
DOCKED: ENDBRANCH   1   3
DOCKED: BRANCH   1  18
DOCKED: ATOM     18  C   UNL     1      28.999 -13.852  -0.445 -0.11 -0.00    +0.000 C 
DOCKED: BRANCH  18  19
DOCKED: ATOM     19  C   UNL     1      29.615 -14.413   0.847 -0.15 -0.00    +0.000 C 
DOCKED: BRANCH  19  20
DOCKED: ATOM     20  O   UNL     1      28.650 -14.541   1.856 -0.27 -0.00    +0.000 OA
DOCKED: ATOM     21  H   UNL     1      28.896 -15.269   2.448 -1.92 -0.00    +0.000 HD
DOCKED: ENDBRANCH  19  20
DOCKED: ENDBRANCH  18  19
DOCKED: ENDBRANCH   1  18
DOCKED: BRANCH   1  22
DOCKED: ATOM     22  C   UNL     1      30.726 -14.187  -2.212 -0.03 -0.00    +0.000 C 
DOCKED: BRANCH  22  23
DOCKED: ATOM     23  C   UNL     1      30.632 -13.571  -3.621 -0.04 -0.00    +0.000 C 
DOCKED: BRANCH  23  24
DOCKED: ATOM     24  C   UNL     1      30.090 -14.577  -4.592 -0.10 -0.00    +0.000 A 
DOCKED: ATOM     25  C   UNL     1      28.867 -14.521  -5.252 -0.25 -0.00    +0.000 A 
DOCKED: ATOM     26  N   UNL     1      28.676 -15.638  -5.989 -0.38 -0.00    +0.000 N 
DOCKED: ATOM     27  C   UNL     1      29.762 -16.405  -5.788 -0.30 -0.00    +0.000 A 
DOCKED: ATOM     28  C   UNL     1      30.645 -15.794  -4.936 -0.15 -0.00    +0.000 A 
DOCKED: ATOM     29  C   UNL     1      31.838 -16.405  -4.550 -0.07 -0.00    +0.000 A 
DOCKED: ATOM     30  C   UNL     1      32.121 -17.680  -5.073 -0.09 -0.00    +0.000 A 
DOCKED: ATOM     31  C   UNL     1      31.214 -18.308  -5.957 -0.24 -0.00    +0.000 A 
DOCKED: ATOM     32  C   UNL     1      30.015 -17.669  -6.321 -0.22 -0.00    +0.000 A 
DOCKED: ATOM     33  H   UNL     1      27.901 -15.848  -6.558 -0.04 +0.00    +0.000 HD
DOCKED: ENDBRANCH  23  24
DOCKED: ENDBRANCH  22  23
DOCKED: ENDBRANCH   1  22
DOCKED: TORSDOF 11
DOCKED: TER
DOCKED: ENDMDL
________________________________________________________________________________


	BEGINNING GENETIC ALGORITHM DOCKING 10 of 100
Run: 10 Seed: 1061127736 1209195186 [ Run 10 of 100 GA/GALS ]
Beginning LAMARCKIAN GENETIC ALGORITHM (LGA), with a maximum of 2500000 energy evaluations.

Final-Value: -16.014


	FINAL GENETIC ALGORITHM DOCKED STATE
	_______________________________________________


Detailed state:  trans 27.092 -15.831 -0.020 quatxyzw -0.459859 0.887850 0.003867 -0.015418 center 0.459 0.118 0.005 ntor 11 -2.3069 134.9638 -111.1881 179.3331 17.7910 165.7768 -6.3493 97.4639 162.4691 -90.6015 8.1139
State:	 27.092 -15.831  -0.020  -0.460  0.888  0.004 -178.233     -2.31  134.96 -111.19  179.33   17.79  165.78   -6.35   97.46  162.47  -90.60    8.11

DOCKED: MODEL       10
DOCKED: USER    Run = 10
DOCKED: USER    DPF = ligand_dock.biased.dpf
DOCKED: USER  
DOCKED: USER    Estimated Free Energy of Binding    =  -10.47 kcal/mol  [=(1)+(2)+(3)-(4)]
DOCKED: USER    Estimated Inhibition Constant, Ki   =   21.19 nM (nanomolar)  [Temperature = 298.15 K]
DOCKED: USER    
DOCKED: USER    (1) Final Intermolecular Energy     =  -13.75 kcal/mol
DOCKED: USER        vdW + Hbond + desolv Energy     =  -13.75 kcal/mol
DOCKED: USER        Electrostatic Energy            =   +0.00 kcal/mol
DOCKED: USER    (2) Final Total Internal Energy     =   -2.26 kcal/mol
DOCKED: USER    (3) Torsional Free Energy           =   +3.28 kcal/mol
DOCKED: USER    (4) Unbound System's Energy  [=(2)] =   -2.26 kcal/mol
DOCKED: USER    
DOCKED: USER    
DOCKED: USER    NEWDPF move ligand.pdbqt
DOCKED: USER    NEWDPF about 0.459000 0.118000 0.005000
DOCKED: USER    NEWDPF tran0 27.092199 -15.830752 -0.019783
DOCKED: USER    NEWDPF quaternion0 -0.459859 0.887850 0.003867 -0.015418
DOCKED: USER    NEWDPF axisangle0 -0.459914 0.887955 0.003867 -178.233122
DOCKED: USER    NEWDPF quat0 -0.459914 0.887955 0.003867 -178.233122
DOCKED: USER    NEWDPF dihe0 -2.31 134.96 -111.19 179.33 17.79 165.78 -6.35 97.46 162.47 -90.60 8.11 
DOCKED: USER  keepresnum = 1 
DOCKED: USER  
DOCKED: REMARK  Name = 
DOCKED: REMARK  11 active torsions:
DOCKED: REMARK  status: ('A' for Active; 'I' for Inactive)
DOCKED: REMARK    1  A    between atoms: C_2  and  C_5
DOCKED: REMARK    2  A    between atoms: N_3  and  O_4
DOCKED: REMARK    3  A    between atoms: C_6  and  C_7
DOCKED: REMARK    4  A    between atoms: C_10  and  C_11
DOCKED: REMARK    5  A    between atoms: C_11  and  N_12
DOCKED: REMARK    6  A    between atoms: N_12  and  C_13
DOCKED: REMARK    7  A    between atoms: N_12  and  C_16
DOCKED: REMARK    8  A    between atoms: C_13  and  C_14
DOCKED: REMARK    9  A    between atoms: C_14  and  O_15
DOCKED: REMARK   10  A    between atoms: C_16  and  C_17
DOCKED: REMARK   11  A    between atoms: C_17  and  C_18
DOCKED: REMARK                            x       y       z     vdW  Elec       q    Type
DOCKED: REMARK                         _______ _______ _______ _____ _____    ______ ____
DOCKED: USER                              x       y       z     vdW  Elec       q    Type
DOCKED: USER                           _______ _______ _______ _____ _____    ______ ____
DOCKED: ROOT
DOCKED: ATOM      1  N   UNL     1      28.622 -15.780   0.006 -0.24 -0.00    +0.000 N 
DOCKED: ATOM      2  H   UNL     1      28.172 -16.213   0.812 -0.53 -0.00    +0.000 HD
DOCKED: ENDROOT
DOCKED: BRANCH   1   3
DOCKED: ATOM      3  C   UNL     1      27.572 -15.444  -0.982 -0.30 -0.00    +0.000 C 
DOCKED: BRANCH   3   7
DOCKED: ATOM      4  C   UNL     1      24.176 -18.078  -0.484 -0.68 -0.00    +0.000 A 
DOCKED: ATOM      5  C   UNL     1      24.026 -16.837  -1.123 -0.56 -0.00    +0.000 A 
DOCKED: ATOM      6  C   UNL     1      25.119 -15.978  -1.278 -0.44 -0.00    +0.000 A 
DOCKED: ATOM      7  C   UNL     1      26.385 -16.353  -0.803 -0.43 -0.00    +0.000 A 
DOCKED: ATOM      8  C   UNL     1      26.546 -17.599  -0.183 -0.51 -0.00    +0.000 A 
DOCKED: ATOM      9  C   UNL     1      25.454 -18.458  -0.027 -0.50 -0.00    +0.000 A 
DOCKED: BRANCH   4  11
DOCKED: ATOM     10  C   UNL     1      21.814 -18.709  -0.948 -0.83 -0.00    +0.000 C 
DOCKED: ATOM     11  C   UNL     1      22.990 -18.960  -0.354 -0.76 -0.00    +0.000 C 
DOCKED: BRANCH  10  13
DOCKED: ATOM     12  O   UNL     1      19.891 -19.741  -1.832 -1.88 -0.00    +0.000 OA
DOCKED: ATOM     13  C   UNL     1      20.643 -19.600  -0.831 -0.87 -0.00    +0.000 C 
DOCKED: ATOM     14  N   UNL     1      20.319 -20.280   0.389 -0.70 -0.00    +0.000 N 
DOCKED: ATOM     15  H   UNL     1      20.835 -20.092   1.206 -0.46 -0.00    +0.000 HD
DOCKED: BRANCH  14  16
DOCKED: ATOM     16  O   UNL     1      19.306 -21.178   0.422 -0.74 -0.00    +0.000 OA
DOCKED: ATOM     17  H   UNL     1      18.880 -21.219  -0.449 -0.34 -0.00    +0.000 HD
DOCKED: ENDBRANCH  14  16
DOCKED: ENDBRANCH  10  13
DOCKED: ENDBRANCH   4  11
DOCKED: ENDBRANCH   3   7
DOCKED: ENDBRANCH   1   3
DOCKED: BRANCH   1  18
DOCKED: ATOM     18  C   UNL     1      29.555 -16.804  -0.522 -0.22 -0.00    +0.000 C 
DOCKED: BRANCH  18  19
DOCKED: ATOM     19  C   UNL     1      29.418 -16.990  -2.041 -0.25 -0.00    +0.000 C 
DOCKED: BRANCH  19  20
DOCKED: ATOM     20  O   UNL     1      30.519 -17.679  -2.570 -0.21 -0.00    +0.000 OA
DOCKED: ATOM     21  H   UNL     1      30.457 -18.618  -2.332 -0.02 -0.00    +0.000 HD
DOCKED: ENDBRANCH  19  20
DOCKED: ENDBRANCH  18  19
DOCKED: ENDBRANCH   1  18
DOCKED: BRANCH   1  22
DOCKED: ATOM     22  C   UNL     1      29.283 -14.568   0.548 -0.17 -0.00    +0.000 C 
DOCKED: BRANCH  22  23
DOCKED: ATOM     23  C   UNL     1      28.696 -14.073   1.884 -0.24 -0.00    +0.000 C 
DOCKED: BRANCH  23  24
DOCKED: ATOM     24  C   UNL     1      27.603 -13.079   1.634 -0.23 -0.00    +0.000 A 
DOCKED: ATOM     25  C   UNL     1      26.259 -13.360   1.405 -0.15 -0.00    +0.000 A 
DOCKED: ATOM     26  N   UNL     1      25.578 -12.223   1.140 -0.39 +0.00    +0.000 N 
DOCKED: ATOM     27  C   UNL     1      26.481 -11.229   1.186 -0.30 +0.00    +0.000 A 
DOCKED: ATOM     28  C   UNL     1      27.731 -11.712   1.479 -0.17 -0.00    +0.000 A 
DOCKED: ATOM     29  C   UNL     1      28.844 -10.877   1.554 -0.07 +0.00    +0.000 A 
DOCKED: ATOM     30  C   UNL     1      28.648  -9.502   1.329 -0.07 +0.00    +0.000 A 
DOCKED: ATOM     31  C   UNL     1      27.360  -9.001   1.033 -0.16 +0.00    +0.000 A 
DOCKED: ATOM     32  C   UNL     1      26.258  -9.871   0.956 -0.29 +0.00    +0.000 A 
DOCKED: ATOM     33  H   UNL     1      24.615 -12.140   0.952 -0.04 +0.00    +0.000 HD
DOCKED: ENDBRANCH  23  24
DOCKED: ENDBRANCH  22  23
DOCKED: ENDBRANCH   1  22
DOCKED: TORSDOF 11
DOCKED: TER
DOCKED: ENDMDL
________________________________________________________________________________


	BEGINNING GENETIC ALGORITHM DOCKING 11 of 100
Run: 11 Seed: 1285220411 442404925 [ Run 11 of 100 GA/GALS ]
Beginning LAMARCKIAN GENETIC ALGORITHM (LGA), with a maximum of 2500000 energy evaluations.

Final-Value: -18.023


	FINAL GENETIC ALGORITHM DOCKED STATE
	_______________________________________________


Detailed state:  trans 28.634 -16.312 -0.232 quatxyzw 0.667008 -0.675853 0.217497 0.225872 center 0.459 0.118 0.005 ntor 11 -4.2228 -45.7047 175.1868 -25.0056 -5.7734 93.4619 17.3221 -27.7314 147.1210 -139.2589 57.4215
State:	 28.634 -16.312  -0.232   0.685 -0.694  0.223 153.892     -4.22  -45.70  175.19  -25.01   -5.77   93.46   17.32  -27.73  147.12 -139.26   57.42

DOCKED: MODEL       11
DOCKED: USER    Run = 11
DOCKED: USER    DPF = ligand_dock.biased.dpf
DOCKED: USER  
DOCKED: USER    Estimated Free Energy of Binding    =  -12.30 kcal/mol  [=(1)+(2)+(3)-(4)]
DOCKED: USER    Estimated Inhibition Constant, Ki   =  970.72 pM (picomolar)  [Temperature = 298.15 K]
DOCKED: USER    
DOCKED: USER    (1) Final Intermolecular Energy     =  -15.58 kcal/mol
DOCKED: USER        vdW + Hbond + desolv Energy     =  -15.58 kcal/mol
DOCKED: USER        Electrostatic Energy            =   +0.00 kcal/mol
DOCKED: USER    (2) Final Total Internal Energy     =   -2.45 kcal/mol
DOCKED: USER    (3) Torsional Free Energy           =   +3.28 kcal/mol
DOCKED: USER    (4) Unbound System's Energy  [=(2)] =   -2.45 kcal/mol
DOCKED: USER    
DOCKED: USER    
DOCKED: USER    NEWDPF move ligand.pdbqt
DOCKED: USER    NEWDPF about 0.459000 0.118000 0.005000
DOCKED: USER    NEWDPF tran0 28.633899 -16.311527 -0.231638
DOCKED: USER    NEWDPF quaternion0 0.667008 -0.675853 0.217497 0.225872
DOCKED: USER    NEWDPF axisangle0 0.684703 -0.693782 0.223267 153.891653
DOCKED: USER    NEWDPF quat0 0.684703 -0.693782 0.223267 153.891653
DOCKED: USER    NEWDPF dihe0 -4.22 -45.70 175.19 -25.01 -5.77 93.46 17.32 -27.73 147.12 -139.26 57.42 
DOCKED: USER  keepresnum = 1 
DOCKED: USER  
DOCKED: REMARK  Name = 
DOCKED: REMARK  11 active torsions:
DOCKED: REMARK  status: ('A' for Active; 'I' for Inactive)
DOCKED: REMARK    1  A    between atoms: C_2  and  C_5
DOCKED: REMARK    2  A    between atoms: N_3  and  O_4
DOCKED: REMARK    3  A    between atoms: C_6  and  C_7
DOCKED: REMARK    4  A    between atoms: C_10  and  C_11
DOCKED: REMARK    5  A    between atoms: C_11  and  N_12
DOCKED: REMARK    6  A    between atoms: N_12  and  C_13
DOCKED: REMARK    7  A    between atoms: N_12  and  C_16
DOCKED: REMARK    8  A    between atoms: C_13  and  C_14
DOCKED: REMARK    9  A    between atoms: C_14  and  O_15
DOCKED: REMARK   10  A    between atoms: C_16  and  C_17
DOCKED: REMARK   11  A    between atoms: C_17  and  C_18
DOCKED: REMARK                            x       y       z     vdW  Elec       q    Type
DOCKED: REMARK                         _______ _______ _______ _____ _____    ______ ____
DOCKED: USER                              x       y       z     vdW  Elec       q    Type
DOCKED: USER                           _______ _______ _______ _____ _____    ______ ____
DOCKED: ROOT
DOCKED: ATOM      1  N   UNL     1      29.629 -15.407   0.499 -0.15 -0.00    +0.000 N 
DOCKED: ATOM      2  H   UNL     1      29.043 -15.999   1.088 -0.81 -0.00    +0.000 HD
DOCKED: ENDROOT
DOCKED: BRANCH   1   3
DOCKED: ATOM      3  C   UNL     1      29.353 -15.744  -0.915 -0.19 -0.00    +0.000 C 
DOCKED: BRANCH   3   7
DOCKED: ATOM      4  C   UNL     1      25.432 -17.534  -1.293 -0.57 -0.00    +0.000 A 
DOCKED: ATOM      5  C   UNL     1      25.676 -16.244  -1.791 -0.49 -0.00    +0.000 A 
DOCKED: ATOM      6  C   UNL     1      26.939 -15.658  -1.663 -0.32 -0.00    +0.000 A 
DOCKED: ATOM      7  C   UNL     1      27.984 -16.358  -1.041 -0.31 -0.00    +0.000 A 
DOCKED: ATOM      8  C   UNL     1      27.752 -17.654  -0.561 -0.27 -0.00    +0.000 A 
DOCKED: ATOM      9  C   UNL     1      26.490 -18.241  -0.688 -0.48 -0.00    +0.000 A 
DOCKED: BRANCH   4  11
DOCKED: ATOM     10  C   UNL     1      22.977 -17.612  -0.892 -0.76 -0.00    +0.000 C 
DOCKED: ATOM     11  C   UNL     1      24.079 -18.119  -1.464 -0.74 -0.00    +0.000 C 
DOCKED: BRANCH  10  13
DOCKED: ATOM     12  O   UNL     1      20.632 -17.515  -0.710 -2.11 +0.00    +0.000 OA
DOCKED: ATOM     13  C   UNL     1      21.631 -18.187  -1.080 -0.69 -0.00    +0.000 C 
DOCKED: ATOM     14  N   UNL     1      21.429 -19.493  -1.639 -0.62 -0.00    +0.000 N 
DOCKED: ATOM     15  H   UNL     1      22.203 -20.069  -1.830 -0.46 -0.00    +0.000 HD
DOCKED: BRANCH  14  16
DOCKED: ATOM     16  O   UNL     1      20.176 -19.935  -1.903 -1.82 -0.00    +0.000 OA
DOCKED: ATOM     17  H   UNL     1      19.529 -19.279  -1.598 -0.24 -0.00    +0.000 HD
DOCKED: ENDBRANCH  14  16
DOCKED: ENDBRANCH  10  13
DOCKED: ENDBRANCH   4  11
DOCKED: ENDBRANCH   3   7
DOCKED: ENDBRANCH   1   3
DOCKED: BRANCH   1  18
DOCKED: ATOM     18  C   UNL     1      31.024 -15.738   0.873 -0.11 -0.00    +0.000 C 
DOCKED: BRANCH  18  19
DOCKED: ATOM     19  C   UNL     1      31.407 -15.175   2.251 -0.18 -0.00    +0.000 C 
DOCKED: BRANCH  19  20
DOCKED: ATOM     20  O   UNL     1      31.136 -16.100   3.270 -0.30 -0.00    +0.000 OA
DOCKED: ATOM     21  H   UNL     1      30.356 -15.810   3.770 -0.60 -0.00    +0.000 HD
DOCKED: ENDBRANCH  19  20
DOCKED: ENDBRANCH  18  19
DOCKED: ENDBRANCH   1  18
DOCKED: BRANCH   1  22
DOCKED: ATOM     22  C   UNL     1      29.217 -14.020   0.830 -0.15 -0.00    +0.000 C 
DOCKED: BRANCH  22  23
DOCKED: ATOM     23  C   UNL     1      27.709 -13.857   1.102 -0.27 -0.00    +0.000 C 
DOCKED: BRANCH  23  24
DOCKED: ATOM     24  C   UNL     1      27.483 -12.847   2.185 -0.26 -0.00    +0.000 A 
DOCKED: ATOM     25  C   UNL     1      26.932 -11.577   2.037 -0.28 +0.00    +0.000 A 
DOCKED: ATOM     26  N   UNL     1      26.954 -10.913   3.214 -0.30 +0.00    +0.000 N 
DOCKED: ATOM     27  C   UNL     1      27.527 -11.746   4.101 -0.20 +0.00    +0.000 A 
DOCKED: ATOM     28  C   UNL     1      27.869 -12.934   3.508 -0.31 -0.00    +0.000 A 
DOCKED: ATOM     29  C   UNL     1      28.506 -13.953   4.217 -0.42 -0.00    +0.000 A 
DOCKED: ATOM     30  C   UNL     1      28.782 -13.731   5.578 -0.42 -0.00    +0.000 A 
DOCKED: ATOM     31  C   UNL     1      28.424 -12.509   6.191 -0.38 -0.00    +0.000 A 
DOCKED: ATOM     32  C   UNL     1      27.790 -11.497   5.448 -0.35 +0.00    +0.000 A 
DOCKED: ATOM     33  H   UNL     1      26.618 -10.004   3.388 -0.02 +0.00    +0.000 HD
DOCKED: ENDBRANCH  23  24
DOCKED: ENDBRANCH  22  23
DOCKED: ENDBRANCH   1  22
DOCKED: TORSDOF 11
DOCKED: TER
DOCKED: ENDMDL
________________________________________________________________________________


	BEGINNING GENETIC ALGORITHM DOCKING 12 of 100
Run: 12 Seed: 657691679 1638352826 [ Run 12 of 100 GA/GALS ]
Beginning LAMARCKIAN GENETIC ALGORITHM (LGA), with a maximum of 2500000 energy evaluations.

Final-Value: -17.078


	FINAL GENETIC ALGORITHM DOCKED STATE
	_______________________________________________


Detailed state:  trans 27.437 -16.409 -2.112 quatxyzw -0.166275 0.186249 -0.967949 0.027180 center 0.459 0.118 0.005 ntor 11 -13.2874 -127.7628 -179.3421 160.8990 180.0000 -66.6589 103.3217 50.6643 -151.4442 141.0253 4.6415
State:	 27.437 -16.409  -2.112  -0.166  0.186 -0.968 176.885    -13.29 -127.76 -179.34  160.90  180.00  -66.66  103.32   50.66 -151.44  141.03    4.64

DOCKED: MODEL       12
DOCKED: USER    Run = 12
DOCKED: USER    DPF = ligand_dock.biased.dpf
DOCKED: USER  
DOCKED: USER    Estimated Free Energy of Binding    =  -12.03 kcal/mol  [=(1)+(2)+(3)-(4)]
DOCKED: USER    Estimated Inhibition Constant, Ki   =    1.53 nM (nanomolar)  [Temperature = 298.15 K]
DOCKED: USER    
DOCKED: USER    (1) Final Intermolecular Energy     =  -15.31 kcal/mol
DOCKED: USER        vdW + Hbond + desolv Energy     =  -15.31 kcal/mol
DOCKED: USER        Electrostatic Energy            =   +0.00 kcal/mol
DOCKED: USER    (2) Final Total Internal Energy     =   -1.77 kcal/mol
DOCKED: USER    (3) Torsional Free Energy           =   +3.28 kcal/mol
DOCKED: USER    (4) Unbound System's Energy  [=(2)] =   -1.77 kcal/mol
DOCKED: USER    
DOCKED: USER    
DOCKED: USER    NEWDPF move ligand.pdbqt
DOCKED: USER    NEWDPF about 0.459000 0.118000 0.005000
DOCKED: USER    NEWDPF tran0 27.437080 -16.409205 -2.112087
DOCKED: USER    NEWDPF quaternion0 -0.166275 0.186249 -0.967949 0.027180
DOCKED: USER    NEWDPF axisangle0 -0.166336 0.186318 -0.968307 176.885002
DOCKED: USER    NEWDPF quat0 -0.166336 0.186318 -0.968307 176.885002
DOCKED: USER    NEWDPF dihe0 -13.29 -127.76 -179.34 160.90 180.00 -66.66 103.32 50.66 -151.44 141.03 4.64 
DOCKED: USER  keepresnum = 1 
DOCKED: USER  
DOCKED: REMARK  Name = 
DOCKED: REMARK  11 active torsions:
DOCKED: REMARK  status: ('A' for Active; 'I' for Inactive)
DOCKED: REMARK    1  A    between atoms: C_2  and  C_5
DOCKED: REMARK    2  A    between atoms: N_3  and  O_4
DOCKED: REMARK    3  A    between atoms: C_6  and  C_7
DOCKED: REMARK    4  A    between atoms: C_10  and  C_11
DOCKED: REMARK    5  A    between atoms: C_11  and  N_12
DOCKED: REMARK    6  A    between atoms: N_12  and  C_13
DOCKED: REMARK    7  A    between atoms: N_12  and  C_16
DOCKED: REMARK    8  A    between atoms: C_13  and  C_14
DOCKED: REMARK    9  A    between atoms: C_14  and  O_15
DOCKED: REMARK   10  A    between atoms: C_16  and  C_17
DOCKED: REMARK   11  A    between atoms: C_17  and  C_18
DOCKED: REMARK                            x       y       z     vdW  Elec       q    Type
DOCKED: REMARK                         _______ _______ _______ _____ _____    ______ ____
DOCKED: USER                              x       y       z     vdW  Elec       q    Type
DOCKED: USER                           _______ _______ _______ _____ _____    ______ ____
DOCKED: ROOT
DOCKED: ATOM      1  N   UNL     1      28.452 -15.271  -1.980 -0.17 -0.00    +0.000 N 
DOCKED: ATOM      2  H   UNL     1      27.627 -15.075  -2.546 +0.00 -0.00    +0.000 HD
DOCKED: ENDROOT
DOCKED: BRANCH   1   3
DOCKED: ATOM      3  C   UNL     1      28.293 -16.616  -1.383 -0.34 -0.00    +0.000 C 
DOCKED: BRANCH   3   7
DOCKED: ATOM      4  C   UNL     1      24.101 -17.530  -0.821 -0.66 -0.00    +0.000 A 
DOCKED: ATOM      5  C   UNL     1      24.511 -16.685  -1.865 -0.49 -0.00    +0.000 A 
DOCKED: ATOM      6  C   UNL     1      25.864 -16.380  -2.045 -0.48 -0.00    +0.000 A 
DOCKED: ATOM      7  C   UNL     1      26.832 -16.924  -1.187 -0.43 -0.00    +0.000 A 
DOCKED: ATOM      8  C   UNL     1      26.431 -17.784  -0.156 -0.53 -0.00    +0.000 A 
DOCKED: ATOM      9  C   UNL     1      25.079 -18.089   0.026 -0.57 -0.00    +0.000 A 
DOCKED: BRANCH   4  11
DOCKED: ATOM     10  C   UNL     1      22.181 -19.067  -0.441 -0.80 -0.00    +0.000 C 
DOCKED: ATOM     11  C   UNL     1      22.656 -17.836  -0.678 -0.81 -0.00    +0.000 C 
DOCKED: BRANCH  10  13
DOCKED: ATOM     12  O   UNL     1      19.905 -18.524  -0.709 -1.75 -0.00    +0.000 OA
DOCKED: ATOM     13  C   UNL     1      20.743 -19.362  -0.281 -0.87 -0.00    +0.000 C 
DOCKED: ATOM     14  N   UNL     1      20.275 -20.551   0.370 -0.68 -0.00    +0.000 N 
DOCKED: ATOM     15  H   UNL     1      20.918 -21.158   0.803 -0.53 -0.00    +0.000 HD
DOCKED: BRANCH  14  16
DOCKED: ATOM     16  O   UNL     1      18.952 -20.841   0.392 -0.79 -0.00    +0.000 OA
DOCKED: ATOM     17  H   UNL     1      18.445 -20.061   0.116 -0.05 -0.00    +0.000 HD
DOCKED: ENDBRANCH  14  16
DOCKED: ENDBRANCH  10  13
DOCKED: ENDBRANCH   4  11
DOCKED: ENDBRANCH   3   7
DOCKED: ENDBRANCH   1   3
DOCKED: BRANCH   1  18
DOCKED: ATOM     18  C   UNL     1      28.475 -14.216  -0.939 -0.14 -0.00    +0.000 C 
DOCKED: BRANCH  18  19
DOCKED: ATOM     19  C   UNL     1      28.227 -14.780   0.469 -0.25 -0.00    +0.000 C 
DOCKED: BRANCH  19  20
DOCKED: ATOM     20  O   UNL     1      29.435 -15.016   1.142 -0.18 -0.00    +0.000 OA
DOCKED: ATOM     21  H   UNL     1      29.250 -15.241   2.067 -1.76 -0.00    +0.000 HD
DOCKED: ENDBRANCH  19  20
DOCKED: ENDBRANCH  18  19
DOCKED: ENDBRANCH   1  18
DOCKED: BRANCH   1  22
DOCKED: ATOM     22  C   UNL     1      29.587 -15.217  -2.933 -0.14 -0.00    +0.000 C 
DOCKED: BRANCH  22  23
DOCKED: ATOM     23  C   UNL     1      29.322 -14.355  -4.182 -0.14 -0.00    +0.000 C 
DOCKED: BRANCH  23  24
DOCKED: ATOM     24  C   UNL     1      29.843 -15.042  -5.408 -0.21 -0.00    +0.000 A 
DOCKED: ATOM     25  C   UNL     1      30.070 -14.463  -6.653 -0.24 -0.00    +0.000 A 
DOCKED: ATOM     26  N   UNL     1      30.466 -15.400  -7.544 -0.29 -0.00    +0.000 N 
DOCKED: ATOM     27  C   UNL     1      30.475 -16.567  -6.877 -0.29 -0.00    +0.000 A 
DOCKED: ATOM     28  C   UNL     1      30.095 -16.390  -5.571 -0.28 -0.00    +0.000 A 
DOCKED: ATOM     29  C   UNL     1      29.999 -17.459  -4.681 -0.26 -0.00    +0.000 A 
DOCKED: ATOM     30  C   UNL     1      30.318 -18.742  -5.162 -0.27 -0.00    +0.000 A 
DOCKED: ATOM     31  C   UNL     1      30.716 -18.925  -6.506 -0.35 -0.00    +0.000 A 
DOCKED: ATOM     32  C   UNL     1      30.795 -17.827  -7.381 -0.31 -0.00    +0.000 A 
DOCKED: ATOM     33  H   UNL     1      30.700 -15.257  -8.490 -0.25 -0.00    +0.000 HD
DOCKED: ENDBRANCH  23  24
DOCKED: ENDBRANCH  22  23
DOCKED: ENDBRANCH   1  22
DOCKED: TORSDOF 11
DOCKED: TER
DOCKED: ENDMDL
________________________________________________________________________________


	BEGINNING GENETIC ALGORITHM DOCKING 13 of 100
Run: 13 Seed: 709413970 947389440 [ Run 13 of 100 GA/GALS ]
Beginning LAMARCKIAN GENETIC ALGORITHM (LGA), with a maximum of 2500000 energy evaluations.

Final-Value: -16.002


	FINAL GENETIC ALGORITHM DOCKED STATE
	_______________________________________________


Detailed state:  trans 28.566 -14.470 -1.924 quatxyzw -0.020531 -0.080772 0.577400 -0.812197 center 0.459 0.118 0.005 ntor 11 20.9906 -1.3725 114.6858 56.8073 26.6292 89.5821 34.1754 146.3997 -143.1248 14.8288 152.1955
State:	 28.566 -14.470  -1.924  -0.035 -0.138  0.990 -71.378     20.99   -1.37  114.69   56.81   26.63   89.58   34.18  146.40 -143.12   14.83  152.20

DOCKED: MODEL       13
DOCKED: USER    Run = 13
DOCKED: USER    DPF = ligand_dock.biased.dpf
DOCKED: USER  
DOCKED: USER    Estimated Free Energy of Binding    =   -9.34 kcal/mol  [=(1)+(2)+(3)-(4)]
DOCKED: USER    Estimated Inhibition Constant, Ki   =  143.62 nM (nanomolar)  [Temperature = 298.15 K]
DOCKED: USER    
DOCKED: USER    (1) Final Intermolecular Energy     =  -12.62 kcal/mol
DOCKED: USER        vdW + Hbond + desolv Energy     =  -12.62 kcal/mol
DOCKED: USER        Electrostatic Energy            =   +0.00 kcal/mol
DOCKED: USER    (2) Final Total Internal Energy     =   -3.39 kcal/mol
DOCKED: USER    (3) Torsional Free Energy           =   +3.28 kcal/mol
DOCKED: USER    (4) Unbound System's Energy  [=(2)] =   -3.39 kcal/mol
DOCKED: USER    
DOCKED: USER    
DOCKED: USER    NEWDPF move ligand.pdbqt
DOCKED: USER    NEWDPF about 0.459000 0.118000 0.005000
DOCKED: USER    NEWDPF tran0 28.566191 -14.470077 -1.923750
DOCKED: USER    NEWDPF quaternion0 -0.020531 -0.080772 0.577400 -0.812197
DOCKED: USER    NEWDPF axisangle0 -0.035194 -0.138454 0.989743 -71.377729
DOCKED: USER    NEWDPF quat0 -0.035194 -0.138454 0.989743 -71.377729
DOCKED: USER    NEWDPF dihe0 20.99 -1.37 114.69 56.81 26.63 89.58 34.18 146.40 -143.12 14.83 152.20 
DOCKED: USER  keepresnum = 1 
DOCKED: USER  
DOCKED: REMARK  Name = 
DOCKED: REMARK  11 active torsions:
DOCKED: REMARK  status: ('A' for Active; 'I' for Inactive)
DOCKED: REMARK    1  A    between atoms: C_2  and  C_5
DOCKED: REMARK    2  A    between atoms: N_3  and  O_4
DOCKED: REMARK    3  A    between atoms: C_6  and  C_7
DOCKED: REMARK    4  A    between atoms: C_10  and  C_11
DOCKED: REMARK    5  A    between atoms: C_11  and  N_12
DOCKED: REMARK    6  A    between atoms: N_12  and  C_13
DOCKED: REMARK    7  A    between atoms: N_12  and  C_16
DOCKED: REMARK    8  A    between atoms: C_13  and  C_14
DOCKED: REMARK    9  A    between atoms: C_14  and  O_15
DOCKED: REMARK   10  A    between atoms: C_16  and  C_17
DOCKED: REMARK   11  A    between atoms: C_17  and  C_18
DOCKED: REMARK                            x       y       z     vdW  Elec       q    Type
DOCKED: REMARK                         _______ _______ _______ _____ _____    ______ ____
DOCKED: USER                              x       y       z     vdW  Elec       q    Type
DOCKED: USER                           _______ _______ _______ _____ _____    ______ ____
DOCKED: ROOT
DOCKED: ATOM      1  N   UNL     1      29.409 -15.746  -1.857 -0.14 -0.00    +0.000 N 
DOCKED: ATOM      2  H   UNL     1      29.621 -15.106  -2.622 +0.01 -0.00    +0.000 HD
DOCKED: ENDROOT
DOCKED: BRANCH   1   3
DOCKED: ATOM      3  C   UNL     1      28.385 -15.113  -0.996 -0.21 -0.00    +0.000 C 
DOCKED: BRANCH   3   7
DOCKED: ATOM      4  C   UNL     1      24.810 -17.549  -0.949 -0.63 -0.00    +0.000 A 
DOCKED: ATOM      5  C   UNL     1      24.915 -16.456  -1.824 -0.53 -0.00    +0.000 A 
DOCKED: ATOM      6  C   UNL     1      26.065 -15.660  -1.836 -0.42 -0.00    +0.000 A 
DOCKED: ATOM      7  C   UNL     1      27.135 -15.952  -0.978 -0.34 -0.00    +0.000 A 
DOCKED: ATOM      8  C   UNL     1      27.046 -17.054  -0.117 -0.42 -0.00    +0.000 A 
DOCKED: ATOM      9  C   UNL     1      25.897 -17.850  -0.103 -0.57 -0.00    +0.000 A 
DOCKED: BRANCH   4  11
DOCKED: ATOM     10  C   UNL     1      22.378 -17.923  -0.579 -0.82 -0.00    +0.000 C 
DOCKED: ATOM     11  C   UNL     1      23.576 -18.372  -0.981 -0.81 -0.00    +0.000 C 
DOCKED: BRANCH  10  13
DOCKED: ATOM     12  O   UNL     1      20.095 -18.214  -1.078 -1.97 -0.00    +0.000 OA
DOCKED: ATOM     13  C   UNL     1      21.149 -18.740  -0.630 -0.85 -0.00    +0.000 C 
DOCKED: ATOM     14  N   UNL     1      21.111 -20.094  -0.160 -0.59 -0.00    +0.000 N 
DOCKED: ATOM     15  H   UNL     1      21.898 -20.478   0.291 -0.59 -0.00    +0.000 HD
DOCKED: BRANCH  14  16
DOCKED: ATOM     16  O   UNL     1      19.998 -20.845  -0.332 -0.71 -0.00    +0.000 OA
DOCKED: ATOM     17  H   UNL     1      19.464 -20.472  -1.051 -0.54 -0.00    +0.000 HD
DOCKED: ENDBRANCH  14  16
DOCKED: ENDBRANCH  10  13
DOCKED: ENDBRANCH   4  11
DOCKED: ENDBRANCH   3   7
DOCKED: ENDBRANCH   1   3
DOCKED: BRANCH   1  18
DOCKED: ATOM     18  C   UNL     1      30.688 -15.930  -1.132 -0.11 -0.00    +0.000 C 
DOCKED: BRANCH  18  19
DOCKED: ATOM     19  C   UNL     1      31.780 -14.966  -1.621 -0.02 -0.00    +0.000 C 
DOCKED: BRANCH  19  20
DOCKED: ATOM     20  O   UNL     1      31.225 -13.762  -2.079 -0.02 -0.00    +0.000 OA
DOCKED: ATOM     21  H   UNL     1      30.647 -13.941  -2.838 +0.00 -0.00    +0.000 HD
DOCKED: ENDBRANCH  19  20
DOCKED: ENDBRANCH  18  19
DOCKED: ENDBRANCH   1  18
DOCKED: BRANCH   1  22
DOCKED: ATOM     22  C   UNL     1      28.897 -16.971  -2.520 -0.21 -0.00    +0.000 C 
DOCKED: BRANCH  22  23
DOCKED: ATOM     23  C   UNL     1      29.538 -17.261  -3.891 -0.11 -0.00    +0.000 C 
DOCKED: BRANCH  23  24
DOCKED: ATOM     24  C   UNL     1      29.674 -15.994  -4.679 -0.24 -0.00    +0.000 A 
DOCKED: ATOM     25  C   UNL     1      30.834 -15.503  -5.271 -0.13 -0.00    +0.000 A 
DOCKED: ATOM     26  N   UNL     1      30.602 -14.295  -5.832 -0.11 -0.00    +0.000 N 
DOCKED: ATOM     27  C   UNL     1      29.311 -14.012  -5.587 -0.19 -0.00    +0.000 A 
DOCKED: ATOM     28  C   UNL     1      28.712 -15.023  -4.879 -0.28 -0.00    +0.000 A 
DOCKED: ATOM     29  C   UNL     1      27.378 -14.951  -4.479 -0.38 -0.00    +0.000 A 
DOCKED: ATOM     30  C   UNL     1      26.649 -13.802  -4.834 -0.31 -0.00    +0.000 A 
DOCKED: ATOM     31  C   UNL     1      27.262 -12.762  -5.568 -0.19 -0.00    +0.000 A 
DOCKED: ATOM     32  C   UNL     1      28.612 -12.861  -5.951 -0.18 -0.00    +0.000 A 
DOCKED: ATOM     33  H   UNL     1      31.247 -13.735  -6.322 +0.00 -0.00    +0.000 HD
DOCKED: ENDBRANCH  23  24
DOCKED: ENDBRANCH  22  23
DOCKED: ENDBRANCH   1  22
DOCKED: TORSDOF 11
DOCKED: TER
DOCKED: ENDMDL
________________________________________________________________________________


	BEGINNING GENETIC ALGORITHM DOCKING 14 of 100
Run: 14 Seed: 2107093927 264441923 [ Run 14 of 100 GA/GALS ]
Beginning LAMARCKIAN GENETIC ALGORITHM (LGA), with a maximum of 2500000 energy evaluations.

Final-Value: -16.555


	FINAL GENETIC ALGORITHM DOCKED STATE
	_______________________________________________


Detailed state:  trans 28.575 -16.058 -1.861 quatxyzw 0.824364 -0.024536 -0.239104 -0.512494 center 0.459 0.118 0.005 ntor 11 -4.7706 136.2416 76.7567 51.9163 -45.6049 19.2109 -179.9071 130.0467 -179.4528 -17.3889 180.0000
State:	 28.575 -16.058  -1.861   0.960 -0.029 -0.278 -118.340     -4.77  136.24   76.76   51.92  -45.60   19.21 -179.91  130.05 -179.45  -17.39  180.00

DOCKED: MODEL       14
DOCKED: USER    Run = 14
DOCKED: USER    DPF = ligand_dock.biased.dpf
DOCKED: USER  
DOCKED: USER    Estimated Free Energy of Binding    =  -10.06 kcal/mol  [=(1)+(2)+(3)-(4)]
DOCKED: USER    Estimated Inhibition Constant, Ki   =   42.10 nM (nanomolar)  [Temperature = 298.15 K]
DOCKED: USER    
DOCKED: USER    (1) Final Intermolecular Energy     =  -13.34 kcal/mol
DOCKED: USER        vdW + Hbond + desolv Energy     =  -13.34 kcal/mol
DOCKED: USER        Electrostatic Energy            =   +0.00 kcal/mol
DOCKED: USER    (2) Final Total Internal Energy     =   -3.21 kcal/mol
DOCKED: USER    (3) Torsional Free Energy           =   +3.28 kcal/mol
DOCKED: USER    (4) Unbound System's Energy  [=(2)] =   -3.21 kcal/mol
DOCKED: USER    
DOCKED: USER    
DOCKED: USER    NEWDPF move ligand.pdbqt
DOCKED: USER    NEWDPF about 0.459000 0.118000 0.005000
DOCKED: USER    NEWDPF tran0 28.574897 -16.057706 -1.860596
DOCKED: USER    NEWDPF quaternion0 0.824364 -0.024536 -0.239104 -0.512494
DOCKED: USER    NEWDPF axisangle0 0.960025 -0.028573 -0.278452 -118.339744
DOCKED: USER    NEWDPF quat0 0.960025 -0.028573 -0.278452 -118.339744
DOCKED: USER    NEWDPF dihe0 -4.77 136.24 76.76 51.92 -45.60 19.21 -179.91 130.05 -179.45 -17.39 180.00 
DOCKED: USER  keepresnum = 1 
DOCKED: USER  
DOCKED: REMARK  Name = 
DOCKED: REMARK  11 active torsions:
DOCKED: REMARK  status: ('A' for Active; 'I' for Inactive)
DOCKED: REMARK    1  A    between atoms: C_2  and  C_5
DOCKED: REMARK    2  A    between atoms: N_3  and  O_4
DOCKED: REMARK    3  A    between atoms: C_6  and  C_7
DOCKED: REMARK    4  A    between atoms: C_10  and  C_11
DOCKED: REMARK    5  A    between atoms: C_11  and  N_12
DOCKED: REMARK    6  A    between atoms: N_12  and  C_13
DOCKED: REMARK    7  A    between atoms: N_12  and  C_16
DOCKED: REMARK    8  A    between atoms: C_13  and  C_14
DOCKED: REMARK    9  A    between atoms: C_14  and  O_15
DOCKED: REMARK   10  A    between atoms: C_16  and  C_17
DOCKED: REMARK   11  A    between atoms: C_17  and  C_18
DOCKED: REMARK                            x       y       z     vdW  Elec       q    Type
DOCKED: REMARK                         _______ _______ _______ _____ _____    ______ ____
DOCKED: USER                              x       y       z     vdW  Elec       q    Type
DOCKED: USER                           _______ _______ _______ _____ _____    ______ ____
DOCKED: ROOT
DOCKED: ATOM      1  N   UNL     1      27.503 -15.226  -2.569 -0.25 -0.00    +0.000 N 
DOCKED: ATOM      2  H   UNL     1      28.392 -14.758  -2.393 +0.01 -0.00    +0.000 HD
DOCKED: ENDROOT
DOCKED: BRANCH   1   3
DOCKED: ATOM      3  C   UNL     1      27.632 -16.638  -2.145 -0.33 -0.00    +0.000 C 
DOCKED: BRANCH   3   7
DOCKED: ATOM      4  C   UNL     1      23.850 -18.039  -0.580 -0.70 -0.00    +0.000 A 
DOCKED: ATOM      5  C   UNL     1      25.031 -18.201   0.162 -0.51 -0.00    +0.000 A 
DOCKED: ATOM      6  C   UNL     1      26.257 -17.758  -0.344 -0.56 -0.00    +0.000 A 
DOCKED: ATOM      7  C   UNL     1      26.320 -17.135  -1.599 -0.44 -0.00    +0.000 A 
DOCKED: ATOM      8  C   UNL     1      25.142 -16.951  -2.336 -0.49 -0.00    +0.000 A 
DOCKED: ATOM      9  C   UNL     1      23.916 -17.395  -1.832 -0.41 -0.00    +0.000 A 
DOCKED: BRANCH   4  11
DOCKED: ATOM     10  C   UNL     1      21.629 -19.156  -0.703 -0.84 -0.00    +0.000 C 
DOCKED: ATOM     11  C   UNL     1      22.571 -18.513   0.004 -0.78 -0.00    +0.000 C 
DOCKED: BRANCH  10  13
DOCKED: ATOM     12  O   UNL     1      19.357 -19.752  -0.858 -1.18 -0.00    +0.000 OA
DOCKED: ATOM     13  C   UNL     1      20.367 -19.642  -0.113 -0.85 -0.00    +0.000 C 
DOCKED: ATOM     14  N   UNL     1      20.247 -19.962   1.280 -0.67 -0.00    +0.000 N 
DOCKED: ATOM     15  H   UNL     1      20.997 -19.777   1.891 -0.54 -0.00    +0.000 HD
DOCKED: BRANCH  14  16
DOCKED: ATOM     16  O   UNL     1      19.108 -20.515   1.758 -0.71 -0.00    +0.000 OA
DOCKED: ATOM     17  H   UNL     1      18.447 -20.562   1.048 -0.03 -0.00    +0.000 HD
DOCKED: ENDBRANCH  14  16
DOCKED: ENDBRANCH  10  13
DOCKED: ENDBRANCH   4  11
DOCKED: ENDBRANCH   3   7
DOCKED: ENDBRANCH   1   3
DOCKED: BRANCH   1  18
DOCKED: ATOM     18  C   UNL     1      27.283 -15.117  -4.031 -0.41 -0.00    +0.000 C 
DOCKED: BRANCH  18  19
DOCKED: ATOM     19  C   UNL     1      28.470 -14.457  -4.751 -0.28 -0.00    +0.000 C 
DOCKED: BRANCH  19  20
DOCKED: ATOM     20  O   UNL     1      29.405 -13.956  -3.834 -0.10 -0.00    +0.000 OA
DOCKED: ATOM     21  H   UNL     1      29.916 -14.692  -3.459 +0.01 -0.00    +0.000 HD
DOCKED: ENDBRANCH  19  20
DOCKED: ENDBRANCH  18  19
DOCKED: ENDBRANCH   1  18
DOCKED: BRANCH   1  22
DOCKED: ATOM     22  C   UNL     1      26.517 -14.486  -1.743 -0.32 -0.00    +0.000 C 
DOCKED: BRANCH  22  23
DOCKED: ATOM     23  C   UNL     1      27.132 -13.372  -0.874 -0.22 -0.00    +0.000 C 
DOCKED: BRANCH  23  24
DOCKED: ATOM     24  C   UNL     1      28.167 -13.945   0.047 -0.16 -0.00    +0.000 A 
DOCKED: ATOM     25  C   UNL     1      27.949 -14.485   1.311 -0.24 -0.00    +0.000 A 
DOCKED: ATOM     26  N   UNL     1      29.122 -14.832   1.885 -0.02 -0.00    +0.000 N 
DOCKED: ATOM     27  C   UNL     1      30.080 -14.502   1.002 -0.12 -0.00    +0.000 A 
DOCKED: ATOM     28  C   UNL     1      29.537 -13.952  -0.131 -0.08 -0.00    +0.000 A 
DOCKED: ATOM     29  C   UNL     1      30.331 -13.502  -1.185 -0.02 -0.00    +0.000 A 
DOCKED: ATOM     30  C   UNL     1      31.725 -13.640  -1.060 -0.01 -0.00    +0.000 A 
DOCKED: ATOM     31  C   UNL     1      32.287 -14.212   0.104 -0.02 -0.00    +0.000 A 
DOCKED: ATOM     32  C   UNL     1      31.459 -14.649   1.154 -0.08 -0.00    +0.000 A 
DOCKED: ATOM     33  H   UNL     1      29.250 -15.243   2.771 -1.99 -0.00    +0.000 HD
DOCKED: ENDBRANCH  23  24
DOCKED: ENDBRANCH  22  23
DOCKED: ENDBRANCH   1  22
DOCKED: TORSDOF 11
DOCKED: TER
DOCKED: ENDMDL
________________________________________________________________________________


	BEGINNING GENETIC ALGORITHM DOCKING 15 of 100
Run: 15 Seed: 1045419176 925154047 [ Run 15 of 100 GA/GALS ]
Beginning LAMARCKIAN GENETIC ALGORITHM (LGA), with a maximum of 2500000 energy evaluations.

Final-Value: -19.398


	FINAL GENETIC ALGORITHM DOCKED STATE
	_______________________________________________


Detailed state:  trans 28.200 -16.866 0.247 quatxyzw 0.788065 -0.550751 0.267723 0.062863 center 0.459 0.118 0.005 ntor 11 -0.1830 7.7024 161.0630 -19.8546 -179.9098 133.1941 -9.4810 -54.0413 165.3713 23.1164 89.9615
State:	 28.200 -16.866   0.247   0.790 -0.552  0.268 172.792     -0.18    7.70  161.06  -19.85 -179.91  133.19   -9.48  -54.04  165.37   23.12   89.96

DOCKED: MODEL       15
DOCKED: USER    Run = 15
DOCKED: USER    DPF = ligand_dock.biased.dpf
DOCKED: USER  
DOCKED: USER    Estimated Free Energy of Binding    =  -13.53 kcal/mol  [=(1)+(2)+(3)-(4)]
DOCKED: USER    Estimated Inhibition Constant, Ki   =  121.44 pM (picomolar)  [Temperature = 298.15 K]
DOCKED: USER    
DOCKED: USER    (1) Final Intermolecular Energy     =  -16.81 kcal/mol
DOCKED: USER        vdW + Hbond + desolv Energy     =  -16.81 kcal/mol
DOCKED: USER        Electrostatic Energy            =   +0.00 kcal/mol
DOCKED: USER    (2) Final Total Internal Energy     =   -2.59 kcal/mol
DOCKED: USER    (3) Torsional Free Energy           =   +3.28 kcal/mol
DOCKED: USER    (4) Unbound System's Energy  [=(2)] =   -2.59 kcal/mol
DOCKED: USER    
DOCKED: USER    
DOCKED: USER    NEWDPF move ligand.pdbqt
DOCKED: USER    NEWDPF about 0.459000 0.118000 0.005000
DOCKED: USER    NEWDPF tran0 28.199822 -16.866237 0.246973
DOCKED: USER    NEWDPF quaternion0 0.788065 -0.550751 0.267723 0.062863
DOCKED: USER    NEWDPF axisangle0 0.789626 -0.551843 0.268253 172.791658
DOCKED: USER    NEWDPF quat0 0.789626 -0.551843 0.268253 172.791658
DOCKED: USER    NEWDPF dihe0 -0.18 7.70 161.06 -19.85 -179.91 133.19 -9.48 -54.04 165.37 23.12 89.96 
DOCKED: USER  keepresnum = 1 
DOCKED: USER  
DOCKED: REMARK  Name = 
DOCKED: REMARK  11 active torsions:
DOCKED: REMARK  status: ('A' for Active; 'I' for Inactive)
DOCKED: REMARK    1  A    between atoms: C_2  and  C_5
DOCKED: REMARK    2  A    between atoms: N_3  and  O_4
DOCKED: REMARK    3  A    between atoms: C_6  and  C_7
DOCKED: REMARK    4  A    between atoms: C_10  and  C_11
DOCKED: REMARK    5  A    between atoms: C_11  and  N_12
DOCKED: REMARK    6  A    between atoms: N_12  and  C_13
DOCKED: REMARK    7  A    between atoms: N_12  and  C_16
DOCKED: REMARK    8  A    between atoms: C_13  and  C_14
DOCKED: REMARK    9  A    between atoms: C_14  and  O_15
DOCKED: REMARK   10  A    between atoms: C_16  and  C_17
DOCKED: REMARK   11  A    between atoms: C_17  and  C_18
DOCKED: REMARK                            x       y       z     vdW  Elec       q    Type
DOCKED: REMARK                         _______ _______ _______ _____ _____    ______ ____
DOCKED: USER                              x       y       z     vdW  Elec       q    Type
DOCKED: USER                           _______ _______ _______ _____ _____    ______ ____
DOCKED: ROOT
DOCKED: ATOM      1  N   UNL     1      28.993 -15.565   0.392 -0.19 -0.00    +0.000 N 
DOCKED: ATOM      2  H   UNL     1      28.641 -15.976   1.256 -0.83 -0.00    +0.000 HD
DOCKED: ENDROOT
DOCKED: BRANCH   1   3
DOCKED: ATOM      3  C   UNL     1      28.676 -16.488  -0.720 -0.29 -0.00    +0.000 C 
DOCKED: BRANCH   3   7
DOCKED: ATOM      4  C   UNL     1      24.417 -17.242  -0.824 -0.62 -0.00    +0.000 A 
DOCKED: ATOM      5  C   UNL     1      25.262 -18.039  -0.034 -0.57 -0.00    +0.000 A 
DOCKED: ATOM      6  C   UNL     1      26.640 -17.804  -0.004 -0.50 -0.00    +0.000 A 
DOCKED: ATOM      7  C   UNL     1      27.196 -16.761  -0.760 -0.41 -0.00    +0.000 A 
DOCKED: ATOM      8  C   UNL     1      26.355 -15.949  -1.533 -0.40 -0.00    +0.000 A 
DOCKED: ATOM      9  C   UNL     1      24.978 -16.183  -1.564 -0.47 -0.00    +0.000 A 
DOCKED: BRANCH   4  11
DOCKED: ATOM     10  C   UNL     1      22.439 -18.718  -0.506 -0.83 -0.00    +0.000 C 
DOCKED: ATOM     11  C   UNL     1      22.960 -17.521  -0.812 -0.76 -0.00    +0.000 C 
DOCKED: BRANCH  10  13
DOCKED: ATOM     12  O   UNL     1      20.217 -18.191  -1.081 -2.07 -0.00    +0.000 OA
DOCKED: ATOM     13  C   UNL     1      20.987 -18.985  -0.478 -0.87 -0.00    +0.000 C 
DOCKED: ATOM     14  N   UNL     1      20.428 -20.096   0.236 -0.71 -0.00    +0.000 N 
DOCKED: ATOM     15  H   UNL     1      21.007 -20.658   0.798 -0.59 -0.00    +0.000 HD
DOCKED: BRANCH  14  16
DOCKED: ATOM     16  O   UNL     1      19.106 -20.373   0.140 -0.83 -0.00    +0.000 OA
DOCKED: ATOM     17  H   UNL     1      18.681 -19.728  -0.447 -0.18 -0.00    +0.000 HD
DOCKED: ENDBRANCH  14  16
DOCKED: ENDBRANCH  10  13
DOCKED: ENDBRANCH   4  11
DOCKED: ENDBRANCH   3   7
DOCKED: ENDBRANCH   1   3
DOCKED: BRANCH   1  18
DOCKED: ATOM     18  C   UNL     1      30.456 -15.432   0.586 -0.12 -0.00    +0.000 C 
DOCKED: BRANCH  18  19
DOCKED: ATOM     19  C   UNL     1      30.809 -14.387   1.656 -0.13 -0.00    +0.000 C 
DOCKED: BRANCH  19  20
DOCKED: ATOM     20  O   UNL     1      30.595 -14.891   2.947 -0.27 -0.00    +0.000 OA
DOCKED: ATOM     21  H   UNL     1      29.690 -15.234   3.014 -1.62 -0.00    +0.000 HD
DOCKED: ENDBRANCH  19  20
DOCKED: ENDBRANCH  18  19
DOCKED: ENDBRANCH   1  18
DOCKED: BRANCH   1  22
DOCKED: ATOM     22  C   UNL     1      28.270 -14.275   0.266 -0.21 -0.00    +0.000 C 
DOCKED: BRANCH  22  23
DOCKED: ATOM     23  C   UNL     1      26.992 -14.182   1.122 -0.21 -0.00    +0.000 C 
DOCKED: BRANCH  23  24
DOCKED: ATOM     24  C   UNL     1      27.124 -13.082   2.133 -0.29 -0.00    +0.000 A 
DOCKED: ATOM     25  C   UNL     1      26.884 -11.728   1.923 -0.29 +0.00    +0.000 A 
DOCKED: ATOM     26  N   UNL     1      27.180 -11.018   3.036 -0.30 +0.00    +0.000 N 
DOCKED: ATOM     27  C   UNL     1      27.620 -11.911   3.940 -0.24 +0.00    +0.000 A 
DOCKED: ATOM     28  C   UNL     1      27.606 -13.182   3.423 -0.34 -0.00    +0.000 A 
DOCKED: ATOM     29  C   UNL     1      28.044 -14.281   4.161 -0.50 -0.00    +0.000 A 
DOCKED: ATOM     30  C   UNL     1      28.497 -14.051   5.472 -0.41 -0.00    +0.000 A 
DOCKED: ATOM     31  C   UNL     1      28.507 -12.743   6.008 -0.39 -0.00    +0.000 A 
DOCKED: ATOM     32  C   UNL     1      28.066 -11.653   5.236 -0.35 +0.00    +0.000 A 
DOCKED: ATOM     33  H   UNL     1      27.092 -10.045   3.159 -0.03 +0.00    +0.000 HD
DOCKED: ENDBRANCH  23  24
DOCKED: ENDBRANCH  22  23
DOCKED: ENDBRANCH   1  22
DOCKED: TORSDOF 11
DOCKED: TER
DOCKED: ENDMDL
________________________________________________________________________________


	BEGINNING GENETIC ALGORITHM DOCKING 16 of 100
Run: 16 Seed: 1296720261 601312571 [ Run 16 of 100 GA/GALS ]
Beginning LAMARCKIAN GENETIC ALGORITHM (LGA), with a maximum of 2500000 energy evaluations.

Final-Value: -17.158


	FINAL GENETIC ALGORITHM DOCKED STATE
	_______________________________________________


Detailed state:  trans 28.493 -15.670 -1.783 quatxyzw 0.198111 -0.539948 0.818049 -0.001981 center 0.459 0.118 0.005 ntor 11 -0.3802 101.7355 -147.6413 43.0168 -72.8571 -163.2982 -174.2661 141.6184 155.9714 172.3941 -7.4317
State:	 28.493 -15.670  -1.783   0.198 -0.540  0.818 -179.773     -0.38  101.74 -147.64   43.02  -72.86 -163.30 -174.27  141.62  155.97  172.39   -7.43

DOCKED: MODEL       16
DOCKED: USER    Run = 16
DOCKED: USER    DPF = ligand_dock.biased.dpf
DOCKED: USER  
DOCKED: USER    Estimated Free Energy of Binding    =  -10.81 kcal/mol  [=(1)+(2)+(3)-(4)]
DOCKED: USER    Estimated Inhibition Constant, Ki   =   11.93 nM (nanomolar)  [Temperature = 298.15 K]
DOCKED: USER    
DOCKED: USER    (1) Final Intermolecular Energy     =  -14.09 kcal/mol
DOCKED: USER        vdW + Hbond + desolv Energy     =  -14.09 kcal/mol
DOCKED: USER        Electrostatic Energy            =   +0.00 kcal/mol
DOCKED: USER    (2) Final Total Internal Energy     =   -3.07 kcal/mol
DOCKED: USER    (3) Torsional Free Energy           =   +3.28 kcal/mol
DOCKED: USER    (4) Unbound System's Energy  [=(2)] =   -3.07 kcal/mol
DOCKED: USER    
DOCKED: USER    
DOCKED: USER    NEWDPF move ligand.pdbqt
DOCKED: USER    NEWDPF about 0.459000 0.118000 0.005000
DOCKED: USER    NEWDPF tran0 28.492540 -15.670011 -1.782758
DOCKED: USER    NEWDPF quaternion0 0.198111 -0.539948 0.818049 -0.001981
DOCKED: USER    NEWDPF axisangle0 0.198111 -0.539949 0.818051 -179.773016
DOCKED: USER    NEWDPF quat0 0.198111 -0.539949 0.818051 -179.773016
DOCKED: USER    NEWDPF dihe0 -0.38 101.74 -147.64 43.02 -72.86 -163.30 -174.27 141.62 155.97 172.39 -7.43 
DOCKED: USER  keepresnum = 1 
DOCKED: USER  
DOCKED: REMARK  Name = 
DOCKED: REMARK  11 active torsions:
DOCKED: REMARK  status: ('A' for Active; 'I' for Inactive)
DOCKED: REMARK    1  A    between atoms: C_2  and  C_5
DOCKED: REMARK    2  A    between atoms: N_3  and  O_4
DOCKED: REMARK    3  A    between atoms: C_6  and  C_7
DOCKED: REMARK    4  A    between atoms: C_10  and  C_11
DOCKED: REMARK    5  A    between atoms: C_11  and  N_12
DOCKED: REMARK    6  A    between atoms: N_12  and  C_13
DOCKED: REMARK    7  A    between atoms: N_12  and  C_16
DOCKED: REMARK    8  A    between atoms: C_13  and  C_14
DOCKED: REMARK    9  A    between atoms: C_14  and  O_15
DOCKED: REMARK   10  A    between atoms: C_16  and  C_17
DOCKED: REMARK   11  A    between atoms: C_17  and  C_18
DOCKED: REMARK                            x       y       z     vdW  Elec       q    Type
DOCKED: REMARK                         _______ _______ _______ _____ _____    ______ ____
DOCKED: USER                              x       y       z     vdW  Elec       q    Type
DOCKED: USER                           _______ _______ _______ _____ _____    ______ ____
DOCKED: ROOT
DOCKED: ATOM      1  N   UNL     1      29.613 -14.977  -1.003 -0.10 -0.00    +0.000 N 
DOCKED: ATOM      2  H   UNL     1      28.781 -14.417  -1.189 +0.01 -0.00    +0.000 HD
DOCKED: ENDROOT
DOCKED: BRANCH   1   3
DOCKED: ATOM      3  C   UNL     1      29.362 -16.351  -1.491 -0.23 -0.00    +0.000 C 
DOCKED: BRANCH   3   7
DOCKED: ATOM      4  C   UNL     1      25.335 -17.594  -0.513 -0.59 -0.00    +0.000 A 
DOCKED: ATOM      5  C   UNL     1      25.555 -16.483  -1.344 -0.51 -0.00    +0.000 A 
DOCKED: ATOM      6  C   UNL     1      26.855 -16.073  -1.656 -0.36 -0.00    +0.000 A 
DOCKED: ATOM      7  C   UNL     1      27.959 -16.774  -1.147 -0.34 -0.00    +0.000 A 
DOCKED: ATOM      8  C   UNL     1      27.746 -17.895  -0.334 +0.03 -0.00    +0.000 A 
DOCKED: ATOM      9  C   UNL     1      26.447 -18.306  -0.021 -0.53 -0.00    +0.000 A 
DOCKED: BRANCH   4  11
DOCKED: ATOM     10  C   UNL     1      22.954 -17.968  -1.132 -0.76 -0.00    +0.000 C 
DOCKED: ATOM     11  C   UNL     1      23.938 -17.999  -0.221 -0.73 -0.00    +0.000 C 
DOCKED: BRANCH  10  13
DOCKED: ATOM     12  O   UNL     1      20.631 -17.584  -1.080 -2.14 -0.00    +0.000 OA
DOCKED: ATOM     13  C   UNL     1      21.569 -18.390  -0.841 -0.81 -0.00    +0.000 C 
DOCKED: ATOM     14  N   UNL     1      21.265 -19.669  -0.268 -0.71 -0.00    +0.000 N 
DOCKED: ATOM     15  H   UNL     1      21.995 -20.261   0.023 -0.53 -0.00    +0.000 HD
DOCKED: BRANCH  14  16
DOCKED: ATOM     16  O   UNL     1      19.977 -20.063  -0.126 -0.90 -0.00    +0.000 OA
DOCKED: ATOM     17  H   UNL     1      19.386 -19.367  -0.455 -0.06 -0.00    +0.000 HD
DOCKED: ENDBRANCH  14  16
DOCKED: ENDBRANCH  10  13
DOCKED: ENDBRANCH   4  11
DOCKED: ENDBRANCH   3   7
DOCKED: ENDBRANCH   1   3
DOCKED: BRANCH   1  18
DOCKED: ATOM     18  C   UNL     1      29.786 -14.948   0.468 -0.15 -0.00    +0.000 C 
DOCKED: BRANCH  18  19
DOCKED: ATOM     19  C   UNL     1      28.771 -14.023   1.157 -0.20 -0.00    +0.000 C 
DOCKED: BRANCH  19  20
DOCKED: ATOM     20  O   UNL     1      28.098 -14.688   2.192 -0.33 -0.00    +0.000 OA
DOCKED: ATOM     21  H   UNL     1      28.727 -15.240   2.684 -1.85 -0.00    +0.000 HD
DOCKED: ENDBRANCH  19  20
DOCKED: ENDBRANCH  18  19
DOCKED: ENDBRANCH   1  18
DOCKED: BRANCH   1  22
DOCKED: ATOM     22  C   UNL     1      30.697 -14.307  -1.763 -0.03 -0.00    +0.000 C 
DOCKED: BRANCH  22  23
DOCKED: ATOM     23  C   UNL     1      30.214 -13.543  -3.011 -0.04 -0.00    +0.000 C 
DOCKED: BRANCH  23  24
DOCKED: ATOM     24  C   UNL     1      29.271 -14.394  -3.807 -0.11 -0.00    +0.000 A 
DOCKED: ATOM     25  C   UNL     1      29.615 -15.391  -4.715 -0.20 -0.00    +0.000 A 
DOCKED: ATOM     26  N   UNL     1      28.507 -15.894  -5.305 -0.37 -0.00    +0.000 N 
DOCKED: ATOM     27  C   UNL     1      27.469 -15.214  -4.789 -0.41 -0.00    +0.000 A 
DOCKED: ATOM     28  C   UNL     1      27.896 -14.284  -3.875 -0.22 -0.00    +0.000 A 
DOCKED: ATOM     29  C   UNL     1      27.006 -13.432  -3.221 -0.22 -0.00    +0.000 A 
DOCKED: ATOM     30  C   UNL     1      25.637 -13.560  -3.520 -0.21 -0.00    +0.000 A 
DOCKED: ATOM     31  C   UNL     1      25.195 -14.522  -4.457 -0.15 -0.00    +0.000 A 
DOCKED: ATOM     32  C   UNL     1      26.119 -15.361  -5.106 -0.31 -0.00    +0.000 A 
DOCKED: ATOM     33  H   UNL     1      28.468 -16.614  -5.976 -0.02 +0.00    +0.000 HD
DOCKED: ENDBRANCH  23  24
DOCKED: ENDBRANCH  22  23
DOCKED: ENDBRANCH   1  22
DOCKED: TORSDOF 11
DOCKED: TER
DOCKED: ENDMDL
________________________________________________________________________________


	BEGINNING GENETIC ALGORITHM DOCKING 17 of 100
Run: 17 Seed: 519580495 425824482 [ Run 17 of 100 GA/GALS ]
Beginning LAMARCKIAN GENETIC ALGORITHM (LGA), with a maximum of 2500000 energy evaluations.

Final-Value: -16.578


	FINAL GENETIC ALGORITHM DOCKED STATE
	_______________________________________________


Detailed state:  trans 28.279 -14.989 -0.262 quatxyzw 0.224528 -0.343339 0.355296 -0.839923 center 0.459 0.118 0.005 ntor 11 3.5009 123.4037 114.4204 78.1530 129.7128 -72.5548 156.3837 83.0424 -159.5522 180.0000 180.0000
State:	 28.279 -14.989  -0.262   0.414 -0.633  0.655 -65.736      3.50  123.40  114.42   78.15  129.71  -72.55  156.38   83.04 -159.55  180.00  180.00

DOCKED: MODEL       17
DOCKED: USER    Run = 17
DOCKED: USER    DPF = ligand_dock.biased.dpf
DOCKED: USER  
DOCKED: USER    Estimated Free Energy of Binding    =  -10.40 kcal/mol  [=(1)+(2)+(3)-(4)]
DOCKED: USER    Estimated Inhibition Constant, Ki   =   23.64 nM (nanomolar)  [Temperature = 298.15 K]
DOCKED: USER    
DOCKED: USER    (1) Final Intermolecular Energy     =  -13.69 kcal/mol
DOCKED: USER        vdW + Hbond + desolv Energy     =  -13.69 kcal/mol
DOCKED: USER        Electrostatic Energy            =   +0.00 kcal/mol
DOCKED: USER    (2) Final Total Internal Energy     =   -2.89 kcal/mol
DOCKED: USER    (3) Torsional Free Energy           =   +3.28 kcal/mol
DOCKED: USER    (4) Unbound System's Energy  [=(2)] =   -2.89 kcal/mol
DOCKED: USER    
DOCKED: USER    
DOCKED: USER    NEWDPF move ligand.pdbqt
DOCKED: USER    NEWDPF about 0.459000 0.118000 0.005000
DOCKED: USER    NEWDPF tran0 28.278875 -14.988766 -0.262429
DOCKED: USER    NEWDPF quaternion0 0.224528 -0.343339 0.355296 -0.839923
DOCKED: USER    NEWDPF axisangle0 0.413719 -0.632643 0.654675 -65.736109
DOCKED: USER    NEWDPF quat0 0.413719 -0.632643 0.654675 -65.736109
DOCKED: USER    NEWDPF dihe0 3.50 123.40 114.42 78.15 129.71 -72.55 156.38 83.04 -159.55 180.00 180.00 
DOCKED: USER  keepresnum = 1 
DOCKED: USER  
DOCKED: REMARK  Name = 
DOCKED: REMARK  11 active torsions:
DOCKED: REMARK  status: ('A' for Active; 'I' for Inactive)
DOCKED: REMARK    1  A    between atoms: C_2  and  C_5
DOCKED: REMARK    2  A    between atoms: N_3  and  O_4
DOCKED: REMARK    3  A    between atoms: C_6  and  C_7
DOCKED: REMARK    4  A    between atoms: C_10  and  C_11
DOCKED: REMARK    5  A    between atoms: C_11  and  N_12
DOCKED: REMARK    6  A    between atoms: N_12  and  C_13
DOCKED: REMARK    7  A    between atoms: N_12  and  C_16
DOCKED: REMARK    8  A    between atoms: C_13  and  C_14
DOCKED: REMARK    9  A    between atoms: C_14  and  O_15
DOCKED: REMARK   10  A    between atoms: C_16  and  C_17
DOCKED: REMARK   11  A    between atoms: C_17  and  C_18
DOCKED: REMARK                            x       y       z     vdW  Elec       q    Type
DOCKED: REMARK                         _______ _______ _______ _____ _____    ______ ____
DOCKED: USER                              x       y       z     vdW  Elec       q    Type
DOCKED: USER                           _______ _______ _______ _____ _____    ______ ____
DOCKED: ROOT
DOCKED: ATOM      1  N   UNL     1      28.717 -16.194  -1.097 -0.24 -0.00    +0.000 N 
DOCKED: ATOM      2  H   UNL     1      29.279 -15.349  -1.198 +0.00 -0.00    +0.000 HD
DOCKED: ENDROOT
DOCKED: BRANCH   1   3
DOCKED: ATOM      3  C   UNL     1      27.703 -15.952  -0.048 -0.34 -0.00    +0.000 C 
DOCKED: BRANCH   3   7
DOCKED: ATOM      4  C   UNL     1      24.035 -18.052  -0.976 -0.70 -0.00    +0.000 A 
DOCKED: ATOM      5  C   UNL     1      25.192 -18.764  -0.620 -0.37 -0.00    +0.000 A 
DOCKED: ATOM      6  C   UNL     1      26.382 -18.090  -0.328 -0.56 -0.00    +0.000 A 
DOCKED: ATOM      7  C   UNL     1      26.432 -16.688  -0.378 -0.44 -0.00    +0.000 A 
DOCKED: ATOM      8  C   UNL     1      25.275 -15.971  -0.712 -0.35 -0.00    +0.000 A 
DOCKED: ATOM      9  C   UNL     1      24.085 -16.644  -1.005 -0.45 -0.00    +0.000 A 
DOCKED: BRANCH   4  11
DOCKED: ATOM     10  C   UNL     1      21.607 -18.524  -0.707 -0.86 -0.00    +0.000 C 
DOCKED: ATOM     11  C   UNL     1      22.793 -18.810  -1.264 -0.79 -0.00    +0.000 C 
DOCKED: BRANCH  10  13
DOCKED: ATOM     12  O   UNL     1      20.229 -19.756  -2.166 -1.87 -0.00    +0.000 OA
DOCKED: ATOM     13  C   UNL     1      20.370 -19.271  -1.012 -0.90 -0.00    +0.000 C 
DOCKED: ATOM     14  N   UNL     1      19.318 -19.431  -0.051 -0.77 -0.00    +0.000 N 
DOCKED: ATOM     15  H   UNL     1      19.370 -18.965   0.814 -0.24 -0.00    +0.000 HD
DOCKED: BRANCH  14  16
DOCKED: ATOM     16  O   UNL     1      18.254 -20.221  -0.330 -0.82 -0.00    +0.000 OA
DOCKED: ATOM     17  H   UNL     1      18.383 -20.647  -1.192 -0.39 -0.00    +0.000 HD
DOCKED: ENDBRANCH  14  16
DOCKED: ENDBRANCH  10  13
DOCKED: ENDBRANCH   4  11
DOCKED: ENDBRANCH   3   7
DOCKED: ENDBRANCH   1   3
DOCKED: BRANCH   1  18
DOCKED: ATOM     18  C   UNL     1      29.671 -17.256  -0.696 -0.23 -0.00    +0.000 C 
DOCKED: BRANCH  18  19
DOCKED: ATOM     19  C   UNL     1      30.851 -16.701   0.118 -0.14 -0.00    +0.000 C 
DOCKED: BRANCH  19  20
DOCKED: ATOM     20  O   UNL     1      30.473 -15.568   0.853 -0.17 -0.00    +0.000 OA
DOCKED: ATOM     21  H   UNL     1      29.787 -15.812   1.494 -0.94 -0.00    +0.000 HD
DOCKED: ENDBRANCH  19  20
DOCKED: ENDBRANCH  18  19
DOCKED: ENDBRANCH   1  18
DOCKED: BRANCH   1  22
DOCKED: ATOM     22  C   UNL     1      28.100 -16.397  -2.431 -0.30 -0.00    +0.000 C 
DOCKED: BRANCH  22  23
DOCKED: ATOM     23  C   UNL     1      28.771 -15.599  -3.566 -0.25 -0.00    +0.000 C 
DOCKED: BRANCH  23  24
DOCKED: ATOM     24  C   UNL     1      27.913 -14.435  -3.959 -0.23 -0.00    +0.000 A 
DOCKED: ATOM     25  C   UNL     1      27.221 -14.279  -5.156 -0.34 -0.00    +0.000 A 
DOCKED: ATOM     26  N   UNL     1      26.617 -13.070  -5.198 -0.25 -0.00    +0.000 N 
DOCKED: ATOM     27  C   UNL     1      26.933 -12.456  -4.045 -0.21 -0.00    +0.000 A 
DOCKED: ATOM     28  C   UNL     1      27.729 -13.255  -3.264 -0.15 -0.00    +0.000 A 
DOCKED: ATOM     29  C   UNL     1      28.213 -12.829  -2.028 -0.09 -0.00    +0.000 A 
DOCKED: ATOM     30  C   UNL     1      27.851 -11.542  -1.591 -0.09 -0.00    +0.000 A 
DOCKED: ATOM     31  C   UNL     1      27.026 -10.720  -2.391 -0.09 -0.00    +0.000 A 
DOCKED: ATOM     32  C   UNL     1      26.559 -11.176  -3.638 -0.14 -0.00    +0.000 A 
DOCKED: ATOM     33  H   UNL     1      26.058 -12.712  -5.925 +0.04 -0.00    +0.000 HD
DOCKED: ENDBRANCH  23  24
DOCKED: ENDBRANCH  22  23
DOCKED: ENDBRANCH   1  22
DOCKED: TORSDOF 11
DOCKED: TER
DOCKED: ENDMDL
________________________________________________________________________________


	BEGINNING GENETIC ALGORITHM DOCKING 18 of 100
Run: 18 Seed: 1834581424 181701889 [ Run 18 of 100 GA/GALS ]
Beginning LAMARCKIAN GENETIC ALGORITHM (LGA), with a maximum of 2500000 energy evaluations.

Final-Value: -16.966


	FINAL GENETIC ALGORITHM DOCKED STATE
	_______________________________________________


Detailed state:  trans 28.608 -15.807 -1.281 quatxyzw 0.020486 0.318256 -0.947426 -0.026032 center 0.459 0.118 0.005 ntor 11 -4.1860 -179.9770 139.1846 19.4333 150.8979 123.9137 168.6654 160.6560 164.0203 -55.0173 -8.8672
State:	 28.608 -15.807  -1.281   0.020  0.318 -0.948 -177.017     -4.19 -179.98  139.18   19.43  150.90  123.91  168.67  160.66  164.02  -55.02   -8.87

DOCKED: MODEL       18
DOCKED: USER    Run = 18
DOCKED: USER    DPF = ligand_dock.biased.dpf
DOCKED: USER  
DOCKED: USER    Estimated Free Energy of Binding    =   -9.91 kcal/mol  [=(1)+(2)+(3)-(4)]
DOCKED: USER    Estimated Inhibition Constant, Ki   =   54.38 nM (nanomolar)  [Temperature = 298.15 K]
DOCKED: USER    
DOCKED: USER    (1) Final Intermolecular Energy     =  -13.19 kcal/mol
DOCKED: USER        vdW + Hbond + desolv Energy     =  -13.19 kcal/mol
DOCKED: USER        Electrostatic Energy            =   +0.00 kcal/mol
DOCKED: USER    (2) Final Total Internal Energy     =   -3.77 kcal/mol
DOCKED: USER    (3) Torsional Free Energy           =   +3.28 kcal/mol
DOCKED: USER    (4) Unbound System's Energy  [=(2)] =   -3.77 kcal/mol
DOCKED: USER    
DOCKED: USER    
DOCKED: USER    NEWDPF move ligand.pdbqt
DOCKED: USER    NEWDPF about 0.459000 0.118000 0.005000
DOCKED: USER    NEWDPF tran0 28.608147 -15.806695 -1.281309
DOCKED: USER    NEWDPF quaternion0 0.020486 0.318256 -0.947426 -0.026032
DOCKED: USER    NEWDPF axisangle0 0.020493 0.318364 -0.947747 -177.016628
DOCKED: USER    NEWDPF quat0 0.020493 0.318364 -0.947747 -177.016628
DOCKED: USER    NEWDPF dihe0 -4.19 -179.98 139.18 19.43 150.90 123.91 168.67 160.66 164.02 -55.02 -8.87 
DOCKED: USER  keepresnum = 1 
DOCKED: USER  
DOCKED: REMARK  Name = 
DOCKED: REMARK  11 active torsions:
DOCKED: REMARK  status: ('A' for Active; 'I' for Inactive)
DOCKED: REMARK    1  A    between atoms: C_2  and  C_5
DOCKED: REMARK    2  A    between atoms: N_3  and  O_4
DOCKED: REMARK    3  A    between atoms: C_6  and  C_7
DOCKED: REMARK    4  A    between atoms: C_10  and  C_11
DOCKED: REMARK    5  A    between atoms: C_11  and  N_12
DOCKED: REMARK    6  A    between atoms: N_12  and  C_13
DOCKED: REMARK    7  A    between atoms: N_12  and  C_16
DOCKED: REMARK    8  A    between atoms: C_13  and  C_14
DOCKED: REMARK    9  A    between atoms: C_14  and  O_15
DOCKED: REMARK   10  A    between atoms: C_16  and  C_17
DOCKED: REMARK   11  A    between atoms: C_17  and  C_18
DOCKED: REMARK                            x       y       z     vdW  Elec       q    Type
DOCKED: REMARK                         _______ _______ _______ _____ _____    ______ ____
DOCKED: USER                              x       y       z     vdW  Elec       q    Type
DOCKED: USER                           _______ _______ _______ _____ _____    ______ ____
DOCKED: ROOT
DOCKED: ATOM      1  N   UNL     1      29.454 -14.809  -0.486 -0.12 -0.00    +0.000 N 
DOCKED: ATOM      2  H   UNL     1      28.892 -14.420  -1.244 +0.00 -0.00    +0.000 HD
DOCKED: ENDROOT
DOCKED: BRANCH   1   3
DOCKED: ATOM      3  C   UNL     1      29.138 -16.250  -0.371 -0.23 -0.00    +0.000 C 
DOCKED: BRANCH   3   7
DOCKED: ATOM      4  C   UNL     1      24.865 -16.841  -0.709 -0.53 -0.00    +0.000 A 
DOCKED: ATOM      5  C   UNL     1      25.691 -17.873  -0.234 -0.59 -0.00    +0.000 A 
DOCKED: ATOM      6  C   UNL     1      27.073 -17.690  -0.132 -0.38 -0.00    +0.000 A 
DOCKED: ATOM      7  C   UNL     1      27.653 -16.464  -0.495 -0.34 -0.00    +0.000 A 
DOCKED: ATOM      8  C   UNL     1      26.831 -15.424  -0.949 -0.32 -0.00    +0.000 A 
DOCKED: ATOM      9  C   UNL     1      25.450 -15.606  -1.053 -0.37 -0.00    +0.000 A 
DOCKED: BRANCH   4  11
DOCKED: ATOM     10  C   UNL     1      22.863 -18.272  -1.077 -0.82 -0.00    +0.000 C 
DOCKED: ATOM     11  C   UNL     1      23.403 -17.079  -0.787 -0.68 -0.00    +0.000 C 
DOCKED: BRANCH  10  13
DOCKED: ATOM     12  O   UNL     1      20.633 -17.609  -0.709 -2.17 +0.00    +0.000 OA
DOCKED: ATOM     13  C   UNL     1      21.406 -18.507  -1.136 -0.67 -0.00    +0.000 C 
DOCKED: ATOM     14  N   UNL     1      20.849 -19.732  -1.631 -0.76 -0.00    +0.000 N 
DOCKED: ATOM     15  H   UNL     1      21.444 -20.481  -1.865 -0.41 -0.00    +0.000 HD
DOCKED: BRANCH  14  16
DOCKED: ATOM     16  O   UNL     1      19.509 -19.863  -1.778 -1.57 -0.00    +0.000 OA
DOCKED: ATOM     17  H   UNL     1      19.068 -19.065  -1.444 -0.55 -0.00    +0.000 HD
DOCKED: ENDBRANCH  14  16
DOCKED: ENDBRANCH  10  13
DOCKED: ENDBRANCH   4  11
DOCKED: ENDBRANCH   3   7
DOCKED: ENDBRANCH   1   3
DOCKED: BRANCH   1  18
DOCKED: ATOM     18  C   UNL     1      29.045 -14.066   0.729 -0.16 -0.00    +0.000 C 
DOCKED: BRANCH  18  19
DOCKED: ATOM     19  C   UNL     1      28.557 -12.645   0.406 -0.11 -0.00    +0.000 C 
DOCKED: BRANCH  19  20
DOCKED: ATOM     20  O   UNL     1      27.527 -12.665  -0.545 -0.16 -0.00    +0.000 OA
DOCKED: ATOM     21  H   UNL     1      26.725 -12.277  -0.161 -0.01 -0.00    +0.000 HD
DOCKED: ENDBRANCH  19  20
DOCKED: ENDBRANCH  18  19
DOCKED: ENDBRANCH   1  18
DOCKED: BRANCH   1  22
DOCKED: ATOM     22  C   UNL     1      30.860 -14.580  -0.902 -0.05 -0.00    +0.000 C 
DOCKED: BRANCH  22  23
DOCKED: ATOM     23  C   UNL     1      31.039 -14.331  -2.412 -0.03 -0.00    +0.000 C 
DOCKED: BRANCH  23  24
DOCKED: ATOM     24  C   UNL     1      29.947 -15.010  -3.183 -0.09 -0.00    +0.000 A 
DOCKED: ATOM     25  C   UNL     1      30.027 -16.240  -3.829 -0.18 -0.00    +0.000 A 
DOCKED: ATOM     26  N   UNL     1      28.877 -16.502  -4.489 -0.25 -0.00    +0.000 N 
DOCKED: ATOM     27  C   UNL     1      28.077 -15.442  -4.277 -0.31 -0.00    +0.000 A 
DOCKED: ATOM     28  C   UNL     1      28.698 -14.507  -3.489 -0.14 -0.00    +0.000 A 
DOCKED: ATOM     29  C   UNL     1      28.081 -13.303  -3.151 -0.12 -0.00    +0.000 A 
DOCKED: ATOM     30  C   UNL     1      26.782 -13.073  -3.637 -0.24 -0.00    +0.000 A 
DOCKED: ATOM     31  C   UNL     1      26.138 -14.039  -4.445 -0.40 -0.00    +0.000 A 
DOCKED: ATOM     32  C   UNL     1      26.790 -15.240  -4.775 -0.48 -0.00    +0.000 A 
DOCKED: ATOM     33  H   UNL     1      28.667 -17.305  -5.018 +0.02 -0.00    +0.000 HD
DOCKED: ENDBRANCH  23  24
DOCKED: ENDBRANCH  22  23
DOCKED: ENDBRANCH   1  22
DOCKED: TORSDOF 11
DOCKED: TER
DOCKED: ENDMDL
________________________________________________________________________________


	BEGINNING GENETIC ALGORITHM DOCKING 19 of 100
Run: 19 Seed: 937525266 1566037267 [ Run 19 of 100 GA/GALS ]
Beginning LAMARCKIAN GENETIC ALGORITHM (LGA), with a maximum of 2500000 energy evaluations.

Final-Value: -16.969


	FINAL GENETIC ALGORITHM DOCKED STATE
	_______________________________________________


Detailed state:  trans 28.414 -15.123 -0.175 quatxyzw -0.905709 0.040931 -0.012073 0.421746 center 0.459 0.118 0.005 ntor 11 2.1636 107.2420 103.5030 7.8758 147.3237 27.8773 -114.1863 152.8564 180.0000 -180.0000 175.4277
State:	 28.414 -15.123  -0.175  -0.999  0.045 -0.013 130.110      2.16  107.24  103.50    7.88  147.32   27.88 -114.19  152.86  180.00 -180.00  175.43

DOCKED: MODEL       19
DOCKED: USER    Run = 19
DOCKED: USER    DPF = ligand_dock.biased.dpf
DOCKED: USER  
DOCKED: USER    Estimated Free Energy of Binding    =  -11.26 kcal/mol  [=(1)+(2)+(3)-(4)]
DOCKED: USER    Estimated Inhibition Constant, Ki   =    5.61 nM (nanomolar)  [Temperature = 298.15 K]
DOCKED: USER    
DOCKED: USER    (1) Final Intermolecular Energy     =  -14.54 kcal/mol
DOCKED: USER        vdW + Hbond + desolv Energy     =  -14.54 kcal/mol
DOCKED: USER        Electrostatic Energy            =   +0.00 kcal/mol
DOCKED: USER    (2) Final Total Internal Energy     =   -2.43 kcal/mol
DOCKED: USER    (3) Torsional Free Energy           =   +3.28 kcal/mol
DOCKED: USER    (4) Unbound System's Energy  [=(2)] =   -2.43 kcal/mol
DOCKED: USER    
DOCKED: USER    
DOCKED: USER    NEWDPF move ligand.pdbqt
DOCKED: USER    NEWDPF about 0.459000 0.118000 0.005000
DOCKED: USER    NEWDPF tran0 28.413501 -15.123071 -0.174649
DOCKED: USER    NEWDPF quaternion0 -0.905709 0.040931 -0.012073 0.421746
DOCKED: USER    NEWDPF axisangle0 -0.998892 0.045142 -0.013315 130.110269
DOCKED: USER    NEWDPF quat0 -0.998892 0.045142 -0.013315 130.110269
DOCKED: USER    NEWDPF dihe0 2.16 107.24 103.50 7.88 147.32 27.88 -114.19 152.86 180.00 -180.00 175.43 
DOCKED: USER  keepresnum = 1 
DOCKED: USER  
DOCKED: REMARK  Name = 
DOCKED: REMARK  11 active torsions:
DOCKED: REMARK  status: ('A' for Active; 'I' for Inactive)
DOCKED: REMARK    1  A    between atoms: C_2  and  C_5
DOCKED: REMARK    2  A    between atoms: N_3  and  O_4
DOCKED: REMARK    3  A    between atoms: C_6  and  C_7
DOCKED: REMARK    4  A    between atoms: C_10  and  C_11
DOCKED: REMARK    5  A    between atoms: C_11  and  N_12
DOCKED: REMARK    6  A    between atoms: N_12  and  C_13
DOCKED: REMARK    7  A    between atoms: N_12  and  C_16
DOCKED: REMARK    8  A    between atoms: C_13  and  C_14
DOCKED: REMARK    9  A    between atoms: C_14  and  O_15
DOCKED: REMARK   10  A    between atoms: C_16  and  C_17
DOCKED: REMARK   11  A    between atoms: C_17  and  C_18
DOCKED: REMARK                            x       y       z     vdW  Elec       q    Type
DOCKED: REMARK                         _______ _______ _______ _____ _____    ______ ____
DOCKED: USER                              x       y       z     vdW  Elec       q    Type
DOCKED: USER                           _______ _______ _______ _____ _____    ______ ____
DOCKED: ROOT
DOCKED: ATOM      1  N   UNL     1      27.596 -14.291  -1.165 -0.18 -0.00    +0.000 N 
DOCKED: ATOM      2  H   UNL     1      28.183 -13.768  -0.516 +0.00 -0.00    +0.000 HD
DOCKED: ENDROOT
DOCKED: BRANCH   1   3
DOCKED: ATOM      3  C   UNL     1      27.854 -15.734  -0.962 -0.30 -0.00    +0.000 C 
DOCKED: BRANCH   3   7
DOCKED: ATOM      4  C   UNL     1      24.178 -17.991  -1.301 -0.67 -0.00    +0.000 A 
DOCKED: ATOM      5  C   UNL     1      24.741 -17.375  -2.430 -0.26 -0.00    +0.000 A 
DOCKED: ATOM      6  C   UNL     1      25.925 -16.637  -2.323 -0.42 -0.00    +0.000 A 
DOCKED: ATOM      7  C   UNL     1      26.569 -16.510  -1.084 -0.43 -0.00    +0.000 A 
DOCKED: ATOM      8  C   UNL     1      26.023 -17.140   0.043 -0.29 -0.00    +0.000 A 
DOCKED: ATOM      9  C   UNL     1      24.840 -17.877  -0.062 -0.56 -0.00    +0.000 A 
DOCKED: BRANCH   4  11
DOCKED: ATOM     10  C   UNL     1      21.846 -18.609  -0.692 -0.86 -0.00    +0.000 C 
DOCKED: ATOM     11  C   UNL     1      22.929 -18.774  -1.466 -0.76 -0.00    +0.000 C 
DOCKED: BRANCH  10  13
DOCKED: ATOM     12  O   UNL     1      20.440 -20.025  -1.942 -1.69 -0.00    +0.000 OA
DOCKED: ATOM     13  C   UNL     1      20.598 -19.378  -0.873 -0.90 -0.00    +0.000 C 
DOCKED: ATOM     14  N   UNL     1      19.555 -19.385   0.111 -0.75 -0.00    +0.000 N 
DOCKED: ATOM     15  H   UNL     1      19.622 -18.798   0.899 -0.22 -0.00    +0.000 HD
DOCKED: BRANCH  14  16
DOCKED: ATOM     16  O   UNL     1      18.481 -20.195  -0.039 -0.84 -0.00    +0.000 OA
DOCKED: ATOM     17  H   UNL     1      18.587 -20.729  -0.843 -0.39 -0.00    +0.000 HD
DOCKED: ENDBRANCH  14  16
DOCKED: ENDBRANCH  10  13
DOCKED: ENDBRANCH   4  11
DOCKED: ENDBRANCH   3   7
DOCKED: ENDBRANCH   1   3
DOCKED: BRANCH   1  18
DOCKED: ATOM     18  C   UNL     1      28.016 -13.851  -2.517 -0.16 -0.00    +0.000 C 
DOCKED: BRANCH  18  19
DOCKED: ATOM     19  C   UNL     1      28.292 -12.340  -2.578 -0.10 -0.00    +0.000 C 
DOCKED: BRANCH  19  20
DOCKED: ATOM     20  O   UNL     1      28.504 -11.811  -1.296 -0.07 -0.00    +0.000 OA
DOCKED: ATOM     21  H   UNL     1      29.118 -12.383  -0.808 +0.00 -0.00    +0.000 HD
DOCKED: ENDBRANCH  19  20
DOCKED: ENDBRANCH  18  19
DOCKED: ENDBRANCH   1  18
DOCKED: BRANCH   1  22
DOCKED: ATOM     22  C   UNL     1      26.206 -13.919  -0.803 -0.23 -0.00    +0.000 C 
DOCKED: BRANCH  22  23
DOCKED: ATOM     23  C   UNL     1      26.100 -12.997   0.428 -0.30 -0.00    +0.000 C 
DOCKED: BRANCH  23  24
DOCKED: ATOM     24  C   UNL     1      27.156 -13.349   1.432 -0.27 -0.00    +0.000 A 
DOCKED: ATOM     25  C   UNL     1      27.832 -14.560   1.538 -0.23 -0.00    +0.000 A 
DOCKED: ATOM     26  N   UNL     1      28.657 -14.548   2.609 -0.21 -0.00    +0.000 N 
DOCKED: ATOM     27  C   UNL     1      28.497 -13.346   3.188 -0.26 -0.00    +0.000 A 
DOCKED: ATOM     28  C   UNL     1      27.584 -12.587   2.502 -0.25 -0.00    +0.000 A 
DOCKED: ATOM     29  C   UNL     1      27.225 -11.307   2.923 -0.26 +0.00    +0.000 A 
DOCKED: ATOM     30  C   UNL     1      27.841 -10.802   4.083 -0.28 +0.00    +0.000 A 
DOCKED: ATOM     31  C   UNL     1      28.787 -11.581   4.788 -0.22 +0.00    +0.000 A 
DOCKED: ATOM     32  C   UNL     1      29.122 -12.872   4.342 -0.24 -0.00    +0.000 A 
DOCKED: ATOM     33  H   UNL     1      29.254 -15.273   2.905 -1.93 -0.00    +0.000 HD
DOCKED: ENDBRANCH  23  24
DOCKED: ENDBRANCH  22  23
DOCKED: ENDBRANCH   1  22
DOCKED: TORSDOF 11
DOCKED: TER
DOCKED: ENDMDL
________________________________________________________________________________


	BEGINNING GENETIC ALGORITHM DOCKING 20 of 100
Run: 20 Seed: 1340176222 2084855272 [ Run 20 of 100 GA/GALS ]
Beginning LAMARCKIAN GENETIC ALGORITHM (LGA), with a maximum of 2500000 energy evaluations.

Final-Value: -18.504


	FINAL GENETIC ALGORITHM DOCKED STATE
	_______________________________________________


Detailed state:  trans 28.340 -16.015 0.635 quatxyzw -0.748533 0.551137 -0.303160 -0.209859 center 0.459 0.118 0.005 ntor 11 -4.0253 78.6279 11.5937 163.6102 90.1806 170.6638 -163.3224 -115.0433 -161.2326 28.3022 82.6819
State:	 28.340 -16.015   0.635  -0.766  0.564 -0.310 -155.772     -4.03   78.63   11.59  163.61   90.18  170.66 -163.32 -115.04 -161.23   28.30   82.68

DOCKED: MODEL       20
DOCKED: USER    Run = 20
DOCKED: USER    DPF = ligand_dock.biased.dpf
DOCKED: USER  
DOCKED: USER    Estimated Free Energy of Binding    =  -13.06 kcal/mol  [=(1)+(2)+(3)-(4)]
DOCKED: USER    Estimated Inhibition Constant, Ki   =  265.95 pM (picomolar)  [Temperature = 298.15 K]
DOCKED: USER    
DOCKED: USER    (1) Final Intermolecular Energy     =  -16.34 kcal/mol
DOCKED: USER        vdW + Hbond + desolv Energy     =  -16.34 kcal/mol
DOCKED: USER        Electrostatic Energy            =   +0.00 kcal/mol
DOCKED: USER    (2) Final Total Internal Energy     =   -2.16 kcal/mol
DOCKED: USER    (3) Torsional Free Energy           =   +3.28 kcal/mol
DOCKED: USER    (4) Unbound System's Energy  [=(2)] =   -2.16 kcal/mol
DOCKED: USER    
DOCKED: USER    
DOCKED: USER    NEWDPF move ligand.pdbqt
DOCKED: USER    NEWDPF about 0.459000 0.118000 0.005000
DOCKED: USER    NEWDPF tran0 28.340010 -16.014619 0.635363
DOCKED: USER    NEWDPF quaternion0 -0.748533 0.551137 -0.303160 -0.209859
DOCKED: USER    NEWDPF axisangle0 -0.765581 0.563689 -0.310065 -155.771879
DOCKED: USER    NEWDPF quat0 -0.765581 0.563689 -0.310065 -155.771879
DOCKED: USER    NEWDPF dihe0 -4.03 78.63 11.59 163.61 90.18 170.66 -163.32 -115.04 -161.23 28.30 82.68 
DOCKED: USER  keepresnum = 1 
DOCKED: USER  
DOCKED: REMARK  Name = 
DOCKED: REMARK  11 active torsions:
DOCKED: REMARK  status: ('A' for Active; 'I' for Inactive)
DOCKED: REMARK    1  A    between atoms: C_2  and  C_5
DOCKED: REMARK    2  A    between atoms: N_3  and  O_4
DOCKED: REMARK    3  A    between atoms: C_6  and  C_7
DOCKED: REMARK    4  A    between atoms: C_10  and  C_11
DOCKED: REMARK    5  A    between atoms: C_11  and  N_12
DOCKED: REMARK    6  A    between atoms: N_12  and  C_13
DOCKED: REMARK    7  A    between atoms: N_12  and  C_16
DOCKED: REMARK    8  A    between atoms: C_13  and  C_14
DOCKED: REMARK    9  A    between atoms: C_14  and  O_15
DOCKED: REMARK   10  A    between atoms: C_16  and  C_17
DOCKED: REMARK   11  A    between atoms: C_17  and  C_18
DOCKED: REMARK                            x       y       z     vdW  Elec       q    Type
DOCKED: REMARK                         _______ _______ _______ _____ _____    ______ ____
DOCKED: USER                              x       y       z     vdW  Elec       q    Type
DOCKED: USER                           _______ _______ _______ _____ _____    ______ ____
DOCKED: ROOT
DOCKED: ATOM      1  N   UNL     1      29.007 -14.764   1.212 -0.18 -0.00    +0.000 N 
DOCKED: ATOM      2  H   UNL     1      28.486 -15.341   1.872 -1.29 -0.00    +0.000 HD
DOCKED: ENDROOT
DOCKED: BRANCH   1   3
DOCKED: ATOM      3  C   UNL     1      29.008 -15.449  -0.099 -0.20 -0.00    +0.000 C 
DOCKED: BRANCH   3   7
DOCKED: ATOM      4  C   UNL     1      24.979 -16.649  -1.124 -0.54 -0.00    +0.000 A 
DOCKED: ATOM      5  C   UNL     1      25.765 -17.447  -0.277 -0.53 -0.00    +0.000 A 
DOCKED: ATOM      6  C   UNL     1      27.071 -17.067   0.050 -0.39 -0.00    +0.000 A 
DOCKED: ATOM      7  C   UNL     1      27.609 -15.876  -0.460 -0.30 -0.00    +0.000 A 
DOCKED: ATOM      8  C   UNL     1      26.822 -15.065  -1.288 -0.29 -0.00    +0.000 A 
DOCKED: ATOM      9  C   UNL     1      25.517 -15.443  -1.616 -0.39 -0.00    +0.000 A 
DOCKED: BRANCH   4  11
DOCKED: ATOM     10  C   UNL     1      22.961 -18.060  -0.761 -0.82 -0.00    +0.000 C 
DOCKED: ATOM     11  C   UNL     1      23.595 -17.086  -1.431 -0.57 -0.00    +0.000 C 
DOCKED: BRANCH  10  13
DOCKED: ATOM     12  O   UNL     1      20.634 -17.701  -0.754 -2.23 -0.00    +0.000 OA
DOCKED: ATOM     13  C   UNL     1      21.578 -18.478  -1.059 -0.77 -0.00    +0.000 C 
DOCKED: ATOM     14  N   UNL     1      21.274 -19.749  -1.651 -0.53 -0.00    +0.000 N 
DOCKED: ATOM     15  H   UNL     1      21.992 -20.407  -1.792 -0.40 -0.00    +0.000 HD
DOCKED: BRANCH  14  16
DOCKED: ATOM     16  O   UNL     1      20.004 -20.046  -2.016 -1.79 -0.00    +0.000 OA
DOCKED: ATOM     17  H   UNL     1      19.414 -19.322  -1.753 -0.34 -0.00    +0.000 HD
DOCKED: ENDBRANCH  14  16
DOCKED: ENDBRANCH  10  13
DOCKED: ENDBRANCH   4  11
DOCKED: ENDBRANCH   3   7
DOCKED: ENDBRANCH   1   3
DOCKED: BRANCH   1  18
DOCKED: ATOM     18  C   UNL     1      30.375 -14.662   1.772 -0.13 -0.00    +0.000 C 
DOCKED: BRANCH  18  19
DOCKED: ATOM     19  C   UNL     1      31.426 -15.323   0.866 -0.11 -0.00    +0.000 C 
DOCKED: BRANCH  19  20
DOCKED: ATOM     20  O   UNL     1      31.332 -16.721   0.915 -0.19 -0.00    +0.000 OA
DOCKED: ATOM     21  H   UNL     1      30.467 -16.974   1.275 -0.43 -0.00    +0.000 HD
DOCKED: ENDBRANCH  19  20
DOCKED: ENDBRANCH  18  19
DOCKED: ENDBRANCH   1  18
DOCKED: BRANCH   1  22
DOCKED: ATOM     22  C   UNL     1      28.266 -13.479   1.167 -0.21 -0.00    +0.000 C 
DOCKED: BRANCH  22  23
DOCKED: ATOM     23  C   UNL     1      27.257 -13.292   2.317 -0.34 -0.00    +0.000 C 
DOCKED: BRANCH  23  24
DOCKED: ATOM     24  C   UNL     1      27.950 -13.417   3.641 -0.36 -0.00    +0.000 A 
DOCKED: ATOM     25  C   UNL     1      28.466 -14.581   4.202 -0.46 -0.00    +0.000 A 
DOCKED: ATOM     26  N   UNL     1      28.949 -14.333   5.441 -0.39 -0.00    +0.000 N 
DOCKED: ATOM     27  C   UNL     1      28.729 -13.027   5.671 -0.38 -0.00    +0.000 A 
DOCKED: ATOM     28  C   UNL     1      28.115 -12.435   4.598 -0.34 -0.00    +0.000 A 
DOCKED: ATOM     29  C   UNL     1      27.756 -11.087   4.606 -0.33 +0.00    +0.000 A 
DOCKED: ATOM     30  C   UNL     1      28.054 -10.337   5.758 -0.30 +0.00    +0.000 A 
DOCKED: ATOM     31  C   UNL     1      28.693 -10.944   6.863 -0.31 +0.00    +0.000 A 
DOCKED: ATOM     32  C   UNL     1      29.035 -12.308   6.827 -0.34 -0.00    +0.000 A 
DOCKED: ATOM     33  H   UNL     1      29.377 -14.978   6.050 -0.15 -0.00    +0.000 HD
DOCKED: ENDBRANCH  23  24
DOCKED: ENDBRANCH  22  23
DOCKED: ENDBRANCH   1  22
DOCKED: TORSDOF 11
DOCKED: TER
DOCKED: ENDMDL
________________________________________________________________________________


	BEGINNING GENETIC ALGORITHM DOCKING 21 of 100
Run: 21 Seed: 1232595623 1498333381 [ Run 21 of 100 GA/GALS ]
Beginning LAMARCKIAN GENETIC ALGORITHM (LGA), with a maximum of 2500000 energy evaluations.

Final-Value: -17.735


	FINAL GENETIC ALGORITHM DOCKED STATE
	_______________________________________________


Detailed state:  trans 27.321 -16.228 -1.457 quatxyzw -0.287927 0.046606 -0.947981 0.127508 center 0.459 0.118 0.005 ntor 11 43.8465 -72.6041 161.3450 139.4211 -49.0977 74.6267 150.7495 -143.0405 -179.5143 -93.7508 33.6506
State:	 27.321 -16.228  -1.457  -0.290  0.047 -0.956 165.349     43.85  -72.60  161.35  139.42  -49.10   74.63  150.75 -143.04 -179.51  -93.75   33.65

DOCKED: MODEL       21
DOCKED: USER    Run = 21
DOCKED: USER    DPF = ligand_dock.biased.dpf
DOCKED: USER  
DOCKED: USER    Estimated Free Energy of Binding    =  -12.02 kcal/mol  [=(1)+(2)+(3)-(4)]
DOCKED: USER    Estimated Inhibition Constant, Ki   =    1.54 nM (nanomolar)  [Temperature = 298.15 K]
DOCKED: USER    
DOCKED: USER    (1) Final Intermolecular Energy     =  -15.30 kcal/mol
DOCKED: USER        vdW + Hbond + desolv Energy     =  -15.30 kcal/mol
DOCKED: USER        Electrostatic Energy            =   +0.00 kcal/mol
DOCKED: USER    (2) Final Total Internal Energy     =   -2.43 kcal/mol
DOCKED: USER    (3) Torsional Free Energy           =   +3.28 kcal/mol
DOCKED: USER    (4) Unbound System's Energy  [=(2)] =   -2.43 kcal/mol
DOCKED: USER    
DOCKED: USER    
DOCKED: USER    NEWDPF move ligand.pdbqt
DOCKED: USER    NEWDPF about 0.459000 0.118000 0.005000
DOCKED: USER    NEWDPF tran0 27.321196 -16.227859 -1.456909
DOCKED: USER    NEWDPF quaternion0 -0.287927 0.046606 -0.947981 0.127508
DOCKED: USER    NEWDPF axisangle0 -0.290297 0.046990 -0.955782 165.348797
DOCKED: USER    NEWDPF quat0 -0.290297 0.046990 -0.955782 165.348797
DOCKED: USER    NEWDPF dihe0 43.85 -72.60 161.35 139.42 -49.10 74.63 150.75 -143.04 -179.51 -93.75 33.65 
DOCKED: USER  keepresnum = 1 
DOCKED: USER  
DOCKED: REMARK  Name = 
DOCKED: REMARK  11 active torsions:
DOCKED: REMARK  status: ('A' for Active; 'I' for Inactive)
DOCKED: REMARK    1  A    between atoms: C_2  and  C_5
DOCKED: REMARK    2  A    between atoms: N_3  and  O_4
DOCKED: REMARK    3  A    between atoms: C_6  and  C_7
DOCKED: REMARK    4  A    between atoms: C_10  and  C_11
DOCKED: REMARK    5  A    between atoms: C_11  and  N_12
DOCKED: REMARK    6  A    between atoms: N_12  and  C_13
DOCKED: REMARK    7  A    between atoms: N_12  and  C_16
DOCKED: REMARK    8  A    between atoms: C_13  and  C_14
DOCKED: REMARK    9  A    between atoms: C_14  and  O_15
DOCKED: REMARK   10  A    between atoms: C_16  and  C_17
DOCKED: REMARK   11  A    between atoms: C_17  and  C_18
DOCKED: REMARK                            x       y       z     vdW  Elec       q    Type
DOCKED: REMARK                         _______ _______ _______ _____ _____    ______ ____
DOCKED: USER                              x       y       z     vdW  Elec       q    Type
DOCKED: USER                           _______ _______ _______ _____ _____    ______ ____
DOCKED: ROOT
DOCKED: ATOM      1  N   UNL     1      28.396 -15.253  -1.944 -0.17 -0.00    +0.000 N 
DOCKED: ATOM      2  H   UNL     1      27.454 -15.100  -2.303 +0.00 -0.00    +0.000 HD
DOCKED: ENDROOT
DOCKED: BRANCH   1   3
DOCKED: ATOM      3  C   UNL     1      28.340 -16.352  -0.954 -0.32 -0.00    +0.000 C 
DOCKED: BRANCH   3   7
DOCKED: ATOM      4  C   UNL     1      24.273 -17.772  -0.550 -0.66 -0.00    +0.000 A 
DOCKED: ATOM      5  C   UNL     1      25.354 -18.613  -0.241 -0.50 -0.00    +0.000 A 
DOCKED: ATOM      6  C   UNL     1      26.670 -18.161  -0.379 -0.51 -0.00    +0.000 A 
DOCKED: ATOM      7  C   UNL     1      26.927 -16.854  -0.820 -0.44 -0.00    +0.000 A 
DOCKED: ATOM      8  C   UNL     1      25.852 -16.003  -1.110 -0.44 -0.00    +0.000 A 
DOCKED: ATOM      9  C   UNL     1      24.536 -16.454  -0.974 -0.45 -0.00    +0.000 A 
DOCKED: BRANCH   4  11
DOCKED: ATOM     10  C   UNL     1      22.266 -19.041  -1.293 -0.75 -0.00    +0.000 C 
DOCKED: ATOM     11  C   UNL     1      22.894 -18.292  -0.376 -0.83 -0.00    +0.000 C 
DOCKED: BRANCH  10  13
DOCKED: ATOM     12  O   UNL     1      20.173 -19.733  -2.123 -1.87 -0.00    +0.000 OA
DOCKED: ATOM     13  C   UNL     1      20.900 -19.571  -1.107 -0.81 -0.00    +0.000 C 
DOCKED: ATOM     14  N   UNL     1      20.369 -19.874   0.190 -0.72 -0.00    +0.000 N 
DOCKED: ATOM     15  H   UNL     1      20.887 -19.650   0.996 -0.32 -0.00    +0.000 HD
DOCKED: BRANCH  14  16
DOCKED: ATOM     16  O   UNL     1      19.158 -20.468   0.310 -0.81 -0.00    +0.000 OA
DOCKED: ATOM     17  H   UNL     1      19.084 -21.188  -0.338 -0.36 -0.00    +0.000 HD
DOCKED: ENDBRANCH  14  16
DOCKED: ENDBRANCH  10  13
DOCKED: ENDBRANCH   4  11
DOCKED: ENDBRANCH   3   7
DOCKED: ENDBRANCH   1   3
DOCKED: BRANCH   1  18
DOCKED: ATOM     18  C   UNL     1      28.789 -13.972  -1.311 -0.11 -0.00    +0.000 C 
DOCKED: BRANCH  18  19
DOCKED: ATOM     19  C   UNL     1      28.433 -13.928   0.184 -0.17 -0.00    +0.000 C 
DOCKED: BRANCH  19  20
DOCKED: ATOM     20  O   UNL     1      29.343 -14.677   0.944 -0.19 -0.00    +0.000 OA
DOCKED: ATOM     21  H   UNL     1      28.856 -15.239   1.568 -1.22 -0.00    +0.000 HD
DOCKED: ENDBRANCH  19  20
DOCKED: ENDBRANCH  18  19
DOCKED: ENDBRANCH   1  18
DOCKED: BRANCH   1  22
DOCKED: ATOM     22  C   UNL     1      29.200 -15.620  -3.136 -0.20 -0.00    +0.000 C 
DOCKED: BRANCH  22  23
DOCKED: ATOM     23  C   UNL     1      28.383 -15.730  -4.438 -0.32 -0.00    +0.000 C 
DOCKED: BRANCH  23  24
DOCKED: ATOM     24  C   UNL     1      27.192 -14.821  -4.383 -0.38 -0.00    +0.000 A 
DOCKED: ATOM     25  C   UNL     1      25.854 -15.202  -4.404 -0.55 -0.00    +0.000 A 
DOCKED: ATOM     26  N   UNL     1      25.054 -14.112  -4.419 -0.44 -0.00    +0.000 N 
DOCKED: ATOM     27  C   UNL     1      25.875 -13.048  -4.422 -0.34 -0.00    +0.000 A 
DOCKED: ATOM     28  C   UNL     1      27.189 -13.440  -4.406 -0.26 -0.00    +0.000 A 
DOCKED: ATOM     29  C   UNL     1      28.234 -12.517  -4.434 -0.12 -0.00    +0.000 A 
DOCKED: ATOM     30  C   UNL     1      27.900 -11.151  -4.468 -0.09 -0.00    +0.000 A 
DOCKED: ATOM     31  C   UNL     1      26.546 -10.744  -4.478 -0.18 -0.00    +0.000 A 
DOCKED: ATOM     32  C   UNL     1      25.515 -11.701  -4.458 -0.29 -0.00    +0.000 A 
DOCKED: ATOM     33  H   UNL     1      24.069 -14.100  -4.426 -0.51 -0.00    +0.000 HD
DOCKED: ENDBRANCH  23  24
DOCKED: ENDBRANCH  22  23
DOCKED: ENDBRANCH   1  22
DOCKED: TORSDOF 11
DOCKED: TER
DOCKED: ENDMDL
________________________________________________________________________________


	BEGINNING GENETIC ALGORITHM DOCKING 22 of 100
Run: 22 Seed: 503809444 959754326 [ Run 22 of 100 GA/GALS ]
Beginning LAMARCKIAN GENETIC ALGORITHM (LGA), with a maximum of 2500000 energy evaluations.

Final-Value: -19.321


	FINAL GENETIC ALGORITHM DOCKED STATE
	_______________________________________________


Detailed state:  trans 28.278 -15.818 0.285 quatxyzw -0.826022 0.506805 -0.220730 -0.110063 center 0.459 0.118 0.005 ntor 11 32.6869 110.2867 22.4648 78.4920 -44.6598 177.3191 -179.9130 -116.7652 174.5639 -160.5984 75.1710
State:	 28.278 -15.818   0.285  -0.831  0.510 -0.222 -167.362     32.69  110.29   22.46   78.49  -44.66  177.32 -179.91 -116.77  174.56 -160.60   75.17

DOCKED: MODEL       22
DOCKED: USER    Run = 22
DOCKED: USER    DPF = ligand_dock.biased.dpf
DOCKED: USER  
DOCKED: USER    Estimated Free Energy of Binding    =  -13.21 kcal/mol  [=(1)+(2)+(3)-(4)]
DOCKED: USER    Estimated Inhibition Constant, Ki   =  207.67 pM (picomolar)  [Temperature = 298.15 K]
DOCKED: USER    
DOCKED: USER    (1) Final Intermolecular Energy     =  -16.49 kcal/mol
DOCKED: USER        vdW + Hbond + desolv Energy     =  -16.49 kcal/mol
DOCKED: USER        Electrostatic Energy            =   +0.00 kcal/mol
DOCKED: USER    (2) Final Total Internal Energy     =   -2.83 kcal/mol
DOCKED: USER    (3) Torsional Free Energy           =   +3.28 kcal/mol
DOCKED: USER    (4) Unbound System's Energy  [=(2)] =   -2.83 kcal/mol
DOCKED: USER    
DOCKED: USER    
DOCKED: USER    NEWDPF move ligand.pdbqt
DOCKED: USER    NEWDPF about 0.459000 0.118000 0.005000
DOCKED: USER    NEWDPF tran0 28.278113 -15.818476 0.284894
DOCKED: USER    NEWDPF quaternion0 -0.826022 0.506805 -0.220730 -0.110063
DOCKED: USER    NEWDPF axisangle0 -0.831071 0.509903 -0.222079 -167.362084
DOCKED: USER    NEWDPF quat0 -0.831071 0.509903 -0.222079 -167.362084
DOCKED: USER    NEWDPF dihe0 32.69 110.29 22.46 78.49 -44.66 177.32 -179.91 -116.77 174.56 -160.60 75.17 
DOCKED: USER  keepresnum = 1 
DOCKED: USER  
DOCKED: REMARK  Name = 
DOCKED: REMARK  11 active torsions:
DOCKED: REMARK  status: ('A' for Active; 'I' for Inactive)
DOCKED: REMARK    1  A    between atoms: C_2  and  C_5
DOCKED: REMARK    2  A    between atoms: N_3  and  O_4
DOCKED: REMARK    3  A    between atoms: C_6  and  C_7
DOCKED: REMARK    4  A    between atoms: C_10  and  C_11
DOCKED: REMARK    5  A    between atoms: C_11  and  N_12
DOCKED: REMARK    6  A    between atoms: N_12  and  C_13
DOCKED: REMARK    7  A    between atoms: N_12  and  C_16
DOCKED: REMARK    8  A    between atoms: C_13  and  C_14
DOCKED: REMARK    9  A    between atoms: C_14  and  O_15
DOCKED: REMARK   10  A    between atoms: C_16  and  C_17
DOCKED: REMARK   11  A    between atoms: C_17  and  C_18
DOCKED: REMARK                            x       y       z     vdW  Elec       q    Type
DOCKED: REMARK                         _______ _______ _______ _____ _____    ______ ____
DOCKED: USER                              x       y       z     vdW  Elec       q    Type
DOCKED: USER                           _______ _______ _______ _____ _____    ______ ____
DOCKED: ROOT
DOCKED: ATOM      1  N   UNL     1      28.887 -14.437   0.535 -0.17 -0.00    +0.000 N 
DOCKED: ATOM      2  H   UNL     1      28.634 -14.974   1.365 -0.64 -0.00    +0.000 HD
DOCKED: ENDROOT
DOCKED: BRANCH   1   3
DOCKED: ATOM      3  C   UNL     1      28.654 -15.286  -0.654 -0.21 -0.00    +0.000 C 
DOCKED: BRANCH   3   7
DOCKED: ATOM      4  C   UNL     1      24.963 -17.503  -0.225 -0.49 -0.00    +0.000 A 
DOCKED: ATOM      5  C   UNL     1      24.960 -16.219  -0.792 -0.38 -0.00    +0.000 A 
DOCKED: ATOM      6  C   UNL     1      26.149 -15.495  -0.925 -0.37 -0.00    +0.000 A 
DOCKED: ATOM      7  C   UNL     1      27.365 -16.049  -0.499 -0.33 -0.00    +0.000 A 
DOCKED: ATOM      8  C   UNL     1      27.378 -17.339   0.049 -0.24 -0.00    +0.000 A 
DOCKED: ATOM      9  C   UNL     1      26.190 -18.063   0.183 -0.52 -0.00    +0.000 A 
DOCKED: BRANCH   4  11
DOCKED: ATOM     10  C   UNL     1      22.593 -17.938  -0.846 -0.80 -0.00    +0.000 C 
DOCKED: ATOM     11  C   UNL     1      23.679 -18.237  -0.117 -0.76 -0.00    +0.000 C 
DOCKED: BRANCH  10  13
DOCKED: ATOM     12  O   UNL     1      20.252 -18.091  -1.046 -2.12 -0.00    +0.000 OA
DOCKED: ATOM     13  C   UNL     1      21.323 -18.684  -0.748 -0.86 -0.00    +0.000 C 
DOCKED: ATOM     14  N   UNL     1      21.268 -20.044  -0.297 -0.56 -0.00    +0.000 N 
DOCKED: ATOM     15  H   UNL     1      22.083 -20.481   0.041 -0.58 -0.00    +0.000 HD
DOCKED: BRANCH  14  16
DOCKED: ATOM     16  O   UNL     1      20.100 -20.728  -0.333 -0.77 -0.00    +0.000 OA
DOCKED: ATOM     17  H   UNL     1      19.573 -20.430  -1.092 -0.50 -0.00    +0.000 HD
DOCKED: ENDBRANCH  14  16
DOCKED: ENDBRANCH  10  13
DOCKED: ENDBRANCH   4  11
DOCKED: ENDBRANCH   3   7
DOCKED: ENDBRANCH   1   3
DOCKED: BRANCH   1  18
DOCKED: ATOM     18  C   UNL     1      30.324 -14.114   0.698 -0.10 -0.00    +0.000 C 
DOCKED: BRANCH  18  19
DOCKED: ATOM     19  C   UNL     1      31.079 -15.195   1.488 -0.13 -0.00    +0.000 C 
DOCKED: BRANCH  19  20
DOCKED: ATOM     20  O   UNL     1      30.572 -15.318   2.790 -0.12 -0.00    +0.000 OA
DOCKED: ATOM     21  H   UNL     1      29.605 -15.398   2.754 -1.74 -0.00    +0.000 HD
DOCKED: ENDBRANCH  19  20
DOCKED: ENDBRANCH  18  19
DOCKED: ENDBRANCH   1  18
DOCKED: BRANCH   1  22
DOCKED: ATOM     22  C   UNL     1      27.986 -13.258   0.561 -0.19 -0.00    +0.000 C 
DOCKED: BRANCH  22  23
DOCKED: ATOM     23  C   UNL     1      26.872 -13.338   1.623 -0.32 -0.00    +0.000 C 
DOCKED: BRANCH  23  24
DOCKED: ATOM     24  C   UNL     1      27.464 -13.578   2.979 -0.34 -0.00    +0.000 A 
DOCKED: ATOM     25  C   UNL     1      27.768 -14.811   3.548 -0.22 -0.00    +0.000 A 
DOCKED: ATOM     26  N   UNL     1      28.213 -14.649   4.814 -0.58 -0.00    +0.000 N 
DOCKED: ATOM     27  C   UNL     1      28.179 -13.327   5.054 -0.44 -0.00    +0.000 A 
DOCKED: ATOM     28  C   UNL     1      27.721 -12.640   3.960 -0.32 -0.00    +0.000 A 
DOCKED: ATOM     29  C   UNL     1      27.569 -11.254   3.972 -0.26 +0.00    +0.000 A 
DOCKED: ATOM     30  C   UNL     1      27.912 -10.567   5.150 -0.33 +0.00    +0.000 A 
DOCKED: ATOM     31  C   UNL     1      28.390 -11.273   6.277 -0.32 +0.00    +0.000 A 
DOCKED: ATOM     32  C   UNL     1      28.525 -12.673   6.237 -0.39 -0.00    +0.000 A 
DOCKED: ATOM     33  H   UNL     1      28.504 -15.357   5.434 -0.39 -0.00    +0.000 HD
DOCKED: ENDBRANCH  23  24
DOCKED: ENDBRANCH  22  23
DOCKED: ENDBRANCH   1  22
DOCKED: TORSDOF 11
DOCKED: TER
DOCKED: ENDMDL
________________________________________________________________________________


	BEGINNING GENETIC ALGORITHM DOCKING 23 of 100
Run: 23 Seed: 746274373 967536760 [ Run 23 of 100 GA/GALS ]
Beginning LAMARCKIAN GENETIC ALGORITHM (LGA), with a maximum of 2500000 energy evaluations.

Final-Value: -17.261


	FINAL GENETIC ALGORITHM DOCKED STATE
	_______________________________________________


Detailed state:  trans 27.928 -16.536 -1.107 quatxyzw -0.203486 0.001508 -0.931342 0.301981 center 0.459 0.118 0.005 ntor 11 5.1962 -150.4951 16.7339 176.6717 179.4074 155.2906 -176.3897 -134.6968 178.1301 -116.8221 40.2518
State:	 27.928 -16.536  -1.107  -0.213  0.002 -0.977 144.847      5.20 -150.50   16.73  176.67  179.41  155.29 -176.39 -134.70  178.13 -116.82   40.25

DOCKED: MODEL       23
DOCKED: USER    Run = 23
DOCKED: USER    DPF = ligand_dock.biased.dpf
DOCKED: USER  
DOCKED: USER    Estimated Free Energy of Binding    =  -11.67 kcal/mol  [=(1)+(2)+(3)-(4)]
DOCKED: USER    Estimated Inhibition Constant, Ki   =    2.80 nM (nanomolar)  [Temperature = 298.15 K]
DOCKED: USER    
DOCKED: USER    (1) Final Intermolecular Energy     =  -14.95 kcal/mol
DOCKED: USER        vdW + Hbond + desolv Energy     =  -14.95 kcal/mol
DOCKED: USER        Electrostatic Energy            =   +0.00 kcal/mol
DOCKED: USER    (2) Final Total Internal Energy     =   -2.31 kcal/mol
DOCKED: USER    (3) Torsional Free Energy           =   +3.28 kcal/mol
DOCKED: USER    (4) Unbound System's Energy  [=(2)] =   -2.31 kcal/mol
DOCKED: USER    
DOCKED: USER    
DOCKED: USER    NEWDPF move ligand.pdbqt
DOCKED: USER    NEWDPF about 0.459000 0.118000 0.005000
DOCKED: USER    NEWDPF tran0 27.928431 -16.536108 -1.106546
DOCKED: USER    NEWDPF quaternion0 -0.203486 0.001508 -0.931342 0.301981
DOCKED: USER    NEWDPF axisangle0 -0.213452 0.001581 -0.976952 144.846766
DOCKED: USER    NEWDPF quat0 -0.213452 0.001581 -0.976952 144.846766
DOCKED: USER    NEWDPF dihe0 5.20 -150.50 16.73 176.67 179.41 155.29 -176.39 -134.70 178.13 -116.82 40.25 
DOCKED: USER  keepresnum = 1 
DOCKED: USER  
DOCKED: REMARK  Name = 
DOCKED: REMARK  11 active torsions:
DOCKED: REMARK  status: ('A' for Active; 'I' for Inactive)
DOCKED: REMARK    1  A    between atoms: C_2  and  C_5
DOCKED: REMARK    2  A    between atoms: N_3  and  O_4
DOCKED: REMARK    3  A    between atoms: C_6  and  C_7
DOCKED: REMARK    4  A    between atoms: C_10  and  C_11
DOCKED: REMARK    5  A    between atoms: C_11  and  N_12
DOCKED: REMARK    6  A    between atoms: N_12  and  C_13
DOCKED: REMARK    7  A    between atoms: N_12  and  C_16
DOCKED: REMARK    8  A    between atoms: C_13  and  C_14
DOCKED: REMARK    9  A    between atoms: C_14  and  O_15
DOCKED: REMARK   10  A    between atoms: C_16  and  C_17
DOCKED: REMARK   11  A    between atoms: C_17  and  C_18
DOCKED: REMARK                            x       y       z     vdW  Elec       q    Type
DOCKED: REMARK                         _______ _______ _______ _____ _____    ______ ____
DOCKED: USER                              x       y       z     vdW  Elec       q    Type
DOCKED: USER                           _______ _______ _______ _____ _____    ______ ____
DOCKED: ROOT
DOCKED: ATOM      1  N   UNL     1      29.299 -16.059  -1.593 -0.18 -0.00    +0.000 N 
DOCKED: ATOM      2  H   UNL     1      28.492 -15.716  -2.114 +0.00 -0.00    +0.000 HD
DOCKED: ENDROOT
DOCKED: BRANCH   1   3
DOCKED: ATOM      3  C   UNL     1      28.804 -16.843  -0.440 -0.24 -0.00    +0.000 C 
DOCKED: BRANCH   3   7
DOCKED: ATOM      4  C   UNL     1      24.503 -17.260  -0.655 -0.59 -0.00    +0.000 A 
DOCKED: ATOM      5  C   UNL     1      25.314 -18.378  -0.403 -0.59 -0.00    +0.000 A 
DOCKED: ATOM      6  C   UNL     1      26.705 -18.249  -0.341 -0.51 -0.00    +0.000 A 
DOCKED: ATOM      7  C   UNL     1      27.308 -16.996  -0.523 -0.41 -0.00    +0.000 A 
DOCKED: ATOM      8  C   UNL     1      26.503 -15.872  -0.754 -0.38 -0.00    +0.000 A 
DOCKED: ATOM      9  C   UNL     1      25.112 -15.999  -0.817 -0.36 -0.00    +0.000 A 
DOCKED: BRANCH   4  11
DOCKED: ATOM     10  C   UNL     1      22.431 -18.634  -0.557 -0.84 -0.00    +0.000 C 
DOCKED: ATOM     11  C   UNL     1      23.031 -17.443  -0.699 -0.77 -0.00    +0.000 C 
DOCKED: BRANCH  10  13
DOCKED: ATOM     12  O   UNL     1      20.258 -17.889  -1.074 -2.17 -0.00    +0.000 OA
DOCKED: ATOM     13  C   UNL     1      20.965 -18.808  -0.582 -0.84 -0.00    +0.000 C 
DOCKED: ATOM     14  N   UNL     1      20.324 -19.969  -0.038 -0.74 -0.00    +0.000 N 
DOCKED: ATOM     15  H   UNL     1      20.856 -20.641   0.445 -0.35 -0.00    +0.000 HD
DOCKED: BRANCH  14  16
DOCKED: ATOM     16  O   UNL     1      18.989 -20.145  -0.186 -0.88 -0.00    +0.000 OA
DOCKED: ATOM     17  H   UNL     1      18.631 -19.442  -0.752 -0.41 -0.00    +0.000 HD
DOCKED: ENDBRANCH  14  16
DOCKED: ENDBRANCH  10  13
DOCKED: ENDBRANCH   4  11
DOCKED: ENDBRANCH   3   7
DOCKED: ENDBRANCH   1   3
DOCKED: BRANCH   1  18
DOCKED: ATOM     18  C   UNL     1      30.027 -14.846  -1.152 -0.09 -0.00    +0.000 C 
DOCKED: BRANCH  18  19
DOCKED: ATOM     19  C   UNL     1      30.328 -14.863   0.355 -0.12 -0.00    +0.000 C 
DOCKED: BRANCH  19  20
DOCKED: ATOM     20  O   UNL     1      29.150 -14.756   1.109 -0.22 -0.00    +0.000 OA
DOCKED: ATOM     21  H   UNL     1      29.257 -15.237   1.945 -1.66 -0.00    +0.000 HD
DOCKED: ENDBRANCH  19  20
DOCKED: ENDBRANCH  18  19
DOCKED: ENDBRANCH   1  18
DOCKED: BRANCH   1  22
DOCKED: ATOM     22  C   UNL     1      30.042 -16.903  -2.561 -0.20 -0.00    +0.000 C 
DOCKED: BRANCH  22  23
DOCKED: ATOM     23  C   UNL     1      29.324 -17.097  -3.911 -0.11 -0.00    +0.000 C 
DOCKED: BRANCH  23  24
DOCKED: ATOM     24  C   UNL     1      28.614 -15.838  -4.307 -0.26 -0.00    +0.000 A 
DOCKED: ATOM     25  C   UNL     1      27.351 -15.428  -3.890 -0.34 -0.00    +0.000 A 
DOCKED: ATOM     26  N   UNL     1      26.999 -14.280  -4.511 -0.35 -0.00    +0.000 N 
DOCKED: ATOM     27  C   UNL     1      28.021 -13.969  -5.326 -0.28 -0.00    +0.000 A 
DOCKED: ATOM     28  C   UNL     1      29.024 -14.900  -5.235 -0.27 -0.00    +0.000 A 
DOCKED: ATOM     29  C   UNL     1      30.182 -14.813  -6.006 -0.21 -0.00    +0.000 A 
DOCKED: ATOM     30  C   UNL     1      30.302 -13.722  -6.887 -0.18 -0.00    +0.000 A 
DOCKED: ATOM     31  C   UNL     1      29.272 -12.759  -6.978 -0.19 -0.00    +0.000 A 
DOCKED: ATOM     32  C   UNL     1      28.112 -12.879  -6.192 -0.21 -0.00    +0.000 A 
DOCKED: ATOM     33  H   UNL     1      26.163 -13.773  -4.390 -0.02 -0.00    +0.000 HD
DOCKED: ENDBRANCH  23  24
DOCKED: ENDBRANCH  22  23
DOCKED: ENDBRANCH   1  22
DOCKED: TORSDOF 11
DOCKED: TER
DOCKED: ENDMDL
________________________________________________________________________________


	BEGINNING GENETIC ALGORITHM DOCKING 24 of 100
Run: 24 Seed: 1606413417 2086232785 [ Run 24 of 100 GA/GALS ]
Beginning LAMARCKIAN GENETIC ALGORITHM (LGA), with a maximum of 2500000 energy evaluations.

Final-Value: -16.669


	FINAL GENETIC ALGORITHM DOCKED STATE
	_______________________________________________


Detailed state:  trans 28.095 -15.916 -1.970 quatxyzw 0.140375 -0.312852 0.933299 0.106640 center 0.459 0.118 0.005 ntor 11 58.8913 -11.4393 -4.3583 -118.7555 -28.7850 -8.9084 -161.4969 -173.4898 -179.7602 -55.3012 -5.8753
State:	 28.095 -15.916  -1.970   0.141 -0.315  0.939 167.757     58.89  -11.44   -4.36 -118.76  -28.79   -8.91 -161.50 -173.49 -179.76  -55.30   -5.88

DOCKED: MODEL       24
DOCKED: USER    Run = 24
DOCKED: USER    DPF = ligand_dock.biased.dpf
DOCKED: USER  
DOCKED: USER    Estimated Free Energy of Binding    =  -11.41 kcal/mol  [=(1)+(2)+(3)-(4)]
DOCKED: USER    Estimated Inhibition Constant, Ki   =    4.35 nM (nanomolar)  [Temperature = 298.15 K]
DOCKED: USER    
DOCKED: USER    (1) Final Intermolecular Energy     =  -14.69 kcal/mol
DOCKED: USER        vdW + Hbond + desolv Energy     =  -14.69 kcal/mol
DOCKED: USER        Electrostatic Energy            =   +0.00 kcal/mol
DOCKED: USER    (2) Final Total Internal Energy     =   -1.98 kcal/mol
DOCKED: USER    (3) Torsional Free Energy           =   +3.28 kcal/mol
DOCKED: USER    (4) Unbound System's Energy  [=(2)] =   -1.98 kcal/mol
DOCKED: USER    
DOCKED: USER    
DOCKED: USER    NEWDPF move ligand.pdbqt
DOCKED: USER    NEWDPF about 0.459000 0.118000 0.005000
DOCKED: USER    NEWDPF tran0 28.094921 -15.916318 -1.970485
DOCKED: USER    NEWDPF quaternion0 0.140375 -0.312852 0.933299 0.106640
DOCKED: USER    NEWDPF axisangle0 0.141180 -0.314646 0.938651 167.756682
DOCKED: USER    NEWDPF quat0 0.141180 -0.314646 0.938651 167.756682
DOCKED: USER    NEWDPF dihe0 58.89 -11.44 -4.36 -118.76 -28.79 -8.91 -161.50 -173.49 -179.76 -55.30 -5.88 
DOCKED: USER  keepresnum = 1 
DOCKED: USER  
DOCKED: REMARK  Name = 
DOCKED: REMARK  11 active torsions:
DOCKED: REMARK  status: ('A' for Active; 'I' for Inactive)
DOCKED: REMARK    1  A    between atoms: C_2  and  C_5
DOCKED: REMARK    2  A    between atoms: N_3  and  O_4
DOCKED: REMARK    3  A    between atoms: C_6  and  C_7
DOCKED: REMARK    4  A    between atoms: C_10  and  C_11
DOCKED: REMARK    5  A    between atoms: C_11  and  N_12
DOCKED: REMARK    6  A    between atoms: N_12  and  C_13
DOCKED: REMARK    7  A    between atoms: N_12  and  C_16
DOCKED: REMARK    8  A    between atoms: C_13  and  C_14
DOCKED: REMARK    9  A    between atoms: C_14  and  O_15
DOCKED: REMARK   10  A    between atoms: C_16  and  C_17
DOCKED: REMARK   11  A    between atoms: C_17  and  C_18
DOCKED: REMARK                            x       y       z     vdW  Elec       q    Type
DOCKED: REMARK                         _______ _______ _______ _____ _____    ______ ____
DOCKED: USER                              x       y       z     vdW  Elec       q    Type
DOCKED: USER                           _______ _______ _______ _____ _____    ______ ____
DOCKED: ROOT
DOCKED: ATOM      1  N   UNL     1      28.830 -14.704  -1.393 -0.12 -0.00    +0.000 N 
DOCKED: ATOM      2  H   UNL     1      28.019 -14.502  -1.978 +0.01 -0.00    +0.000 HD
DOCKED: ENDROOT
DOCKED: BRANCH   1   3
DOCKED: ATOM      3  C   UNL     1      28.927 -16.172  -1.231 -0.25 -0.00    +0.000 C 
DOCKED: BRANCH   3   7
DOCKED: ATOM      4  C   UNL     1      24.974 -17.851  -0.710 -0.64 -0.00    +0.000 A 
DOCKED: ATOM      5  C   UNL     1      26.116 -18.618  -0.426 -0.50 -0.00    +0.000 A 
DOCKED: ATOM      6  C   UNL     1      27.396 -18.082  -0.602 -0.25 -0.00    +0.000 A 
DOCKED: ATOM      7  C   UNL     1      27.554 -16.764  -1.056 -0.38 -0.00    +0.000 A 
DOCKED: ATOM      8  C   UNL     1      26.418 -15.987  -1.321 -0.40 -0.00    +0.000 A 
DOCKED: ATOM      9  C   UNL     1      25.139 -16.522  -1.146 -0.53 -0.00    +0.000 A 
DOCKED: BRANCH   4  11
DOCKED: ATOM     10  C   UNL     1      22.500 -17.928  -0.968 -0.76 -0.00    +0.000 C 
DOCKED: ATOM     11  C   UNL     1      23.638 -18.459  -0.496 -0.80 -0.00    +0.000 C 
DOCKED: BRANCH  10  13
DOCKED: ATOM     12  O   UNL     1      20.148 -17.882  -1.072 -2.06 -0.00    +0.000 OA
DOCKED: ATOM     13  C   UNL     1      21.175 -18.546  -0.767 -0.83 -0.00    +0.000 C 
DOCKED: ATOM     14  N   UNL     1      21.020 -19.858  -0.210 -0.70 -0.00    +0.000 N 
DOCKED: ATOM     15  H   UNL     1      21.807 -20.341   0.132 -0.55 -0.00    +0.000 HD
DOCKED: BRANCH  14  16
DOCKED: ATOM     16  O   UNL     1      19.796 -20.435  -0.152 -0.86 -0.00    +0.000 OA
DOCKED: ATOM     17  H   UNL     1      19.428 -20.505  -1.047 -0.55 -0.00    +0.000 HD
DOCKED: ENDBRANCH  14  16
DOCKED: ENDBRANCH  10  13
DOCKED: ENDBRANCH   4  11
DOCKED: ENDBRANCH   3   7
DOCKED: ENDBRANCH   1   3
DOCKED: BRANCH   1  18
DOCKED: ATOM     18  C   UNL     1      28.559 -14.033  -0.099 -0.16 -0.00    +0.000 C 
DOCKED: BRANCH  18  19
DOCKED: ATOM     19  C   UNL     1      29.810 -13.954   0.790 -0.12 -0.00    +0.000 C 
DOCKED: BRANCH  19  20
DOCKED: ATOM     20  O   UNL     1      29.930 -15.094   1.599 -0.10 -0.00    +0.000 OA
DOCKED: ATOM     21  H   UNL     1      29.257 -15.067   2.297 -1.80 -0.00    +0.000 HD
DOCKED: ENDBRANCH  19  20
DOCKED: ENDBRANCH  18  19
DOCKED: ENDBRANCH   1  18
DOCKED: BRANCH   1  22
DOCKED: ATOM     22  C   UNL     1      29.984 -14.150  -2.142 -0.05 -0.00    +0.000 C 
DOCKED: BRANCH  22  23
DOCKED: ATOM     23  C   UNL     1      29.620 -13.567  -3.522 -0.07 -0.00    +0.000 C 
DOCKED: BRANCH  23  24
DOCKED: ATOM     24  C   UNL     1      28.157 -13.750  -3.792 -0.16 -0.00    +0.000 A 
DOCKED: ATOM     25  C   UNL     1      27.497 -14.953  -4.024 -0.33 -0.00    +0.000 A 
DOCKED: ATOM     26  N   UNL     1      26.195 -14.730  -4.309 -0.49 -0.00    +0.000 N 
DOCKED: ATOM     27  C   UNL     1      26.029 -13.396  -4.274 -0.36 -0.00    +0.000 A 
DOCKED: ATOM     28  C   UNL     1      27.207 -12.762  -3.968 -0.20 -0.00    +0.000 A 
DOCKED: ATOM     29  C   UNL     1      27.298 -11.373  -3.899 -0.13 -0.00    +0.000 A 
DOCKED: ATOM     30  C   UNL     1      26.132 -10.626  -4.146 -0.20 -0.00    +0.000 A 
DOCKED: ATOM     31  C   UNL     1      24.917 -11.278  -4.456 -0.20 -0.00    +0.000 A 
DOCKED: ATOM     32  C   UNL     1      24.858 -12.682  -4.525 -0.09 -0.00    +0.000 A 
DOCKED: ATOM     33  H   UNL     1      25.506 -15.406  -4.503 -0.06 -0.00    +0.000 HD
DOCKED: ENDBRANCH  23  24
DOCKED: ENDBRANCH  22  23
DOCKED: ENDBRANCH   1  22
DOCKED: TORSDOF 11
DOCKED: TER
DOCKED: ENDMDL
________________________________________________________________________________


	BEGINNING GENETIC ALGORITHM DOCKING 25 of 100
Run: 25 Seed: 1200950071 449757455 [ Run 25 of 100 GA/GALS ]
Beginning LAMARCKIAN GENETIC ALGORITHM (LGA), with a maximum of 2500000 energy evaluations.

Final-Value: -17.349


	FINAL GENETIC ALGORITHM DOCKED STATE
	_______________________________________________


Detailed state:  trans 28.708 -15.452 -1.861 quatxyzw -0.777248 0.001238 0.201208 0.596154 center 0.459 0.118 0.005 ntor 11 2.3085 -179.6297 54.2971 89.4451 -26.5305 159.8212 166.4364 141.5048 158.4247 163.1359 -170.2935
State:	 28.708 -15.452  -1.861  -0.968  0.002  0.251 106.810      2.31 -179.63   54.30   89.45  -26.53  159.82  166.44  141.50  158.42  163.14 -170.29

DOCKED: MODEL       25
DOCKED: USER    Run = 25
DOCKED: USER    DPF = ligand_dock.biased.dpf
DOCKED: USER  
DOCKED: USER    Estimated Free Energy of Binding    =  -10.67 kcal/mol  [=(1)+(2)+(3)-(4)]
DOCKED: USER    Estimated Inhibition Constant, Ki   =   15.06 nM (nanomolar)  [Temperature = 298.15 K]
DOCKED: USER    
DOCKED: USER    (1) Final Intermolecular Energy     =  -13.95 kcal/mol
DOCKED: USER        vdW + Hbond + desolv Energy     =  -13.95 kcal/mol
DOCKED: USER        Electrostatic Energy            =   +0.00 kcal/mol
DOCKED: USER    (2) Final Total Internal Energy     =   -3.40 kcal/mol
DOCKED: USER    (3) Torsional Free Energy           =   +3.28 kcal/mol
DOCKED: USER    (4) Unbound System's Energy  [=(2)] =   -3.40 kcal/mol
DOCKED: USER    
DOCKED: USER    
DOCKED: USER    NEWDPF move ligand.pdbqt
DOCKED: USER    NEWDPF about 0.459000 0.118000 0.005000
DOCKED: USER    NEWDPF tran0 28.707682 -15.452459 -1.861411
DOCKED: USER    NEWDPF quaternion0 -0.777248 0.001238 0.201208 0.596154
DOCKED: USER    NEWDPF axisangle0 -0.968087 0.001542 0.250611 106.810061
DOCKED: USER    NEWDPF quat0 -0.968087 0.001542 0.250611 106.810061
DOCKED: USER    NEWDPF dihe0 2.31 -179.63 54.30 89.45 -26.53 159.82 166.44 141.50 158.42 163.14 -170.29 
DOCKED: USER  keepresnum = 1 
DOCKED: USER  
DOCKED: REMARK  Name = 
DOCKED: REMARK  11 active torsions:
DOCKED: REMARK  status: ('A' for Active; 'I' for Inactive)
DOCKED: REMARK    1  A    between atoms: C_2  and  C_5
DOCKED: REMARK    2  A    between atoms: N_3  and  O_4
DOCKED: REMARK    3  A    between atoms: C_6  and  C_7
DOCKED: REMARK    4  A    between atoms: C_10  and  C_11
DOCKED: REMARK    5  A    between atoms: C_11  and  N_12
DOCKED: REMARK    6  A    between atoms: N_12  and  C_13
DOCKED: REMARK    7  A    between atoms: N_12  and  C_16
DOCKED: REMARK    8  A    between atoms: C_13  and  C_14
DOCKED: REMARK    9  A    between atoms: C_14  and  O_15
DOCKED: REMARK   10  A    between atoms: C_16  and  C_17
DOCKED: REMARK   11  A    between atoms: C_17  and  C_18
DOCKED: REMARK                            x       y       z     vdW  Elec       q    Type
DOCKED: REMARK                         _______ _______ _______ _____ _____    ______ ____
DOCKED: USER                              x       y       z     vdW  Elec       q    Type
DOCKED: USER                           _______ _______ _______ _____ _____    ______ ____
DOCKED: ROOT
DOCKED: ATOM      1  N   UNL     1      27.564 -14.887  -2.707 -0.22 -0.00    +0.000 N 
DOCKED: ATOM      2  H   UNL     1      28.391 -14.297  -2.616 +0.01 -0.00    +0.000 HD
DOCKED: ENDROOT
DOCKED: BRANCH   1   3
DOCKED: ATOM      3  C   UNL     1      27.843 -16.178  -2.041 -0.32 -0.00    +0.000 C 
DOCKED: BRANCH   3   7
DOCKED: ATOM      4  C   UNL     1      24.152 -18.090  -0.840 -0.70 -0.00    +0.000 A 
DOCKED: ATOM      5  C   UNL     1      24.328 -17.648  -2.161 -0.34 -0.00    +0.000 A 
DOCKED: ATOM      6  C   UNL     1      25.516 -17.022  -2.552 -0.30 -0.00    +0.000 A 
DOCKED: ATOM      7  C   UNL     1      26.553 -16.835  -1.626 -0.42 -0.00    +0.000 A 
DOCKED: ATOM      8  C   UNL     1      26.392 -17.292  -0.311 -0.51 -0.00    +0.000 A 
DOCKED: ATOM      9  C   UNL     1      25.205 -17.917   0.081 -0.50 -0.00    +0.000 A 
DOCKED: BRANCH   4  11
DOCKED: ATOM     10  C   UNL     1      21.896 -19.005  -1.355 -0.72 -0.00    +0.000 C 
DOCKED: ATOM     11  C   UNL     1      22.880 -18.760  -0.476 -0.82 -0.00    +0.000 C 
DOCKED: BRANCH  10  13
DOCKED: ATOM     12  O   UNL     1      19.713 -19.739  -1.843 -1.79 -0.00    +0.000 OA
DOCKED: ATOM     13  C   UNL     1      20.640 -19.690  -0.991 -0.86 -0.00    +0.000 C 
DOCKED: ATOM     14  N   UNL     1      20.431 -20.267   0.304 -0.68 -0.00    +0.000 N 
DOCKED: ATOM     15  H   UNL     1      21.104 -20.140   1.011 -0.54 -0.00    +0.000 HD
DOCKED: BRANCH  14  16
DOCKED: ATOM     16  O   UNL     1      19.312 -20.987   0.559 -0.76 -0.00    +0.000 OA
DOCKED: ATOM     17  H   UNL     1      18.776 -21.048  -0.248 -0.28 -0.00    +0.000 HD
DOCKED: ENDBRANCH  14  16
DOCKED: ENDBRANCH  10  13
DOCKED: ENDBRANCH   4  11
DOCKED: ENDBRANCH   3   7
DOCKED: ENDBRANCH   1   3
DOCKED: BRANCH   1  18
DOCKED: ATOM     18  C   UNL     1      27.366 -15.062  -4.166 -0.41 -0.00    +0.000 C 
DOCKED: BRANCH  18  19
DOCKED: ATOM     19  C   UNL     1      28.690 -15.294  -4.911 -0.34 -0.00    +0.000 C 
DOCKED: BRANCH  19  20
DOCKED: ATOM     20  O   UNL     1      29.755 -14.649  -4.265 -0.13 -0.00    +0.000 OA
DOCKED: ATOM     21  H   UNL     1      30.416 -15.306  -3.996 +0.00 -0.00    +0.000 HD
DOCKED: ENDBRANCH  19  20
DOCKED: ENDBRANCH  18  19
DOCKED: ENDBRANCH   1  18
DOCKED: BRANCH   1  22
DOCKED: ATOM     22  C   UNL     1      26.483 -14.132  -2.027 -0.29 -0.00    +0.000 C 
DOCKED: BRANCH  22  23
DOCKED: ATOM     23  C   UNL     1      26.980 -13.155  -0.945 -0.20 -0.00    +0.000 C 
DOCKED: BRANCH  23  24
DOCKED: ATOM     24  C   UNL     1      27.980 -13.830  -0.055 -0.16 -0.00    +0.000 A 
DOCKED: ATOM     25  C   UNL     1      27.746 -14.352   1.213 -0.25 -0.00    +0.000 A 
DOCKED: ATOM     26  N   UNL     1      28.896 -14.815   1.753 -0.07 -0.00    +0.000 N 
DOCKED: ATOM     27  C   UNL     1      29.856 -14.577   0.842 -0.12 -0.00    +0.000 A 
DOCKED: ATOM     28  C   UNL     1      29.337 -13.970  -0.273 -0.08 -0.00    +0.000 A 
DOCKED: ATOM     29  C   UNL     1      30.141 -13.596  -1.349 -0.03 -0.00    +0.000 A 
DOCKED: ATOM     30  C   UNL     1      31.518 -13.869  -1.264 -0.01 -0.00    +0.000 A 
DOCKED: ATOM     31  C   UNL     1      32.054 -14.499  -0.118 -0.03 -0.00    +0.000 A 
DOCKED: ATOM     32  C   UNL     1      31.218 -14.858   0.955 -0.09 -0.00    +0.000 A 
DOCKED: ATOM     33  H   UNL     1      29.008 -15.241   2.633 -1.99 -0.00    +0.000 HD
DOCKED: ENDBRANCH  23  24
DOCKED: ENDBRANCH  22  23
DOCKED: ENDBRANCH   1  22
DOCKED: TORSDOF 11
DOCKED: TER
DOCKED: ENDMDL
________________________________________________________________________________


	BEGINNING GENETIC ALGORITHM DOCKING 26 of 100
Run: 26 Seed: 1103319708 1818734523 [ Run 26 of 100 GA/GALS ]
Beginning LAMARCKIAN GENETIC ALGORITHM (LGA), with a maximum of 2500000 energy evaluations.

Final-Value: -19.068


	FINAL GENETIC ALGORITHM DOCKED STATE
	_______________________________________________


Detailed state:  trans 28.227 -16.239 0.041 quatxyzw -0.710035 0.608431 -0.275255 -0.223376 center 0.459 0.118 0.005 ntor 11 -28.7214 47.5716 171.4463 -41.9146 36.8528 -176.7053 -179.9050 -95.6972 -178.6616 41.5523 70.1281
State:	 28.227 -16.239   0.041  -0.728  0.624 -0.282 -154.185    -28.72   47.57  171.45  -41.91   36.85 -176.71 -179.91  -95.70 -178.66   41.55   70.13

DOCKED: MODEL       26
DOCKED: USER    Run = 26
DOCKED: USER    DPF = ligand_dock.biased.dpf
DOCKED: USER  
DOCKED: USER    Estimated Free Energy of Binding    =  -13.60 kcal/mol  [=(1)+(2)+(3)-(4)]
DOCKED: USER    Estimated Inhibition Constant, Ki   =  107.90 pM (picomolar)  [Temperature = 298.15 K]
DOCKED: USER    
DOCKED: USER    (1) Final Intermolecular Energy     =  -16.88 kcal/mol
DOCKED: USER        vdW + Hbond + desolv Energy     =  -16.88 kcal/mol
DOCKED: USER        Electrostatic Energy            =   +0.00 kcal/mol
DOCKED: USER    (2) Final Total Internal Energy     =   -2.19 kcal/mol
DOCKED: USER    (3) Torsional Free Energy           =   +3.28 kcal/mol
DOCKED: USER    (4) Unbound System's Energy  [=(2)] =   -2.19 kcal/mol
DOCKED: USER    
DOCKED: USER    
DOCKED: USER    NEWDPF move ligand.pdbqt
DOCKED: USER    NEWDPF about 0.459000 0.118000 0.005000
DOCKED: USER    NEWDPF tran0 28.226780 -16.238705 0.041244
DOCKED: USER    NEWDPF quaternion0 -0.710035 0.608431 -0.275255 -0.223376
DOCKED: USER    NEWDPF axisangle0 -0.728441 0.624203 -0.282390 -154.185247
DOCKED: USER    NEWDPF quat0 -0.728441 0.624203 -0.282390 -154.185247
DOCKED: USER    NEWDPF dihe0 -28.72 47.57 171.45 -41.91 36.85 -176.71 -179.91 -95.70 -178.66 41.55 70.13 
DOCKED: USER  keepresnum = 1 
DOCKED: USER  
DOCKED: REMARK  Name = 
DOCKED: REMARK  11 active torsions:
DOCKED: REMARK  status: ('A' for Active; 'I' for Inactive)
DOCKED: REMARK    1  A    between atoms: C_2  and  C_5
DOCKED: REMARK    2  A    between atoms: N_3  and  O_4
DOCKED: REMARK    3  A    between atoms: C_6  and  C_7
DOCKED: REMARK    4  A    between atoms: C_10  and  C_11
DOCKED: REMARK    5  A    between atoms: C_11  and  N_12
DOCKED: REMARK    6  A    between atoms: N_12  and  C_13
DOCKED: REMARK    7  A    between atoms: N_12  and  C_16
DOCKED: REMARK    8  A    between atoms: C_13  and  C_14
DOCKED: REMARK    9  A    between atoms: C_14  and  O_15
DOCKED: REMARK   10  A    between atoms: C_16  and  C_17
DOCKED: REMARK   11  A    between atoms: C_17  and  C_18
DOCKED: REMARK                            x       y       z     vdW  Elec       q    Type
DOCKED: REMARK                         _______ _______ _______ _____ _____    ______ ____
DOCKED: USER                              x       y       z     vdW  Elec       q    Type
DOCKED: USER                           _______ _______ _______ _____ _____    ______ ____
DOCKED: ROOT
DOCKED: ATOM      1  N   UNL     1      29.039 -15.132   0.718 -0.17 -0.00    +0.000 N 
DOCKED: ATOM      2  H   UNL     1      28.473 -15.715   1.334 -0.88 -0.00    +0.000 HD
DOCKED: ENDROOT
DOCKED: BRANCH   1   3
DOCKED: ATOM      3  C   UNL     1      28.936 -15.675  -0.655 -0.22 -0.00    +0.000 C 
DOCKED: BRANCH   3   7
DOCKED: ATOM      4  C   UNL     1      24.927 -17.143  -1.354 -0.59 -0.00    +0.000 A 
DOCKED: ATOM      5  C   UNL     1      25.786 -17.814  -0.468 -0.59 -0.00    +0.000 A 
DOCKED: ATOM      6  C   UNL     1      27.085 -17.348  -0.245 -0.44 -0.00    +0.000 A 
DOCKED: ATOM      7  C   UNL     1      27.545 -16.195  -0.901 -0.33 -0.00    +0.000 A 
DOCKED: ATOM      8  C   UNL     1      26.685 -15.510  -1.770 -0.34 -0.00    +0.000 A 
DOCKED: ATOM      9  C   UNL     1      25.387 -15.976  -1.994 -0.49 -0.00    +0.000 A 
DOCKED: BRANCH   4  11
DOCKED: ATOM     10  C   UNL     1      22.904 -18.398  -0.627 -0.83 -0.00    +0.000 C 
DOCKED: ATOM     11  C   UNL     1      23.553 -17.668  -1.547 -0.61 -0.00    +0.000 C 
DOCKED: BRANCH  10  13
DOCKED: ATOM     12  O   UNL     1      20.658 -18.613   0.045 -1.44 -0.00    +0.000 OA
DOCKED: ATOM     13  C   UNL     1      21.530 -18.902  -0.818 -0.86 -0.00    +0.000 C 
DOCKED: ATOM     14  N   UNL     1      21.167 -19.732  -1.930 -0.49 -0.00    +0.000 N 
DOCKED: ATOM     15  H   UNL     1      21.862 -20.052  -2.548 -0.60 -0.00    +0.000 HD
DOCKED: BRANCH  14  16
DOCKED: ATOM     16  O   UNL     1      19.873 -20.076  -2.131 -1.78 -0.00    +0.000 OA
DOCKED: ATOM     17  H   UNL     1      19.407 -20.097  -1.280 -0.32 -0.00    +0.000 HD
DOCKED: ENDBRANCH  14  16
DOCKED: ENDBRANCH  10  13
DOCKED: ENDBRANCH   4  11
DOCKED: ENDBRANCH   3   7
DOCKED: ENDBRANCH   1   3
DOCKED: BRANCH   1  18
DOCKED: ATOM     18  C   UNL     1      30.422 -15.236   1.240 -0.06 -0.00    +0.000 C 
DOCKED: BRANCH  18  19
DOCKED: ATOM     19  C   UNL     1      30.730 -14.160   2.293 -0.15 -0.00    +0.000 C 
DOCKED: BRANCH  19  20
DOCKED: ATOM     20  O   UNL     1      30.353 -14.582   3.576 -0.32 -0.00    +0.000 OA
DOCKED: ATOM     21  H   UNL     1      29.791 -15.370   3.504 -1.13 -0.00    +0.000 HD
DOCKED: ENDBRANCH  19  20
DOCKED: ENDBRANCH  18  19
DOCKED: ENDBRANCH   1  18
DOCKED: BRANCH   1  22
DOCKED: ATOM     22  C   UNL     1      28.442 -13.778   0.827 -0.20 -0.00    +0.000 C 
DOCKED: BRANCH  22  23
DOCKED: ATOM     23  C   UNL     1      27.195 -13.709   1.729 -0.31 -0.00    +0.000 C 
DOCKED: BRANCH  23  24
DOCKED: ATOM     24  C   UNL     1      27.595 -13.757   3.173 -0.37 -0.00    +0.000 A 
DOCKED: ATOM     25  C   UNL     1      27.797 -14.899   3.942 -0.35 -0.00    +0.000 A 
DOCKED: ATOM     26  N   UNL     1      28.072 -14.563   5.222 -0.55 -0.00    +0.000 N 
DOCKED: ATOM     27  C   UNL     1      28.032 -13.220   5.271 -0.44 -0.00    +0.000 A 
DOCKED: ATOM     28  C   UNL     1      27.737 -12.692   4.040 -0.33 -0.00    +0.000 A 
DOCKED: ATOM     29  C   UNL     1      27.611 -11.317   3.840 -0.26 +0.00    +0.000 A 
DOCKED: ATOM     30  C   UNL     1      27.807 -10.473   4.948 -0.33 +0.00    +0.000 A 
DOCKED: ATOM     31  C   UNL     1      28.116 -11.016   6.216 -0.29 +0.00    +0.000 A 
DOCKED: ATOM     32  C   UNL     1      28.229 -12.407   6.387 -0.36 +0.00    +0.000 A 
DOCKED: ATOM     33  H   UNL     1      28.264 -15.177   5.968 -0.47 -0.00    +0.000 HD
DOCKED: ENDBRANCH  23  24
DOCKED: ENDBRANCH  22  23
DOCKED: ENDBRANCH   1  22
DOCKED: TORSDOF 11
DOCKED: TER
DOCKED: ENDMDL
________________________________________________________________________________


	BEGINNING GENETIC ALGORITHM DOCKING 27 of 100
Run: 27 Seed: 750877701 354780480 [ Run 27 of 100 GA/GALS ]
Beginning LAMARCKIAN GENETIC ALGORITHM (LGA), with a maximum of 2500000 energy evaluations.

Final-Value: -16.695


	FINAL GENETIC ALGORITHM DOCKED STATE
	_______________________________________________


Detailed state:  trans 28.953 -16.695 0.652 quatxyzw -0.975558 0.120189 0.038505 0.179883 center 0.459 0.118 0.005 ntor 11 -17.7545 -40.2307 177.8983 -103.7906 -169.0532 -176.8404 175.9047 120.6027 -129.0975 -2.2964 170.7008
State:	 28.953 -16.695   0.652  -0.992  0.122  0.039 159.274    -17.75  -40.23  177.90 -103.79 -169.05 -176.84  175.90  120.60 -129.10   -2.30  170.70

DOCKED: MODEL       27
DOCKED: USER    Run = 27
DOCKED: USER    DPF = ligand_dock.biased.dpf
DOCKED: USER  
DOCKED: USER    Estimated Free Energy of Binding    =  -11.10 kcal/mol  [=(1)+(2)+(3)-(4)]
DOCKED: USER    Estimated Inhibition Constant, Ki   =    7.36 nM (nanomolar)  [Temperature = 298.15 K]
DOCKED: USER    
DOCKED: USER    (1) Final Intermolecular Energy     =  -14.38 kcal/mol
DOCKED: USER        vdW + Hbond + desolv Energy     =  -14.38 kcal/mol
DOCKED: USER        Electrostatic Energy            =   +0.00 kcal/mol
DOCKED: USER    (2) Final Total Internal Energy     =   -2.32 kcal/mol
DOCKED: USER    (3) Torsional Free Energy           =   +3.28 kcal/mol
DOCKED: USER    (4) Unbound System's Energy  [=(2)] =   -2.32 kcal/mol
DOCKED: USER    
DOCKED: USER    
DOCKED: USER    NEWDPF move ligand.pdbqt
DOCKED: USER    NEWDPF about 0.459000 0.118000 0.005000
DOCKED: USER    NEWDPF tran0 28.952717 -16.694583 0.651721
DOCKED: USER    NEWDPF quaternion0 -0.975558 0.120189 0.038505 0.179883
DOCKED: USER    NEWDPF axisangle0 -0.991735 0.122183 0.039143 159.274116
DOCKED: USER    NEWDPF quat0 -0.991735 0.122183 0.039143 159.274116
DOCKED: USER    NEWDPF dihe0 -17.75 -40.23 177.90 -103.79 -169.05 -176.84 175.90 120.60 -129.10 -2.30 170.70 
DOCKED: USER  keepresnum = 1 
DOCKED: USER  
DOCKED: REMARK  Name = 
DOCKED: REMARK  11 active torsions:
DOCKED: REMARK  status: ('A' for Active; 'I' for Inactive)
DOCKED: REMARK    1  A    between atoms: C_2  and  C_5
DOCKED: REMARK    2  A    between atoms: N_3  and  O_4
DOCKED: REMARK    3  A    between atoms: C_6  and  C_7
DOCKED: REMARK    4  A    between atoms: C_10  and  C_11
DOCKED: REMARK    5  A    between atoms: C_11  and  N_12
DOCKED: REMARK    6  A    between atoms: N_12  and  C_13
DOCKED: REMARK    7  A    between atoms: N_12  and  C_16
DOCKED: REMARK    8  A    between atoms: C_13  and  C_14
DOCKED: REMARK    9  A    between atoms: C_14  and  O_15
DOCKED: REMARK   10  A    between atoms: C_16  and  C_17
DOCKED: REMARK   11  A    between atoms: C_17  and  C_18
DOCKED: REMARK                            x       y       z     vdW  Elec       q    Type
DOCKED: REMARK                         _______ _______ _______ _____ _____    ______ ____
DOCKED: USER                              x       y       z     vdW  Elec       q    Type
DOCKED: USER                           _______ _______ _______ _____ _____    ______ ____
DOCKED: ROOT
DOCKED: ATOM      1  N   UNL     1      28.326 -15.363   0.231 -0.24 -0.00    +0.000 N 
DOCKED: ATOM      2  H   UNL     1      28.968 -15.328   1.022 -0.59 -0.00    +0.000 HD
DOCKED: ENDROOT
DOCKED: BRANCH   1   3
DOCKED: ATOM      3  C   UNL     1      28.327 -16.743  -0.303 -0.29 -0.00    +0.000 C 
DOCKED: BRANCH   3   7
DOCKED: ATOM      4  C   UNL     1      24.272 -17.963  -1.190 -0.67 -0.00    +0.000 A 
DOCKED: ATOM      5  C   UNL     1      24.995 -18.591  -0.163 -0.47 -0.00    +0.000 A 
DOCKED: ATOM      6  C   UNL     1      26.309 -18.206   0.121 -0.55 -0.00    +0.000 A 
DOCKED: ATOM      7  C   UNL     1      26.919 -17.178  -0.614 -0.46 -0.00    +0.000 A 
DOCKED: ATOM      8  C   UNL     1      26.196 -16.534  -1.626 -0.45 -0.00    +0.000 A 
DOCKED: ATOM      9  C   UNL     1      24.883 -16.918  -1.912 -0.55 -0.00    +0.000 A 
DOCKED: BRANCH   4  11
DOCKED: ATOM     10  C   UNL     1      22.096 -18.963  -0.514 -0.83 -0.00    +0.000 C 
DOCKED: ATOM     11  C   UNL     1      22.877 -18.398  -1.446 -0.71 -0.00    +0.000 C 
DOCKED: BRANCH  10  13
DOCKED: ATOM     12  O   UNL     1      20.382 -19.728  -1.936 -1.78 -0.00    +0.000 OA
DOCKED: ATOM     13  C   UNL     1      20.702 -19.376  -0.769 -0.90 -0.00    +0.000 C 
DOCKED: ATOM     14  N   UNL     1      19.699 -19.358   0.257 -0.73 -0.00    +0.000 N 
DOCKED: ATOM     15  H   UNL     1      19.911 -18.983   1.141 -0.23 -0.00    +0.000 HD
DOCKED: BRANCH  14  16
DOCKED: ATOM     16  O   UNL     1      18.464 -19.856   0.012 -0.80 -0.00    +0.000 OA
DOCKED: ATOM     17  H   UNL     1      18.325 -19.923  -0.946 -0.41 -0.00    +0.000 HD
DOCKED: ENDBRANCH  14  16
DOCKED: ENDBRANCH  10  13
DOCKED: ENDBRANCH   4  11
DOCKED: ENDBRANCH   3   7
DOCKED: ENDBRANCH   1   3
DOCKED: BRANCH   1  18
DOCKED: ATOM     18  C   UNL     1      28.865 -14.399  -0.758 -0.13 -0.00    +0.000 C 
DOCKED: BRANCH  18  19
DOCKED: ATOM     19  C   UNL     1      27.764 -13.798  -1.646 -0.17 -0.00    +0.000 C 
DOCKED: BRANCH  19  20
DOCKED: ATOM     20  O   UNL     1      27.292 -12.587  -1.120 -0.17 -0.00    +0.000 OA
DOCKED: ATOM     21  H   UNL     1      26.449 -12.740  -0.664 -0.01 -0.00    +0.000 HD
DOCKED: ENDBRANCH  19  20
DOCKED: ENDBRANCH  18  19
DOCKED: ENDBRANCH   1  18
DOCKED: BRANCH   1  22
DOCKED: ATOM     22  C   UNL     1      27.007 -14.988   0.798 -0.05 -0.00    +0.000 C 
DOCKED: BRANCH  22  23
DOCKED: ATOM     23  C   UNL     1      27.041 -13.741   1.702 -0.29 -0.00    +0.000 C 
DOCKED: BRANCH  23  24
DOCKED: ATOM     24  C   UNL     1      27.806 -14.032   2.959 -0.35 -0.00    +0.000 A 
DOCKED: ATOM     25  C   UNL     1      27.284 -14.503   4.160 -0.40 -0.00    +0.000 A 
DOCKED: ATOM     26  N   UNL     1      28.253 -14.573   5.100 -0.55 -0.00    +0.000 N 
DOCKED: ATOM     27  C   UNL     1      29.378 -14.138   4.507 -0.36 -0.00    +0.000 A 
DOCKED: ATOM     28  C   UNL     1      29.144 -13.792   3.201 -0.24 -0.00    +0.000 A 
DOCKED: ATOM     29  C   UNL     1      30.152 -13.283   2.382 -0.10 -0.00    +0.000 A 
DOCKED: ATOM     30  C   UNL     1      31.437 -13.142   2.936 -0.07 -0.00    +0.000 A 
DOCKED: ATOM     31  C   UNL     1      31.681 -13.504   4.280 -0.15 -0.00    +0.000 A 
DOCKED: ATOM     32  C   UNL     1      30.642 -14.006   5.084 -0.21 -0.00    +0.000 A 
DOCKED: ATOM     33  H   UNL     1      28.155 -14.882   6.030 -0.46 -0.00    +0.000 HD
DOCKED: ENDBRANCH  23  24
DOCKED: ENDBRANCH  22  23
DOCKED: ENDBRANCH   1  22
DOCKED: TORSDOF 11
DOCKED: TER
DOCKED: ENDMDL
________________________________________________________________________________


	BEGINNING GENETIC ALGORITHM DOCKING 28 of 100
Run: 28 Seed: 1694756165 1941199188 [ Run 28 of 100 GA/GALS ]
Beginning LAMARCKIAN GENETIC ALGORITHM (LGA), with a maximum of 2500000 energy evaluations.

Final-Value: -17.951


	FINAL GENETIC ALGORITHM DOCKED STATE
	_______________________________________________


Detailed state:  trans 27.210 -15.962 -1.524 quatxyzw 0.456030 -0.344042 0.820636 0.015123 center 0.459 0.118 0.005 ntor 11 39.5361 148.8405 171.4242 75.8851 17.0325 140.4047 151.0291 52.6109 134.2894 169.0559 27.5003
State:	 27.210 -15.962  -1.524   0.456 -0.344  0.821 178.267     39.54  148.84  171.42   75.89   17.03  140.40  151.03   52.61  134.29  169.06   27.50

DOCKED: MODEL       28
DOCKED: USER    Run = 28
DOCKED: USER    DPF = ligand_dock.biased.dpf
DOCKED: USER  
DOCKED: USER    Estimated Free Energy of Binding    =  -12.46 kcal/mol  [=(1)+(2)+(3)-(4)]
DOCKED: USER    Estimated Inhibition Constant, Ki   =  733.31 pM (picomolar)  [Temperature = 298.15 K]
DOCKED: USER    
DOCKED: USER    (1) Final Intermolecular Energy     =  -15.74 kcal/mol
DOCKED: USER        vdW + Hbond + desolv Energy     =  -15.74 kcal/mol
DOCKED: USER        Electrostatic Energy            =   +0.00 kcal/mol
DOCKED: USER    (2) Final Total Internal Energy     =   -2.21 kcal/mol
DOCKED: USER    (3) Torsional Free Energy           =   +3.28 kcal/mol
DOCKED: USER    (4) Unbound System's Energy  [=(2)] =   -2.21 kcal/mol
DOCKED: USER    
DOCKED: USER    
DOCKED: USER    NEWDPF move ligand.pdbqt
DOCKED: USER    NEWDPF about 0.459000 0.118000 0.005000
DOCKED: USER    NEWDPF tran0 27.209982 -15.962245 -1.524404
DOCKED: USER    NEWDPF quaternion0 0.456030 -0.344042 0.820636 0.015123
DOCKED: USER    NEWDPF axisangle0 0.456082 -0.344082 0.820729 178.266976
DOCKED: USER    NEWDPF quat0 0.456082 -0.344082 0.820729 178.266976
DOCKED: USER    NEWDPF dihe0 39.54 148.84 171.42 75.89 17.03 140.40 151.03 52.61 134.29 169.06 27.50 
DOCKED: USER  keepresnum = 1 
DOCKED: USER  
DOCKED: REMARK  Name = 
DOCKED: REMARK  11 active torsions:
DOCKED: REMARK  status: ('A' for Active; 'I' for Inactive)
DOCKED: REMARK    1  A    between atoms: C_2  and  C_5
DOCKED: REMARK    2  A    between atoms: N_3  and  O_4
DOCKED: REMARK    3  A    between atoms: C_6  and  C_7
DOCKED: REMARK    4  A    between atoms: C_10  and  C_11
DOCKED: REMARK    5  A    between atoms: C_11  and  N_12
DOCKED: REMARK    6  A    between atoms: N_12  and  C_13
DOCKED: REMARK    7  A    between atoms: N_12  and  C_16
DOCKED: REMARK    8  A    between atoms: C_13  and  C_14
DOCKED: REMARK    9  A    between atoms: C_14  and  O_15
DOCKED: REMARK   10  A    between atoms: C_16  and  C_17
DOCKED: REMARK   11  A    between atoms: C_17  and  C_18
DOCKED: REMARK                            x       y       z     vdW  Elec       q    Type
DOCKED: REMARK                         _______ _______ _______ _____ _____    ______ ____
DOCKED: USER                              x       y       z     vdW  Elec       q    Type
DOCKED: USER                           _______ _______ _______ _____ _____    ______ ____
DOCKED: ROOT
DOCKED: ATOM      1  N   UNL     1      28.111 -14.725  -1.496 -0.16 -0.00    +0.000 N 
DOCKED: ATOM      2  H   UNL     1      27.109 -14.554  -1.414 +0.00 -0.00    +0.000 HD
DOCKED: ENDROOT
DOCKED: BRANCH   1   3
DOCKED: ATOM      3  C   UNL     1      28.330 -16.188  -1.505 -0.30 -0.00    +0.000 C 
DOCKED: BRANCH   3   7
DOCKED: ATOM      4  C   UNL     1      24.620 -18.278  -0.736 -0.67 -0.00    +0.000 A 
DOCKED: ATOM      5  C   UNL     1      24.727 -17.394  -1.822 -0.59 -0.00    +0.000 A 
DOCKED: ATOM      6  C   UNL     1      25.921 -16.710  -2.070 -0.47 -0.00    +0.000 A 
DOCKED: ATOM      7  C   UNL     1      27.033 -16.906  -1.237 -0.41 -0.00    +0.000 A 
DOCKED: ATOM      8  C   UNL     1      26.939 -17.803  -0.164 -0.44 -0.00    +0.000 A 
DOCKED: ATOM      9  C   UNL     1      25.746 -18.486   0.084 -0.48 -0.00    +0.000 A 
DOCKED: BRANCH   4  11
DOCKED: ATOM     10  C   UNL     1      22.178 -18.610  -1.079 -0.82 -0.00    +0.000 C 
DOCKED: ATOM     11  C   UNL     1      23.337 -18.991  -0.522 -0.75 -0.00    +0.000 C 
DOCKED: BRANCH  10  13
DOCKED: ATOM     12  O   UNL     1      20.093 -19.400  -1.837 -1.65 -0.00    +0.000 OA
DOCKED: ATOM     13  C   UNL     1      20.907 -19.334  -0.878 -0.89 -0.00    +0.000 C 
DOCKED: ATOM     14  N   UNL     1      20.560 -19.933   0.378 -0.70 -0.00    +0.000 N 
DOCKED: ATOM     15  H   UNL     1      21.137 -19.794   1.163 -0.49 -0.00    +0.000 HD
DOCKED: BRANCH  14  16
DOCKED: ATOM     16  O   UNL     1      19.440 -20.687   0.488 -0.78 -0.00    +0.000 OA
DOCKED: ATOM     17  H   UNL     1      19.337 -21.231  -0.309 -0.37 -0.00    +0.000 HD
DOCKED: ENDBRANCH  14  16
DOCKED: ENDBRANCH  10  13
DOCKED: ENDBRANCH   4  11
DOCKED: ENDBRANCH   3   7
DOCKED: ENDBRANCH   1   3
DOCKED: BRANCH   1  18
DOCKED: ATOM     18  C   UNL     1      28.718 -14.094  -0.301 -0.14 -0.00    +0.000 C 
DOCKED: BRANCH  18  19
DOCKED: ATOM     19  C   UNL     1      27.749 -14.051   0.891 -0.26 -0.00    +0.000 C 
DOCKED: BRANCH  19  20
DOCKED: ATOM     20  O   UNL     1      27.815 -15.233   1.642 -0.25 -0.00    +0.000 OA
DOCKED: ATOM     21  H   UNL     1      28.509 -15.150   2.316 -1.54 -0.00    +0.000 HD
DOCKED: ENDBRANCH  19  20
DOCKED: ENDBRANCH  18  19
DOCKED: ENDBRANCH   1  18
DOCKED: BRANCH   1  22
DOCKED: ATOM     22  C   UNL     1      28.496 -14.098  -2.785 -0.14 -0.00    +0.000 C 
DOCKED: BRANCH  22  23
DOCKED: ATOM     23  C   UNL     1      27.597 -14.492  -3.973 -0.31 -0.00    +0.000 C 
DOCKED: BRANCH  23  24
DOCKED: ATOM     24  C   UNL     1      28.435 -14.802  -5.177 -0.31 -0.00    +0.000 A 
DOCKED: ATOM     25  C   UNL     1      28.442 -14.111  -6.385 -0.30 -0.00    +0.000 A 
DOCKED: ATOM     26  N   UNL     1      29.262 -14.719  -7.271 -0.31 -0.00    +0.000 N 
DOCKED: ATOM     27  C   UNL     1      29.762 -15.794  -6.638 -0.28 -0.00    +0.000 A 
DOCKED: ATOM     28  C   UNL     1      29.275 -15.883  -5.359 -0.31 -0.00    +0.000 A 
DOCKED: ATOM     29  C   UNL     1      29.625 -16.931  -4.509 -0.23 -0.00    +0.000 A 
DOCKED: ATOM     30  C   UNL     1      30.512 -17.905  -5.001 -0.27 -0.00    +0.000 A 
DOCKED: ATOM     31  C   UNL     1      31.020 -17.813  -6.317 -0.27 -0.00    +0.000 A 
DOCKED: ATOM     32  C   UNL     1      30.641 -16.747  -7.153 -0.28 -0.00    +0.000 A 
DOCKED: ATOM     33  H   UNL     1      29.456 -14.432  -8.193 -0.57 -0.00    +0.000 HD
DOCKED: ENDBRANCH  23  24
DOCKED: ENDBRANCH  22  23
DOCKED: ENDBRANCH   1  22
DOCKED: TORSDOF 11
DOCKED: TER
DOCKED: ENDMDL
________________________________________________________________________________


	BEGINNING GENETIC ALGORITHM DOCKING 29 of 100
Run: 29 Seed: 1698315470 1774279352 [ Run 29 of 100 GA/GALS ]
Beginning LAMARCKIAN GENETIC ALGORITHM (LGA), with a maximum of 2500000 energy evaluations.

Final-Value: -18.449


	FINAL GENETIC ALGORITHM DOCKED STATE
	_______________________________________________


Detailed state:  trans 26.824 -15.718 -1.334 quatxyzw -0.469465 0.253183 -0.845642 -0.019778 center 0.459 0.118 0.005 ntor 11 6.7671 -115.2959 -6.7912 171.2474 12.3518 -179.4895 170.0636 41.6448 124.2883 124.8958 33.3712
State:	 26.824 -15.718  -1.334  -0.470  0.253 -0.846 -177.733      6.77 -115.30   -6.79  171.25   12.35 -179.49  170.06   41.64  124.29  124.90   33.37

DOCKED: MODEL       29
DOCKED: USER    Run = 29
DOCKED: USER    DPF = ligand_dock.biased.dpf
DOCKED: USER  
DOCKED: USER    Estimated Free Energy of Binding    =  -12.98 kcal/mol  [=(1)+(2)+(3)-(4)]
DOCKED: USER    Estimated Inhibition Constant, Ki   =  308.07 pM (picomolar)  [Temperature = 298.15 K]
DOCKED: USER    
DOCKED: USER    (1) Final Intermolecular Energy     =  -16.26 kcal/mol
DOCKED: USER        vdW + Hbond + desolv Energy     =  -16.26 kcal/mol
DOCKED: USER        Electrostatic Energy            =   +0.00 kcal/mol
DOCKED: USER    (2) Final Total Internal Energy     =   -2.19 kcal/mol
DOCKED: USER    (3) Torsional Free Energy           =   +3.28 kcal/mol
DOCKED: USER    (4) Unbound System's Energy  [=(2)] =   -2.19 kcal/mol
DOCKED: USER    
DOCKED: USER    
DOCKED: USER    NEWDPF move ligand.pdbqt
DOCKED: USER    NEWDPF about 0.459000 0.118000 0.005000
DOCKED: USER    NEWDPF tran0 26.824102 -15.718060 -1.334489
DOCKED: USER    NEWDPF quaternion0 -0.469465 0.253183 -0.845642 -0.019778
DOCKED: USER    NEWDPF axisangle0 -0.469557 0.253233 -0.845807 -177.733453
DOCKED: USER    NEWDPF quat0 -0.469557 0.253233 -0.845807 -177.733453
DOCKED: USER    NEWDPF dihe0 6.77 -115.30 -6.79 171.25 12.35 -179.49 170.06 41.64 124.29 124.90 33.37 
DOCKED: USER  keepresnum = 1 
DOCKED: USER  
DOCKED: REMARK  Name = 
DOCKED: REMARK  11 active torsions:
DOCKED: REMARK  status: ('A' for Active; 'I' for Inactive)
DOCKED: REMARK    1  A    between atoms: C_2  and  C_5
DOCKED: REMARK    2  A    between atoms: N_3  and  O_4
DOCKED: REMARK    3  A    between atoms: C_6  and  C_7
DOCKED: REMARK    4  A    between atoms: C_10  and  C_11
DOCKED: REMARK    5  A    between atoms: C_11  and  N_12
DOCKED: REMARK    6  A    between atoms: N_12  and  C_13
DOCKED: REMARK    7  A    between atoms: N_12  and  C_16
DOCKED: REMARK    8  A    between atoms: C_13  and  C_14
DOCKED: REMARK    9  A    between atoms: C_14  and  O_15
DOCKED: REMARK   10  A    between atoms: C_16  and  C_17
DOCKED: REMARK   11  A    between atoms: C_17  and  C_18
DOCKED: REMARK                            x       y       z     vdW  Elec       q    Type
DOCKED: REMARK                         _______ _______ _______ _____ _____    ______ ____
DOCKED: USER                              x       y       z     vdW  Elec       q    Type
DOCKED: USER                           _______ _______ _______ _____ _____    ______ ____
DOCKED: ROOT
DOCKED: ATOM      1  N   UNL     1      27.599 -14.410  -1.509 -0.18 -0.00    +0.000 N 
DOCKED: ATOM      2  H   UNL     1      26.584 -14.328  -1.453 -0.00 -0.00    +0.000 HD
DOCKED: ENDROOT
DOCKED: BRANCH   1   3
DOCKED: ATOM      3  C   UNL     1      27.960 -15.826  -1.281 -0.30 -0.00    +0.000 C 
DOCKED: BRANCH   3   7
DOCKED: ATOM      4  C   UNL     1      24.404 -18.197  -0.605 -0.69 -0.00    +0.000 A 
DOCKED: ATOM      5  C   UNL     1      24.304 -16.895  -1.122 -0.58 -0.00    +0.000 A 
DOCKED: ATOM      6  C   UNL     1      25.450 -16.122  -1.333 -0.48 -0.00    +0.000 A 
DOCKED: ATOM      7  C   UNL     1      26.719 -16.643  -1.039 -0.43 -0.00    +0.000 A 
DOCKED: ATOM      8  C   UNL     1      26.827 -17.949  -0.543 -0.47 -0.00    +0.000 A 
DOCKED: ATOM      9  C   UNL     1      25.682 -18.723  -0.330 -0.41 -0.00    +0.000 A 
DOCKED: BRANCH   4  11
DOCKED: ATOM     10  C   UNL     1      22.021 -18.740  -1.073 -0.82 -0.00    +0.000 C 
DOCKED: ATOM     11  C   UNL     1      23.162 -18.983  -0.410 -0.75 -0.00    +0.000 C 
DOCKED: BRANCH  10  13
DOCKED: ATOM     12  O   UNL     1      20.009 -19.671  -1.866 -1.82 -0.00    +0.000 OA
DOCKED: ATOM     13  C   UNL     1      20.793 -19.537  -0.888 -0.86 -0.00    +0.000 C 
DOCKED: ATOM     14  N   UNL     1      20.450 -20.132   0.371 -0.69 -0.00    +0.000 N 
DOCKED: ATOM     15  H   UNL     1      20.997 -19.944   1.167 -0.51 -0.00    +0.000 HD
DOCKED: BRANCH  14  16
DOCKED: ATOM     16  O   UNL     1      19.377 -20.952   0.468 -0.76 -0.00    +0.000 OA
DOCKED: ATOM     17  H   UNL     1      19.014 -21.118  -0.417 -0.36 -0.00    +0.000 HD
DOCKED: ENDBRANCH  14  16
DOCKED: ENDBRANCH  10  13
DOCKED: ENDBRANCH   4  11
DOCKED: ENDBRANCH   3   7
DOCKED: ENDBRANCH   1   3
DOCKED: BRANCH   1  18
DOCKED: ATOM     18  C   UNL     1      28.124 -13.536  -0.432 -0.15 -0.00    +0.000 C 
DOCKED: BRANCH  18  19
DOCKED: ATOM     19  C   UNL     1      29.028 -14.299   0.548 -0.17 -0.00    +0.000 C 
DOCKED: BRANCH  19  20
DOCKED: ATOM     20  O   UNL     1      28.290 -14.812   1.626 -0.29 -0.00    +0.000 OA
DOCKED: ATOM     21  H   UNL     1      28.893 -15.234   2.258 -1.87 -0.00    +0.000 HD
DOCKED: ENDBRANCH  19  20
DOCKED: ENDBRANCH  18  19
DOCKED: ENDBRANCH   1  18
DOCKED: BRANCH   1  22
DOCKED: ATOM     22  C   UNL     1      27.940 -13.963  -2.882 -0.18 -0.00    +0.000 C 
DOCKED: BRANCH  22  23
DOCKED: ATOM     23  C   UNL     1      27.282 -14.797  -3.998 -0.38 -0.00    +0.000 C 
DOCKED: BRANCH  23  24
DOCKED: ATOM     24  C   UNL     1      28.189 -14.879  -5.188 -0.35 -0.00    +0.000 A 
DOCKED: ATOM     25  C   UNL     1      28.138 -14.085  -6.330 -0.26 -0.00    +0.000 A 
DOCKED: ATOM     26  N   UNL     1      29.060 -14.493  -7.231 -0.34 -0.00    +0.000 N 
DOCKED: ATOM     27  C   UNL     1      29.683 -15.546  -6.674 -0.29 -0.00    +0.000 A 
DOCKED: ATOM     28  C   UNL     1      29.175 -15.817  -5.429 -0.31 -0.00    +0.000 A 
DOCKED: ATOM     29  C   UNL     1      29.639 -16.884  -4.660 -0.25 -0.00    +0.000 A 
DOCKED: ATOM     30  C   UNL     1      30.665 -17.681  -5.198 -0.26 -0.00    +0.000 A 
DOCKED: ATOM     31  C   UNL     1      31.194 -17.400  -6.478 -0.24 -0.00    +0.000 A 
DOCKED: ATOM     32  C   UNL     1      30.699 -16.321  -7.233 -0.28 -0.00    +0.000 A 
DOCKED: ATOM     33  H   UNL     1      29.240 -14.099  -8.115 -0.49 -0.00    +0.000 HD
DOCKED: ENDBRANCH  23  24
DOCKED: ENDBRANCH  22  23
DOCKED: ENDBRANCH   1  22
DOCKED: TORSDOF 11
DOCKED: TER
DOCKED: ENDMDL
________________________________________________________________________________


	BEGINNING GENETIC ALGORITHM DOCKING 30 of 100
Run: 30 Seed: 1348421332 1135242073 [ Run 30 of 100 GA/GALS ]
Beginning LAMARCKIAN GENETIC ALGORITHM (LGA), with a maximum of 2500000 energy evaluations.

Final-Value: -17.297


	FINAL GENETIC ALGORITHM DOCKED STATE
	_______________________________________________


Detailed state:  trans 27.824 -16.417 -2.280 quatxyzw -0.077399 0.472704 0.858956 -0.180982 center 0.459 0.118 0.005 ntor 11 29.6287 179.6477 105.9296 52.7003 66.7713 63.6194 9.9087 102.5957 -96.4477 26.4431 37.0858
State:	 27.824 -16.417  -2.280  -0.079  0.481  0.873 -159.146     29.63  179.65  105.93   52.70   66.77   63.62    9.91  102.60  -96.45   26.44   37.09

DOCKED: MODEL       30
DOCKED: USER    Run = 30
DOCKED: USER    DPF = ligand_dock.biased.dpf
DOCKED: USER  
DOCKED: USER    Estimated Free Energy of Binding    =  -11.08 kcal/mol  [=(1)+(2)+(3)-(4)]
DOCKED: USER    Estimated Inhibition Constant, Ki   =    7.54 nM (nanomolar)  [Temperature = 298.15 K]
DOCKED: USER    
DOCKED: USER    (1) Final Intermolecular Energy     =  -14.36 kcal/mol
DOCKED: USER        vdW + Hbond + desolv Energy     =  -14.36 kcal/mol
DOCKED: USER        Electrostatic Energy            =   +0.00 kcal/mol
DOCKED: USER    (2) Final Total Internal Energy     =   -2.93 kcal/mol
DOCKED: USER    (3) Torsional Free Energy           =   +3.28 kcal/mol
DOCKED: USER    (4) Unbound System's Energy  [=(2)] =   -2.93 kcal/mol
DOCKED: USER    
DOCKED: USER    
DOCKED: USER    NEWDPF move ligand.pdbqt
DOCKED: USER    NEWDPF about 0.459000 0.118000 0.005000
DOCKED: USER    NEWDPF tran0 27.824419 -16.416769 -2.279981
DOCKED: USER    NEWDPF quaternion0 -0.077399 0.472704 0.858956 -0.180982
DOCKED: USER    NEWDPF axisangle0 -0.078699 0.480641 0.873379 -159.146045
DOCKED: USER    NEWDPF quat0 -0.078699 0.480641 0.873379 -159.146045
DOCKED: USER    NEWDPF dihe0 29.63 179.65 105.93 52.70 66.77 63.62 9.91 102.60 -96.45 26.44 37.09 
DOCKED: USER  keepresnum = 1 
DOCKED: USER  
DOCKED: REMARK  Name = 
DOCKED: REMARK  11 active torsions:
DOCKED: REMARK  status: ('A' for Active; 'I' for Inactive)
DOCKED: REMARK    1  A    between atoms: C_2  and  C_5
DOCKED: REMARK    2  A    between atoms: N_3  and  O_4
DOCKED: REMARK    3  A    between atoms: C_6  and  C_7
DOCKED: REMARK    4  A    between atoms: C_10  and  C_11
DOCKED: REMARK    5  A    between atoms: C_11  and  N_12
DOCKED: REMARK    6  A    between atoms: N_12  and  C_13
DOCKED: REMARK    7  A    between atoms: N_12  and  C_16
DOCKED: REMARK    8  A    between atoms: C_13  and  C_14
DOCKED: REMARK    9  A    between atoms: C_14  and  O_15
DOCKED: REMARK   10  A    between atoms: C_16  and  C_17
DOCKED: REMARK   11  A    between atoms: C_17  and  C_18
DOCKED: REMARK                            x       y       z     vdW  Elec       q    Type
DOCKED: REMARK                         _______ _______ _______ _____ _____    ______ ____
DOCKED: USER                              x       y       z     vdW  Elec       q    Type
DOCKED: USER                           _______ _______ _______ _____ _____    ______ ____
DOCKED: ROOT
DOCKED: ATOM      1  N   UNL     1      29.146 -16.031  -2.949 -0.20 -0.00    +0.000 N 
DOCKED: ATOM      2  H   UNL     1      28.529 -16.640  -3.488 -0.02 -0.00    +0.000 HD
DOCKED: ENDROOT
DOCKED: BRANCH   1   3
DOCKED: ATOM      3  C   UNL     1      28.443 -15.648  -1.705 -0.24 -0.00    +0.000 C 
DOCKED: BRANCH   3   7
DOCKED: ATOM      4  C   UNL     1      24.628 -17.677  -1.496 -0.62 -0.00    +0.000 A 
DOCKED: ATOM      5  C   UNL     1      24.755 -16.471  -2.205 -0.45 -0.00    +0.000 A 
DOCKED: ATOM      6  C   UNL     1      25.984 -15.808  -2.268 -0.44 -0.00    +0.000 A 
DOCKED: ATOM      7  C   UNL     1      27.111 -16.345  -1.628 -0.36 -0.00    +0.000 A 
DOCKED: ATOM      8  C   UNL     1      26.996 -17.558  -0.937 -0.43 -0.00    +0.000 A 
DOCKED: ATOM      9  C   UNL     1      25.768 -18.223  -0.872 -0.51 -0.00    +0.000 A 
DOCKED: BRANCH   4  11
DOCKED: ATOM     10  C   UNL     1      22.408 -18.177  -0.489 -0.84 -0.00    +0.000 C 
DOCKED: ATOM     11  C   UNL     1      23.307 -18.351  -1.469 -0.76 -0.00    +0.000 C 
DOCKED: BRANCH  10  13
DOCKED: ATOM     12  O   UNL     1      20.097 -18.210  -0.939 -2.00 -0.00    +0.000 OA
DOCKED: ATOM     13  C   UNL     1      21.087 -18.836  -0.476 -0.83 -0.00    +0.000 C 
DOCKED: ATOM     14  N   UNL     1      20.892 -20.146   0.074 -0.63 -0.00    +0.000 N 
DOCKED: ATOM     15  H   UNL     1      21.634 -20.599   0.536 -0.56 -0.00    +0.000 HD
DOCKED: BRANCH  14  16
DOCKED: ATOM     16  O   UNL     1      19.691 -20.762  -0.040 -0.76 -0.00    +0.000 OA
DOCKED: ATOM     17  H   UNL     1      19.250 -20.464  -0.851 -0.44 -0.00    +0.000 HD
DOCKED: ENDBRANCH  14  16
DOCKED: ENDBRANCH  10  13
DOCKED: ENDBRANCH   4  11
DOCKED: ENDBRANCH   3   7
DOCKED: ENDBRANCH   1   3
DOCKED: BRANCH   1  18
DOCKED: ATOM     18  C   UNL     1      29.394 -14.856  -3.817 -0.16 -0.00    +0.000 C 
DOCKED: BRANCH  18  19
DOCKED: ATOM     19  C   UNL     1      28.574 -14.906  -5.115 -0.34 -0.00    +0.000 C 
DOCKED: BRANCH  19  20
DOCKED: ATOM     20  O   UNL     1      27.460 -15.747  -4.980 -0.80 +0.00    +0.000 OA
DOCKED: ATOM     21  H   UNL     1      26.649 -15.232  -5.113 -0.05 -0.00    +0.000 HD
DOCKED: ENDBRANCH  19  20
DOCKED: ENDBRANCH  18  19
DOCKED: ENDBRANCH   1  18
DOCKED: BRANCH   1  22
DOCKED: ATOM     22  C   UNL     1      30.348 -16.858  -2.677 -0.18 -0.00    +0.000 C 
DOCKED: BRANCH  22  23
DOCKED: ATOM     23  C   UNL     1      31.332 -16.949  -3.859 -0.13 -0.00    +0.000 C 
DOCKED: BRANCH  23  24
DOCKED: ATOM     24  C   UNL     1      30.928 -18.055  -4.786 -0.22 -0.00    +0.000 A 
DOCKED: ATOM     25  C   UNL     1      30.280 -17.919  -6.011 -0.31 -0.00    +0.000 A 
DOCKED: ATOM     26  N   UNL     1      30.002 -19.134  -6.535 -0.42 -0.00    +0.000 N 
DOCKED: ATOM     27  C   UNL     1      30.455 -20.035  -5.646 -0.38 -0.00    +0.000 A 
DOCKED: ATOM     28  C   UNL     1      31.022 -19.415  -4.562 -0.21 -0.00    +0.000 A 
DOCKED: ATOM     29  C   UNL     1      31.540 -20.138  -3.488 -0.15 -0.00    +0.000 A 
DOCKED: ATOM     30  C   UNL     1      31.476 -21.542  -3.552 -0.16 -0.00    +0.000 A 
DOCKED: ATOM     31  C   UNL     1      30.898 -22.182  -4.672 -0.26 -0.00    +0.000 A 
DOCKED: ATOM     32  C   UNL     1      30.376 -21.425  -5.736 -0.34 -0.00    +0.000 A 
DOCKED: ATOM     33  H   UNL     1      29.558 -19.321  -7.394 -0.17 -0.00    +0.000 HD
DOCKED: ENDBRANCH  23  24
DOCKED: ENDBRANCH  22  23
DOCKED: ENDBRANCH   1  22
DOCKED: TORSDOF 11
DOCKED: TER
DOCKED: ENDMDL
________________________________________________________________________________


	BEGINNING GENETIC ALGORITHM DOCKING 31 of 100
Run: 31 Seed: 1667942937 1760160161 [ Run 31 of 100 GA/GALS ]
Beginning LAMARCKIAN GENETIC ALGORITHM (LGA), with a maximum of 2500000 energy evaluations.

Final-Value: -15.434


	FINAL GENETIC ALGORITHM DOCKED STATE
	_______________________________________________


Detailed state:  trans 29.024 -14.769 -1.937 quatxyzw 0.647172 0.392351 -0.625281 -0.190401 center 0.459 0.118 0.005 ntor 11 -47.3564 -95.0140 -160.6688 -65.5409 7.6185 -84.1569 146.4653 -60.0317 -158.2318 27.9104 -116.6695
State:	 29.024 -14.769  -1.937   0.659  0.400 -0.637 -158.048    -47.36  -95.01 -160.67  -65.54    7.62  -84.16  146.47  -60.03 -158.23   27.91 -116.67

DOCKED: MODEL       31
DOCKED: USER    Run = 31
DOCKED: USER    DPF = ligand_dock.biased.dpf
DOCKED: USER  
DOCKED: USER    Estimated Free Energy of Binding    =   -9.96 kcal/mol  [=(1)+(2)+(3)-(4)]
DOCKED: USER    Estimated Inhibition Constant, Ki   =   49.86 nM (nanomolar)  [Temperature = 298.15 K]
DOCKED: USER    
DOCKED: USER    (1) Final Intermolecular Energy     =  -13.24 kcal/mol
DOCKED: USER        vdW + Hbond + desolv Energy     =  -13.24 kcal/mol
DOCKED: USER        Electrostatic Energy            =   +0.00 kcal/mol
DOCKED: USER    (2) Final Total Internal Energy     =   -2.19 kcal/mol
DOCKED: USER    (3) Torsional Free Energy           =   +3.28 kcal/mol
DOCKED: USER    (4) Unbound System's Energy  [=(2)] =   -2.19 kcal/mol
DOCKED: USER    
DOCKED: USER    
DOCKED: USER    NEWDPF move ligand.pdbqt
DOCKED: USER    NEWDPF about 0.459000 0.118000 0.005000
DOCKED: USER    NEWDPF tran0 29.023742 -14.769054 -1.937408
DOCKED: USER    NEWDPF quaternion0 0.647172 0.392351 -0.625281 -0.190401
DOCKED: USER    NEWDPF axisangle0 0.659232 0.399662 -0.636933 -158.047649
DOCKED: USER    NEWDPF quat0 0.659232 0.399662 -0.636933 -158.047649
DOCKED: USER    NEWDPF dihe0 -47.36 -95.01 -160.67 -65.54 7.62 -84.16 146.47 -60.03 -158.23 27.91 -116.67 
DOCKED: USER  keepresnum = 1 
DOCKED: USER  
DOCKED: REMARK  Name = 
DOCKED: REMARK  11 active torsions:
DOCKED: REMARK  status: ('A' for Active; 'I' for Inactive)
DOCKED: REMARK    1  A    between atoms: C_2  and  C_5
DOCKED: REMARK    2  A    between atoms: N_3  and  O_4
DOCKED: REMARK    3  A    between atoms: C_6  and  C_7
DOCKED: REMARK    4  A    between atoms: C_10  and  C_11
DOCKED: REMARK    5  A    between atoms: C_11  and  N_12
DOCKED: REMARK    6  A    between atoms: N_12  and  C_13
DOCKED: REMARK    7  A    between atoms: N_12  and  C_16
DOCKED: REMARK    8  A    between atoms: C_13  and  C_14
DOCKED: REMARK    9  A    between atoms: C_14  and  O_15
DOCKED: REMARK   10  A    between atoms: C_16  and  C_17
DOCKED: REMARK   11  A    between atoms: C_17  and  C_18
DOCKED: REMARK                            x       y       z     vdW  Elec       q    Type
DOCKED: REMARK                         _______ _______ _______ _____ _____    ______ ____
DOCKED: USER                              x       y       z     vdW  Elec       q    Type
DOCKED: USER                           _______ _______ _______ _____ _____    ______ ____
DOCKED: ROOT
DOCKED: ATOM      1  N   UNL     1      28.189 -14.271  -0.755 -0.14 -0.00    +0.000 N 
DOCKED: ATOM      2  H   UNL     1      28.764 -13.573  -1.226 +0.00 -0.00    +0.000 HD
DOCKED: ENDROOT
DOCKED: BRANCH   1   3
DOCKED: ATOM      3  C   UNL     1      28.306 -15.544  -1.501 -0.24 -0.00    +0.000 C 
DOCKED: BRANCH   3   7
DOCKED: ATOM      4  C   UNL     1      24.651 -17.821  -1.087 -0.66 -0.00    +0.000 A 
DOCKED: ATOM      5  C   UNL     1      25.641 -17.879  -0.094 -0.57 -0.00    +0.000 A 
DOCKED: ATOM      6  C   UNL     1      26.828 -17.152  -0.227 -0.46 -0.00    +0.000 A 
DOCKED: ATOM      7  C   UNL     1      27.040 -16.346  -1.356 -0.37 -0.00    +0.000 A 
DOCKED: ATOM      8  C   UNL     1      26.046 -16.267  -2.341 -0.45 -0.00    +0.000 A 
DOCKED: ATOM      9  C   UNL     1      24.860 -16.995  -2.209 -0.50 -0.00    +0.000 A 
DOCKED: BRANCH   4  11
DOCKED: ATOM     10  C   UNL     1      22.188 -18.040  -0.805 -0.80 -0.00    +0.000 C 
DOCKED: ATOM     11  C   UNL     1      23.403 -18.601  -0.895 -0.82 -0.00    +0.000 C 
DOCKED: BRANCH  10  13
DOCKED: ATOM     12  O   UNL     1      19.863 -18.329  -1.041 -1.74 -0.00    +0.000 OA
DOCKED: ATOM     13  C   UNL     1      20.948 -18.822  -0.632 -0.85 -0.00    +0.000 C 
DOCKED: ATOM     14  N   UNL     1      20.935 -20.103   0.013 -0.65 -0.00    +0.000 N 
DOCKED: ATOM     15  H   UNL     1      21.756 -20.448   0.433 -0.58 -0.00    +0.000 HD
DOCKED: BRANCH  14  16
DOCKED: ATOM     16  O   UNL     1      19.799 -20.839   0.047 -0.78 -0.00    +0.000 OA
DOCKED: ATOM     17  H   UNL     1      19.057 -20.277   0.321 -0.03 -0.00    +0.000 HD
DOCKED: ENDBRANCH  14  16
DOCKED: ENDBRANCH  10  13
DOCKED: ENDBRANCH   4  11
DOCKED: ENDBRANCH   3   7
DOCKED: ENDBRANCH   1   3
DOCKED: BRANCH   1  18
DOCKED: ATOM     18  C   UNL     1      26.806 -13.740  -0.804 -0.26 -0.00    +0.000 C 
DOCKED: BRANCH  18  19
DOCKED: ATOM     19  C   UNL     1      26.270 -13.381   0.591 -0.33 -0.00    +0.000 C 
DOCKED: BRANCH  19  20
DOCKED: ATOM     20  O   UNL     1      26.044 -12.002   0.709 -0.36 +0.00    +0.000 OA
DOCKED: ATOM     21  H   UNL     1      26.083 -11.747   1.645 -0.02 +0.00    +0.000 HD
DOCKED: ENDBRANCH  19  20
DOCKED: ENDBRANCH  18  19
DOCKED: ENDBRANCH   1  18
DOCKED: BRANCH   1  22
DOCKED: ATOM     22  C   UNL     1      28.760 -14.372   0.610 -0.20 -0.00    +0.000 C 
DOCKED: BRANCH  22  23
DOCKED: ATOM     23  C   UNL     1      29.651 -13.181   1.012 -0.09 -0.00    +0.000 C 
DOCKED: BRANCH  23  24
DOCKED: ATOM     24  C   UNL     1      28.990 -12.378   2.091 -0.10 -0.00    +0.000 A 
DOCKED: ATOM     25  C   UNL     1      28.642 -11.032   2.032 -0.10 +0.00    +0.000 A 
DOCKED: ATOM     26  N   UNL     1      28.137 -10.623   3.217 -0.20 +0.00    +0.000 N 
DOCKED: ATOM     27  C   UNL     1      28.176 -11.695   4.028 -0.26 +0.00    +0.000 A 
DOCKED: ATOM     28  C   UNL     1      28.697 -12.784   3.379 -0.21 -0.00    +0.000 A 
DOCKED: ATOM     29  C   UNL     1      28.867 -14.011   4.019 -0.37 -0.00    +0.000 A 
DOCKED: ATOM     30  C   UNL     1      28.475 -14.107   5.366 -0.44 -0.00    +0.000 A 
DOCKED: ATOM     31  C   UNL     1      27.933 -12.987   6.036 -0.31 -0.00    +0.000 A 
DOCKED: ATOM     32  C   UNL     1      27.781 -11.760   5.364 -0.36 +0.00    +0.000 A 
DOCKED: ATOM     33  H   UNL     1      27.806  -9.723   3.441 -0.01 +0.00    +0.000 HD
DOCKED: ENDBRANCH  23  24
DOCKED: ENDBRANCH  22  23
DOCKED: ENDBRANCH   1  22
DOCKED: TORSDOF 11
DOCKED: TER
DOCKED: ENDMDL
________________________________________________________________________________


	BEGINNING GENETIC ALGORITHM DOCKING 32 of 100
Run: 32 Seed: 96940545 1509757492 [ Run 32 of 100 GA/GALS ]
Beginning LAMARCKIAN GENETIC ALGORITHM (LGA), with a maximum of 2500000 energy evaluations.

Final-Value: -17.943


	FINAL GENETIC ALGORITHM DOCKED STATE
	_______________________________________________


Detailed state:  trans 29.044 -14.723 0.962 quatxyzw -0.761871 0.505087 -0.310426 -0.260912 center 0.459 0.118 0.005 ntor 11 0.0267 11.4118 106.4303 65.2541 170.2841 136.3610 -179.8609 -141.0334 -165.3578 168.1994 67.0512
State:	 29.044 -14.723   0.962  -0.789  0.523 -0.322 -149.752      0.03   11.41  106.43   65.25  170.28  136.36 -179.86 -141.03 -165.36  168.20   67.05

DOCKED: MODEL       32
DOCKED: USER    Run = 32
DOCKED: USER    DPF = ligand_dock.biased.dpf
DOCKED: USER  
DOCKED: USER    Estimated Free Energy of Binding    =  -11.29 kcal/mol  [=(1)+(2)+(3)-(4)]
DOCKED: USER    Estimated Inhibition Constant, Ki   =    5.29 nM (nanomolar)  [Temperature = 298.15 K]
DOCKED: USER    
DOCKED: USER    (1) Final Intermolecular Energy     =  -14.57 kcal/mol
DOCKED: USER        vdW + Hbond + desolv Energy     =  -14.57 kcal/mol
DOCKED: USER        Electrostatic Energy            =   +0.00 kcal/mol
DOCKED: USER    (2) Final Total Internal Energy     =   -3.37 kcal/mol
DOCKED: USER    (3) Torsional Free Energy           =   +3.28 kcal/mol
DOCKED: USER    (4) Unbound System's Energy  [=(2)] =   -3.37 kcal/mol
DOCKED: USER    
DOCKED: USER    
DOCKED: USER    NEWDPF move ligand.pdbqt
DOCKED: USER    NEWDPF about 0.459000 0.118000 0.005000
DOCKED: USER    NEWDPF tran0 29.044431 -14.723148 0.961750
DOCKED: USER    NEWDPF quaternion0 -0.761871 0.505087 -0.310426 -0.260912
DOCKED: USER    NEWDPF axisangle0 -0.789208 0.523209 -0.321564 -149.751574
DOCKED: USER    NEWDPF quat0 -0.789208 0.523209 -0.321564 -149.751574
DOCKED: USER    NEWDPF dihe0 0.03 11.41 106.43 65.25 170.28 136.36 -179.86 -141.03 -165.36 168.20 67.05 
DOCKED: USER  keepresnum = 1 
DOCKED: USER  
DOCKED: REMARK  Name = 
DOCKED: REMARK  11 active torsions:
DOCKED: REMARK  status: ('A' for Active; 'I' for Inactive)
DOCKED: REMARK    1  A    between atoms: C_2  and  C_5
DOCKED: REMARK    2  A    between atoms: N_3  and  O_4
DOCKED: REMARK    3  A    between atoms: C_6  and  C_7
DOCKED: REMARK    4  A    between atoms: C_10  and  C_11
DOCKED: REMARK    5  A    between atoms: C_11  and  N_12
DOCKED: REMARK    6  A    between atoms: N_12  and  C_13
DOCKED: REMARK    7  A    between atoms: N_12  and  C_16
DOCKED: REMARK    8  A    between atoms: C_13  and  C_14
DOCKED: REMARK    9  A    between atoms: C_14  and  O_15
DOCKED: REMARK   10  A    between atoms: C_16  and  C_17
DOCKED: REMARK   11  A    between atoms: C_17  and  C_18
DOCKED: REMARK                            x       y       z     vdW  Elec       q    Type
DOCKED: REMARK                         _______ _______ _______ _____ _____    ______ ____
DOCKED: USER                              x       y       z     vdW  Elec       q    Type
DOCKED: USER                           _______ _______ _______ _____ _____    ______ ____
DOCKED: ROOT
DOCKED: ATOM      1  N   UNL     1      29.520 -13.430   1.628 -0.12 -0.00    +0.000 N 
DOCKED: ATOM      2  H   UNL     1      29.019 -14.086   2.226 -0.52 -0.00    +0.000 HD
DOCKED: ENDROOT
DOCKED: BRANCH   1   3
DOCKED: ATOM      3  C   UNL     1      29.698 -14.059   0.301 -0.11 -0.00    +0.000 C 
DOCKED: BRANCH   3   7
DOCKED: ATOM      4  C   UNL     1      26.326 -16.604  -0.632 -0.45 -0.00    +0.000 A 
DOCKED: ATOM      5  C   UNL     1      26.131 -15.245  -0.337 -0.25 -0.00    +0.000 A 
DOCKED: ATOM      6  C   UNL     1      27.218 -14.421  -0.027 -0.25 -0.00    +0.000 A 
DOCKED: ATOM      7  C   UNL     1      28.520 -14.942  -0.014 -0.19 -0.00    +0.000 A 
DOCKED: ATOM      8  C   UNL     1      28.723 -16.293  -0.328 -0.23 -0.00    +0.000 A 
DOCKED: ATOM      9  C   UNL     1      27.638 -17.118  -0.638 -0.38 -0.00    +0.000 A 
DOCKED: BRANCH   4  11
DOCKED: ATOM     10  C   UNL     1      23.890 -17.113  -0.620 -0.65 -0.00    +0.000 C 
DOCKED: ATOM     11  C   UNL     1      25.144 -17.436  -0.968 -0.68 -0.00    +0.000 C 
DOCKED: BRANCH  10  13
DOCKED: ATOM     12  O   UNL     1      22.907 -19.071  -1.484 -0.83 -0.00    +0.000 OA
DOCKED: ATOM     13  C   UNL     1      22.716 -17.935  -0.974 -0.78 -0.00    +0.000 C 
DOCKED: ATOM     14  N   UNL     1      21.372 -17.470  -0.784 -0.66 -0.00    +0.000 N 
DOCKED: ATOM     15  H   UNL     1      21.212 -16.545  -0.489 -0.06 +0.00    +0.000 HD
DOCKED: BRANCH  14  16
DOCKED: ATOM     16  O   UNL     1      20.325 -18.298  -1.011 -2.06 -0.00    +0.000 OA
DOCKED: ATOM     17  H   UNL     1      20.654 -19.167  -1.293 -0.04 -0.00    +0.000 HD
DOCKED: ENDBRANCH  14  16
DOCKED: ENDBRANCH  10  13
DOCKED: ENDBRANCH   4  11
DOCKED: ENDBRANCH   3   7
DOCKED: ENDBRANCH   1   3
DOCKED: BRANCH   1  18
DOCKED: ATOM     18  C   UNL     1      30.822 -13.201   2.299 -0.09 -0.00    +0.000 C 
DOCKED: BRANCH  18  19
DOCKED: ATOM     19  C   UNL     1      31.138 -14.284   3.342 -0.22 -0.00    +0.000 C 
DOCKED: BRANCH  19  20
DOCKED: ATOM     20  O   UNL     1      30.418 -15.460   3.087 +0.07 -0.00    +0.000 OA
DOCKED: ATOM     21  H   UNL     1      29.482 -15.243   2.951 -1.79 -0.00    +0.000 HD
DOCKED: ENDBRANCH  19  20
DOCKED: ENDBRANCH  18  19
DOCKED: ENDBRANCH   1  18
DOCKED: BRANCH   1  22
DOCKED: ATOM     22  C   UNL     1      28.645 -12.234   1.563 -0.13 -0.00    +0.000 C 
DOCKED: BRANCH  22  23
DOCKED: ATOM     23  C   UNL     1      27.476 -12.252   2.568 -0.30 -0.00    +0.000 C 
DOCKED: BRANCH  23  24
DOCKED: ATOM     24  C   UNL     1      27.866 -13.006   3.803 -0.34 -0.00    +0.000 A 
DOCKED: ATOM     25  C   UNL     1      27.754 -14.378   4.010 -0.50 -0.00    +0.000 A 
DOCKED: ATOM     26  N   UNL     1      28.127 -14.697   5.270 -0.54 -0.00    +0.000 N 
DOCKED: ATOM     27  C   UNL     1      28.459 -13.538   5.864 -0.37 -0.00    +0.000 A 
DOCKED: ATOM     28  C   UNL     1      28.307 -12.482   5.003 -0.34 -0.00    +0.000 A 
DOCKED: ATOM     29  C   UNL     1      28.561 -11.168   5.396 -0.29 +0.00    +0.000 A 
DOCKED: ATOM     30  C   UNL     1      28.996 -10.952   6.716 -0.29 +0.00    +0.000 A 
DOCKED: ATOM     31  C   UNL     1      29.160 -12.040   7.603 -0.34 -0.00    +0.000 A 
DOCKED: ATOM     32  C   UNL     1      28.887 -13.353   7.179 -0.33 -0.00    +0.000 A 
DOCKED: ATOM     33  H   UNL     1      28.152 -15.596   5.670 -0.52 -0.00    +0.000 HD
DOCKED: ENDBRANCH  23  24
DOCKED: ENDBRANCH  22  23
DOCKED: ENDBRANCH   1  22
DOCKED: TORSDOF 11
DOCKED: TER
DOCKED: ENDMDL
________________________________________________________________________________


	BEGINNING GENETIC ALGORITHM DOCKING 33 of 100
Run: 33 Seed: 122058271 376490223 [ Run 33 of 100 GA/GALS ]
Beginning LAMARCKIAN GENETIC ALGORITHM (LGA), with a maximum of 2500000 energy evaluations.

Final-Value: -16.107


	FINAL GENETIC ALGORITHM DOCKED STATE
	_______________________________________________


Detailed state:  trans 28.341 -16.850 -1.878 quatxyzw -0.088429 -0.354634 0.930812 0.001852 center 0.459 0.118 0.005 ntor 11 2.5926 151.4797 125.4345 22.4457 172.5076 134.4386 -125.6553 108.9785 148.6714 -34.2360 -20.5675
State:	 28.341 -16.850  -1.878  -0.088 -0.355  0.931 179.788      2.59  151.48  125.43   22.45  172.51  134.44 -125.66  108.98  148.67  -34.24  -20.57

DOCKED: MODEL       33
DOCKED: USER    Run = 33
DOCKED: USER    DPF = ligand_dock.biased.dpf
DOCKED: USER  
DOCKED: USER    Estimated Free Energy of Binding    =   -9.93 kcal/mol  [=(1)+(2)+(3)-(4)]
DOCKED: USER    Estimated Inhibition Constant, Ki   =   52.53 nM (nanomolar)  [Temperature = 298.15 K]
DOCKED: USER    
DOCKED: USER    (1) Final Intermolecular Energy     =  -13.21 kcal/mol
DOCKED: USER        vdW + Hbond + desolv Energy     =  -13.21 kcal/mol
DOCKED: USER        Electrostatic Energy            =   +0.00 kcal/mol
DOCKED: USER    (2) Final Total Internal Energy     =   -2.89 kcal/mol
DOCKED: USER    (3) Torsional Free Energy           =   +3.28 kcal/mol
DOCKED: USER    (4) Unbound System's Energy  [=(2)] =   -2.89 kcal/mol
DOCKED: USER    
DOCKED: USER    
DOCKED: USER    NEWDPF move ligand.pdbqt
DOCKED: USER    NEWDPF about 0.459000 0.118000 0.005000
DOCKED: USER    NEWDPF tran0 28.340887 -16.849746 -1.878278
DOCKED: USER    NEWDPF quaternion0 -0.088429 -0.354634 0.930812 0.001852
DOCKED: USER    NEWDPF axisangle0 -0.088429 -0.354634 0.930814 179.787721
DOCKED: USER    NEWDPF quat0 -0.088429 -0.354634 0.930814 179.787721
DOCKED: USER    NEWDPF dihe0 2.59 151.48 125.43 22.45 172.51 134.44 -125.66 108.98 148.67 -34.24 -20.57 
DOCKED: USER  keepresnum = 1 
DOCKED: USER  
DOCKED: REMARK  Name = 
DOCKED: REMARK  11 active torsions:
DOCKED: REMARK  status: ('A' for Active; 'I' for Inactive)
DOCKED: REMARK    1  A    between atoms: C_2  and  C_5
DOCKED: REMARK    2  A    between atoms: N_3  and  O_4
DOCKED: REMARK    3  A    between atoms: C_6  and  C_7
DOCKED: REMARK    4  A    between atoms: C_10  and  C_11
DOCKED: REMARK    5  A    between atoms: C_11  and  N_12
DOCKED: REMARK    6  A    between atoms: N_12  and  C_13
DOCKED: REMARK    7  A    between atoms: N_12  and  C_16
DOCKED: REMARK    8  A    between atoms: C_13  and  C_14
DOCKED: REMARK    9  A    between atoms: C_14  and  O_15
DOCKED: REMARK   10  A    between atoms: C_16  and  C_17
DOCKED: REMARK   11  A    between atoms: C_17  and  C_18
DOCKED: REMARK                            x       y       z     vdW  Elec       q    Type
DOCKED: REMARK                         _______ _______ _______ _____ _____    ______ ____
DOCKED: USER                              x       y       z     vdW  Elec       q    Type
DOCKED: USER                           _______ _______ _______ _____ _____    ______ ____
DOCKED: ROOT
DOCKED: ATOM      1  N   UNL     1      29.168 -15.999  -0.911 -0.20 -0.00    +0.000 N 
DOCKED: ATOM      2  H   UNL     1      28.731 -15.502  -1.687 +0.00 -0.00    +0.000 HD
DOCKED: ENDROOT
DOCKED: BRANCH   1   3
DOCKED: ATOM      3  C   UNL     1      28.724 -17.410  -0.959 -0.29 -0.00    +0.000 C 
DOCKED: BRANCH   3   7
DOCKED: ATOM      4  C   UNL     1      24.401 -17.576  -0.991 -0.66 -0.00    +0.000 A 
DOCKED: ATOM      5  C   UNL     1      25.146 -18.566  -0.329 -0.55 -0.00    +0.000 A 
DOCKED: ATOM      6  C   UNL     1      26.544 -18.521  -0.324 -0.51 -0.00    +0.000 A 
DOCKED: ATOM      7  C   UNL     1      27.220 -17.478  -0.975 -0.42 -0.00    +0.000 A 
DOCKED: ATOM      8  C   UNL     1      26.481 -16.476  -1.619 -0.42 -0.00    +0.000 A 
DOCKED: ATOM      9  C   UNL     1      25.084 -16.521  -1.626 -0.54 -0.00    +0.000 A 
DOCKED: BRANCH   4  11
DOCKED: ATOM     10  C   UNL     1      22.248 -18.801  -0.748 -0.84 -0.00    +0.000 C 
DOCKED: ATOM     11  C   UNL     1      22.920 -17.660  -0.958 -0.75 -0.00    +0.000 C 
DOCKED: BRANCH  10  13
DOCKED: ATOM     12  O   UNL     1      20.109 -17.871  -1.065 -2.02 -0.00    +0.000 OA
DOCKED: ATOM     13  C   UNL     1      20.775 -18.875  -0.697 -0.87 -0.00    +0.000 C 
DOCKED: ATOM     14  N   UNL     1      20.083 -20.035  -0.216 -0.75 -0.00    +0.000 N 
DOCKED: ATOM     15  H   UNL     1      20.593 -20.782   0.174 -0.12 -0.00    +0.000 HD
DOCKED: BRANCH  14  16
DOCKED: ATOM     16  O   UNL     1      18.733 -20.108  -0.296 -0.88 -0.00    +0.000 OA
DOCKED: ATOM     17  H   UNL     1      18.392 -19.315  -0.740 -0.55 -0.00    +0.000 HD
DOCKED: ENDBRANCH  14  16
DOCKED: ENDBRANCH  10  13
DOCKED: ENDBRANCH   4  11
DOCKED: ENDBRANCH   3   7
DOCKED: ENDBRANCH   1   3
DOCKED: BRANCH   1  18
DOCKED: ATOM     18  C   UNL     1      28.683 -15.320   0.314 -0.20 -0.00    +0.000 C 
DOCKED: BRANCH  18  19
DOCKED: ATOM     19  C   UNL     1      28.284 -13.859   0.051 -0.17 -0.00    +0.000 C 
DOCKED: BRANCH  19  20
DOCKED: ATOM     20  O   UNL     1      27.595 -13.732  -1.164 -0.18 -0.00    +0.000 OA
DOCKED: ATOM     21  H   UNL     1      26.642 -13.831  -1.007 -0.01 -0.00    +0.000 HD
DOCKED: ENDBRANCH  19  20
DOCKED: ENDBRANCH  18  19
DOCKED: ENDBRANCH   1  18
DOCKED: BRANCH   1  22
DOCKED: ATOM     22  C   UNL     1      30.626 -15.867  -1.150 -0.11 -0.00    +0.000 C 
DOCKED: BRANCH  22  23
DOCKED: ATOM     23  C   UNL     1      31.026 -15.890  -2.638 -0.08 -0.00    +0.000 C 
DOCKED: BRANCH  23  24
DOCKED: ATOM     24  C   UNL     1      31.047 -17.299  -3.149 -0.13 -0.00    +0.000 A 
DOCKED: ATOM     25  C   UNL     1      31.387 -18.440  -2.428 -0.14 -0.00    +0.000 A 
DOCKED: ATOM     26  N   UNL     1      31.371 -19.527  -3.230 -0.16 -0.00    +0.000 N 
DOCKED: ATOM     27  C   UNL     1      31.038 -19.081  -4.454 -0.20 -0.00    +0.000 A 
DOCKED: ATOM     28  C   UNL     1      30.838 -17.725  -4.446 -0.21 -0.00    +0.000 A 
DOCKED: ATOM     29  C   UNL     1      30.511 -17.022  -5.605 -0.27 -0.00    +0.000 A 
DOCKED: ATOM     30  C   UNL     1      30.378 -17.753  -6.799 -0.29 -0.00    +0.000 A 
DOCKED: ATOM     31  C   UNL     1      30.578 -19.152  -6.808 -0.38 -0.00    +0.000 A 
DOCKED: ATOM     32  C   UNL     1      30.915 -19.832  -5.624 -0.32 -0.00    +0.000 A 
DOCKED: ATOM     33  H   UNL     1      31.563 -20.458  -2.971 -0.01 -0.00    +0.000 HD
DOCKED: ENDBRANCH  23  24
DOCKED: ENDBRANCH  22  23
DOCKED: ENDBRANCH   1  22
DOCKED: TORSDOF 11
DOCKED: TER
DOCKED: ENDMDL
________________________________________________________________________________


	BEGINNING GENETIC ALGORITHM DOCKING 34 of 100
Run: 34 Seed: 244144991 2095520337 [ Run 34 of 100 GA/GALS ]
Beginning LAMARCKIAN GENETIC ALGORITHM (LGA), with a maximum of 2500000 energy evaluations.

Final-Value: -16.616


	FINAL GENETIC ALGORITHM DOCKED STATE
	_______________________________________________


Detailed state:  trans 27.736 -14.232 -0.944 quatxyzw 0.749300 -0.588672 0.226384 0.201906 center 0.459 0.118 0.005 ntor 11 180.0000 -138.8283 89.3419 44.5726 -158.7386 29.1119 -19.7574 -80.5134 179.2429 -79.9417 50.7689
State:	 27.736 -14.232  -0.944   0.765 -0.601  0.231 156.703    180.00 -138.83   89.34   44.57 -158.74   29.11  -19.76  -80.51  179.24  -79.94   50.77

DOCKED: MODEL       34
DOCKED: USER    Run = 34
DOCKED: USER    DPF = ligand_dock.biased.dpf
DOCKED: USER  
DOCKED: USER    Estimated Free Energy of Binding    =  -10.69 kcal/mol  [=(1)+(2)+(3)-(4)]
DOCKED: USER    Estimated Inhibition Constant, Ki   =   14.60 nM (nanomolar)  [Temperature = 298.15 K]
DOCKED: USER    
DOCKED: USER    (1) Final Intermolecular Energy     =  -13.97 kcal/mol
DOCKED: USER        vdW + Hbond + desolv Energy     =  -13.97 kcal/mol
DOCKED: USER        Electrostatic Energy            =   +0.00 kcal/mol
DOCKED: USER    (2) Final Total Internal Energy     =   -2.65 kcal/mol
DOCKED: USER    (3) Torsional Free Energy           =   +3.28 kcal/mol
DOCKED: USER    (4) Unbound System's Energy  [=(2)] =   -2.65 kcal/mol
DOCKED: USER    
DOCKED: USER    
DOCKED: USER    NEWDPF move ligand.pdbqt
DOCKED: USER    NEWDPF about 0.459000 0.118000 0.005000
DOCKED: USER    NEWDPF tran0 27.735728 -14.232449 -0.943706
DOCKED: USER    NEWDPF quaternion0 0.749300 -0.588672 0.226384 0.201906
DOCKED: USER    NEWDPF axisangle0 0.765056 -0.601050 0.231144 156.703099
DOCKED: USER    NEWDPF quat0 0.765056 -0.601050 0.231144 156.703099
DOCKED: USER    NEWDPF dihe0 180.00 -138.83 89.34 44.57 -158.74 29.11 -19.76 -80.51 179.24 -79.94 50.77 
DOCKED: USER  keepresnum = 1 
DOCKED: USER  
DOCKED: REMARK  Name = 
DOCKED: REMARK  11 active torsions:
DOCKED: REMARK  status: ('A' for Active; 'I' for Inactive)
DOCKED: REMARK    1  A    between atoms: C_2  and  C_5
DOCKED: REMARK    2  A    between atoms: N_3  and  O_4
DOCKED: REMARK    3  A    between atoms: C_6  and  C_7
DOCKED: REMARK    4  A    between atoms: C_10  and  C_11
DOCKED: REMARK    5  A    between atoms: C_11  and  N_12
DOCKED: REMARK    6  A    between atoms: N_12  and  C_13
DOCKED: REMARK    7  A    between atoms: N_12  and  C_16
DOCKED: REMARK    8  A    between atoms: C_13  and  C_14
DOCKED: REMARK    9  A    between atoms: C_14  and  O_15
DOCKED: REMARK   10  A    between atoms: C_16  and  C_17
DOCKED: REMARK   11  A    between atoms: C_17  and  C_18
DOCKED: REMARK                            x       y       z     vdW  Elec       q    Type
DOCKED: REMARK                         _______ _______ _______ _____ _____    ______ ____
DOCKED: USER                              x       y       z     vdW  Elec       q    Type
DOCKED: USER                           _______ _______ _______ _____ _____    ______ ____
DOCKED: ROOT
DOCKED: ATOM      1  N   UNL     1      28.518 -13.057  -0.353 -0.09 -0.00    +0.000 N 
DOCKED: ATOM      2  H   UNL     1      28.074 -13.685   0.318 +0.00 -0.00    +0.000 HD
DOCKED: ENDROOT
DOCKED: BRANCH   1   3
DOCKED: ATOM      3  C   UNL     1      28.315 -13.612  -1.709 -0.12 -0.00    +0.000 C 
DOCKED: BRANCH   3   7
DOCKED: ATOM      4  C   UNL     1      25.158 -16.570  -1.631 -0.54 -0.00    +0.000 A 
DOCKED: ATOM      5  C   UNL     1      25.662 -16.100  -2.854 -0.47 -0.00    +0.000 A 
DOCKED: ATOM      6  C   UNL     1      26.676 -15.137  -2.884 -0.36 -0.00    +0.000 A 
DOCKED: ATOM      7  C   UNL     1      27.210 -14.635  -1.688 -0.23 -0.00    +0.000 A 
DOCKED: ATOM      8  C   UNL     1      26.726 -15.116  -0.464 -0.30 -0.00    +0.000 A 
DOCKED: ATOM      9  C   UNL     1      25.712 -16.077  -0.432 -0.22 -0.00    +0.000 A 
DOCKED: BRANCH   4  11
DOCKED: ATOM     10  C   UNL     1      22.941 -17.487  -0.968 -0.73 -0.00    +0.000 C 
DOCKED: ATOM     11  C   UNL     1      24.091 -17.601  -1.649 -0.67 -0.00    +0.000 C 
DOCKED: BRANCH  10  13
DOCKED: ATOM     12  O   UNL     1      22.205 -19.724  -0.997 -0.75 -0.00    +0.000 OA
DOCKED: ATOM     13  C   UNL     1      21.875 -18.508  -1.004 -0.81 -0.00    +0.000 C 
DOCKED: ATOM     14  N   UNL     1      20.486 -18.160  -1.080 -0.73 -0.00    +0.000 N 
DOCKED: ATOM     15  H   UNL     1      20.223 -17.218  -1.196 -0.48 -0.00    +0.000 HD
DOCKED: BRANCH  14  16
DOCKED: ATOM     16  O   UNL     1      19.536 -19.121  -0.994 -1.24 -0.00    +0.000 OA
DOCKED: ATOM     17  H   UNL     1      18.657 -18.715  -1.064 -0.62 -0.00    +0.000 HD
DOCKED: ENDBRANCH  14  16
DOCKED: ENDBRANCH  10  13
DOCKED: ENDBRANCH   4  11
DOCKED: ENDBRANCH   3   7
DOCKED: ENDBRANCH   1   3
DOCKED: BRANCH   1  18
DOCKED: ATOM     18  C   UNL     1      29.954 -13.040   0.016 -0.05 -0.00    +0.000 C 
DOCKED: BRANCH  18  19
DOCKED: ATOM     19  C   UNL     1      30.242 -13.870   1.276 -0.11 -0.00    +0.000 C 
DOCKED: BRANCH  19  20
DOCKED: ATOM     20  O   UNL     1      29.091 -14.540   1.717 -0.23 -0.00    +0.000 OA
DOCKED: ATOM     21  H   UNL     1      29.347 -15.275   2.296 -1.88 -0.00    +0.000 HD
DOCKED: ENDBRANCH  19  20
DOCKED: ENDBRANCH  18  19
DOCKED: ENDBRANCH   1  18
DOCKED: BRANCH   1  22
DOCKED: ATOM     22  C   UNL     1      27.823 -11.759  -0.173 -0.12 -0.00    +0.000 C 
DOCKED: BRANCH  22  23
DOCKED: ATOM     23  C   UNL     1      26.647 -11.806   0.821 -0.30 +0.00    +0.000 C 
DOCKED: BRANCH  23  24
DOCKED: ATOM     24  C   UNL     1      27.122 -11.471   2.203 -0.26 +0.00    +0.000 A 
DOCKED: ATOM     25  C   UNL     1      27.493 -10.215   2.673 -0.16 +0.00    +0.000 A 
DOCKED: ATOM     26  N   UNL     1      27.943 -10.302   3.945 -0.26 +0.00    +0.000 N 
DOCKED: ATOM     27  C   UNL     1      27.873 -11.603   4.277 -0.30 +0.00    +0.000 A 
DOCKED: ATOM     28  C   UNL     1      27.382 -12.350   3.236 -0.27 +0.00    +0.000 A 
DOCKED: ATOM     29  C   UNL     1      27.240 -13.734   3.326 -0.37 -0.00    +0.000 A 
DOCKED: ATOM     30  C   UNL     1      27.611 -14.353   4.533 -0.55 -0.00    +0.000 A 
DOCKED: ATOM     31  C   UNL     1      28.111 -13.585   5.609 -0.38 -0.00    +0.000 A 
DOCKED: ATOM     32  C   UNL     1      28.250 -12.190   5.484 -0.36 +0.00    +0.000 A 
DOCKED: ATOM     33  H   UNL     1      28.259  -9.563   4.514 -0.01 +0.00    +0.000 HD
DOCKED: ENDBRANCH  23  24
DOCKED: ENDBRANCH  22  23
DOCKED: ENDBRANCH   1  22
DOCKED: TORSDOF 11
DOCKED: TER
DOCKED: ENDMDL
________________________________________________________________________________


	BEGINNING GENETIC ALGORITHM DOCKING 35 of 100
Run: 35 Seed: 699438336 67486733 [ Run 35 of 100 GA/GALS ]
Beginning LAMARCKIAN GENETIC ALGORITHM (LGA), with a maximum of 2500000 energy evaluations.

Final-Value: -17.506


	FINAL GENETIC ALGORITHM DOCKED STATE
	_______________________________________________


Detailed state:  trans 28.435 -15.500 -1.429 quatxyzw 0.373544 -0.739689 0.559040 -0.028268 center 0.459 0.118 0.005 ntor 11 24.6859 178.6257 129.0488 13.5960 139.8466 -72.2204 47.2886 111.0781 173.9096 -160.5122 19.5610
State:	 28.435 -15.500  -1.429   0.374 -0.740  0.559 -176.760     24.69  178.63  129.05   13.60  139.85  -72.22   47.29  111.08  173.91 -160.51   19.56

DOCKED: MODEL       35
DOCKED: USER    Run = 35
DOCKED: USER    DPF = ligand_dock.biased.dpf
DOCKED: USER  
DOCKED: USER    Estimated Free Energy of Binding    =  -10.82 kcal/mol  [=(1)+(2)+(3)-(4)]
DOCKED: USER    Estimated Inhibition Constant, Ki   =   11.81 nM (nanomolar)  [Temperature = 298.15 K]
DOCKED: USER    
DOCKED: USER    (1) Final Intermolecular Energy     =  -14.10 kcal/mol
DOCKED: USER        vdW + Hbond + desolv Energy     =  -14.10 kcal/mol
DOCKED: USER        Electrostatic Energy            =   +0.00 kcal/mol
DOCKED: USER    (2) Final Total Internal Energy     =   -3.41 kcal/mol
DOCKED: USER    (3) Torsional Free Energy           =   +3.28 kcal/mol
DOCKED: USER    (4) Unbound System's Energy  [=(2)] =   -3.41 kcal/mol
DOCKED: USER    
DOCKED: USER    
DOCKED: USER    NEWDPF move ligand.pdbqt
DOCKED: USER    NEWDPF about 0.459000 0.118000 0.005000
DOCKED: USER    NEWDPF tran0 28.434941 -15.499628 -1.428930
DOCKED: USER    NEWDPF quaternion0 0.373544 -0.739689 0.559040 -0.028268
DOCKED: USER    NEWDPF axisangle0 0.373693 -0.739985 0.559264 -176.760347
DOCKED: USER    NEWDPF quat0 0.373693 -0.739985 0.559264 -176.760347
DOCKED: USER    NEWDPF dihe0 24.69 178.63 129.05 13.60 139.85 -72.22 47.29 111.08 173.91 -160.51 19.56 
DOCKED: USER  keepresnum = 1 
DOCKED: USER  
DOCKED: REMARK  Name = 
DOCKED: REMARK  11 active torsions:
DOCKED: REMARK  status: ('A' for Active; 'I' for Inactive)
DOCKED: REMARK    1  A    between atoms: C_2  and  C_5
DOCKED: REMARK    2  A    between atoms: N_3  and  O_4
DOCKED: REMARK    3  A    between atoms: C_6  and  C_7
DOCKED: REMARK    4  A    between atoms: C_10  and  C_11
DOCKED: REMARK    5  A    between atoms: C_11  and  N_12
DOCKED: REMARK    6  A    between atoms: N_12  and  C_13
DOCKED: REMARK    7  A    between atoms: N_12  and  C_16
DOCKED: REMARK    8  A    between atoms: C_13  and  C_14
DOCKED: REMARK    9  A    between atoms: C_14  and  O_15
DOCKED: REMARK   10  A    between atoms: C_16  and  C_17
DOCKED: REMARK   11  A    between atoms: C_17  and  C_18
DOCKED: REMARK                            x       y       z     vdW  Elec       q    Type
DOCKED: REMARK                         _______ _______ _______ _____ _____    ______ ____
DOCKED: USER                              x       y       z     vdW  Elec       q    Type
DOCKED: USER                           _______ _______ _______ _____ _____    ______ ____
DOCKED: ROOT
DOCKED: ATOM      1  N   UNL     1      29.817 -15.145  -0.875 -0.10 -0.00    +0.000 N 
DOCKED: ATOM      2  H   UNL     1      29.019 -14.741  -0.386 +0.00 -0.00    +0.000 HD
DOCKED: ENDROOT
DOCKED: BRANCH   1   3
DOCKED: ATOM      3  C   UNL     1      29.303 -16.054  -1.923 -0.21 -0.00    +0.000 C 
DOCKED: BRANCH   3   7
DOCKED: ATOM      4  C   UNL     1      25.111 -16.899  -1.266 -0.57 -0.00    +0.000 A 
DOCKED: ATOM      5  C   UNL     1      25.502 -15.786  -2.028 -0.47 -0.00    +0.000 A 
DOCKED: ATOM      6  C   UNL     1      26.855 -15.504  -2.235 -0.33 -0.00    +0.000 A 
DOCKED: ATOM      7  C   UNL     1      27.843 -16.338  -1.690 -0.30 -0.00    +0.000 A 
DOCKED: ATOM      8  C   UNL     1      27.459 -17.462  -0.947 -0.39 -0.00    +0.000 A 
DOCKED: ATOM      9  C   UNL     1      26.107 -17.745  -0.738 -0.55 -0.00    +0.000 A 
DOCKED: BRANCH   4  11
DOCKED: ATOM     10  C   UNL     1      23.097 -18.361  -1.305 -0.77 -0.00    +0.000 C 
DOCKED: ATOM     11  C   UNL     1      23.663 -17.165  -1.084 -0.70 -0.00    +0.000 C 
DOCKED: BRANCH  10  13
DOCKED: ATOM     12  O   UNL     1      21.007 -17.862  -0.342 -1.95 +0.00    +0.000 OA
DOCKED: ATOM     13  C   UNL     1      21.659 -18.624  -1.105 -0.78 -0.00    +0.000 C 
DOCKED: ATOM     14  N   UNL     1      20.992 -19.733  -1.723 -0.70 -0.00    +0.000 N 
DOCKED: ATOM     15  H   UNL     1      21.512 -20.396  -2.231 -0.53 -0.00    +0.000 HD
DOCKED: BRANCH  14  16
DOCKED: ATOM     16  O   UNL     1      19.649 -19.872  -1.608 -1.60 -0.00    +0.000 OA
DOCKED: ATOM     17  H   UNL     1      19.247 -19.004  -1.444 -0.46 -0.00    +0.000 HD
DOCKED: ENDBRANCH  14  16
DOCKED: ENDBRANCH  10  13
DOCKED: ENDBRANCH   4  11
DOCKED: ENDBRANCH   3   7
DOCKED: ENDBRANCH   1   3
DOCKED: BRANCH   1  18
DOCKED: ATOM     18  C   UNL     1      30.578 -15.886   0.160 -0.14 -0.00    +0.000 C 
DOCKED: BRANCH  18  19
DOCKED: ATOM     19  C   UNL     1      30.518 -15.197   1.532 -0.01 -0.00    +0.000 C 
DOCKED: BRANCH  19  20
DOCKED: ATOM     20  O   UNL     1      29.215 -14.776   1.833 -0.17 -0.00    +0.000 OA
DOCKED: ATOM     21  H   UNL     1      28.902 -15.237   2.628 -1.98 -0.00    +0.000 HD
DOCKED: ENDBRANCH  19  20
DOCKED: ENDBRANCH  18  19
DOCKED: ENDBRANCH   1  18
DOCKED: BRANCH   1  22
DOCKED: ATOM     22  C   UNL     1      30.536 -13.982  -1.450 -0.03 -0.00    +0.000 C 
DOCKED: BRANCH  22  23
DOCKED: ATOM     23  C   UNL     1      29.765 -12.652  -1.354 -0.03 -0.00    +0.000 C 
DOCKED: BRANCH  23  24
DOCKED: ATOM     24  C   UNL     1      28.694 -12.596  -2.400 -0.06 -0.00    +0.000 A 
DOCKED: ATOM     25  C   UNL     1      27.406 -12.091  -2.247 -0.11 -0.00    +0.000 A 
DOCKED: ATOM     26  N   UNL     1      26.688 -12.276  -3.377 -0.19 -0.00    +0.000 N 
DOCKED: ATOM     27  C   UNL     1      27.507 -12.906  -4.238 -0.19 -0.00    +0.000 A 
DOCKED: ATOM     28  C   UNL     1      28.738 -13.124  -3.676 -0.09 -0.00    +0.000 A 
DOCKED: ATOM     29  C   UNL     1      29.754 -13.789  -4.363 -0.08 -0.00    +0.000 A 
DOCKED: ATOM     30  C   UNL     1      29.482 -14.226  -5.672 -0.20 -0.00    +0.000 A 
DOCKED: ATOM     31  C   UNL     1      28.215 -13.996  -6.255 -0.28 -0.00    +0.000 A 
DOCKED: ATOM     32  C   UNL     1      27.208 -13.330  -5.533 -0.14 -0.00    +0.000 A 
DOCKED: ATOM     33  H   UNL     1      25.756 -12.004  -3.538 -0.01 -0.00    +0.000 HD
DOCKED: ENDBRANCH  23  24
DOCKED: ENDBRANCH  22  23
DOCKED: ENDBRANCH   1  22
DOCKED: TORSDOF 11
DOCKED: TER
DOCKED: ENDMDL
________________________________________________________________________________


	BEGINNING GENETIC ALGORITHM DOCKING 36 of 100
Run: 36 Seed: 1619478518 949381480 [ Run 36 of 100 GA/GALS ]
Beginning LAMARCKIAN GENETIC ALGORITHM (LGA), with a maximum of 2500000 energy evaluations.

Final-Value: -16.804


	FINAL GENETIC ALGORITHM DOCKED STATE
	_______________________________________________


Detailed state:  trans 28.495 -14.831 -1.807 quatxyzw -0.364001 0.910385 -0.143917 0.134126 center 0.459 0.118 0.005 ntor 11 173.7690 163.3347 132.8610 32.3914 -165.4578 -18.0190 19.4751 161.9913 -159.2367 131.7248 0.2606
State:	 28.495 -14.831  -1.807  -0.367  0.919 -0.145 164.584    173.77  163.33  132.86   32.39 -165.46  -18.02   19.48  161.99 -159.24  131.72    0.26

DOCKED: MODEL       36
DOCKED: USER    Run = 36
DOCKED: USER    DPF = ligand_dock.biased.dpf
DOCKED: USER  
DOCKED: USER    Estimated Free Energy of Binding    =  -10.07 kcal/mol  [=(1)+(2)+(3)-(4)]
DOCKED: USER    Estimated Inhibition Constant, Ki   =   41.45 nM (nanomolar)  [Temperature = 298.15 K]
DOCKED: USER    
DOCKED: USER    (1) Final Intermolecular Energy     =  -13.35 kcal/mol
DOCKED: USER        vdW + Hbond + desolv Energy     =  -13.35 kcal/mol
DOCKED: USER        Electrostatic Energy            =   +0.00 kcal/mol
DOCKED: USER    (2) Final Total Internal Energy     =   -3.45 kcal/mol
DOCKED: USER    (3) Torsional Free Energy           =   +3.28 kcal/mol
DOCKED: USER    (4) Unbound System's Energy  [=(2)] =   -3.45 kcal/mol
DOCKED: USER    
DOCKED: USER    
DOCKED: USER    NEWDPF move ligand.pdbqt
DOCKED: USER    NEWDPF about 0.459000 0.118000 0.005000
DOCKED: USER    NEWDPF tran0 28.494849 -14.830959 -1.807437
DOCKED: USER    NEWDPF quaternion0 -0.364001 0.910385 -0.143917 0.134126
DOCKED: USER    NEWDPF axisangle0 -0.367320 0.918686 -0.145229 164.583871
DOCKED: USER    NEWDPF quat0 -0.367320 0.918686 -0.145229 164.583871
DOCKED: USER    NEWDPF dihe0 173.77 163.33 132.86 32.39 -165.46 -18.02 19.48 161.99 -159.24 131.72 0.26 
DOCKED: USER  keepresnum = 1 
DOCKED: USER  
DOCKED: REMARK  Name = 
DOCKED: REMARK  11 active torsions:
DOCKED: REMARK  status: ('A' for Active; 'I' for Inactive)
DOCKED: REMARK    1  A    between atoms: C_2  and  C_5
DOCKED: REMARK    2  A    between atoms: N_3  and  O_4
DOCKED: REMARK    3  A    between atoms: C_6  and  C_7
DOCKED: REMARK    4  A    between atoms: C_10  and  C_11
DOCKED: REMARK    5  A    between atoms: C_11  and  N_12
DOCKED: REMARK    6  A    between atoms: N_12  and  C_13
DOCKED: REMARK    7  A    between atoms: N_12  and  C_16
DOCKED: REMARK    8  A    between atoms: C_13  and  C_14
DOCKED: REMARK    9  A    between atoms: C_14  and  O_15
DOCKED: REMARK   10  A    between atoms: C_16  and  C_17
DOCKED: REMARK   11  A    between atoms: C_17  and  C_18
DOCKED: REMARK                            x       y       z     vdW  Elec       q    Type
DOCKED: REMARK                         _______ _______ _______ _____ _____    ______ ____
DOCKED: USER                              x       y       z     vdW  Elec       q    Type
DOCKED: USER                           _______ _______ _______ _____ _____    ______ ____
DOCKED: ROOT
DOCKED: ATOM      1  N   UNL     1      29.995 -15.105  -1.940 -0.08 -0.00    +0.000 N 
DOCKED: ATOM      2  H   UNL     1      29.621 -15.098  -0.991 +0.00 -0.00    +0.000 HD
DOCKED: ENDROOT
DOCKED: BRANCH   1   3
DOCKED: ATOM      3  C   UNL     1      28.865 -14.945  -2.882 -0.17 -0.00    +0.000 C 
DOCKED: BRANCH   3   7
DOCKED: ATOM      4  C   UNL     1      25.310 -16.845  -1.310 -0.55 -0.00    +0.000 A 
DOCKED: ATOM      5  C   UNL     1      26.364 -16.487  -0.453 -0.42 -0.00    +0.000 A 
DOCKED: ATOM      6  C   UNL     1      27.518 -15.880  -0.958 -0.31 -0.00    +0.000 A 
DOCKED: ATOM      7  C   UNL     1      27.634 -15.614  -2.331 -0.26 -0.00    +0.000 A 
DOCKED: ATOM      8  C   UNL     1      26.578 -15.950  -3.188 -0.33 -0.00    +0.000 A 
DOCKED: ATOM      9  C   UNL     1      25.424 -16.557  -2.684 -0.43 -0.00    +0.000 A 
DOCKED: BRANCH   4  11
DOCKED: ATOM     10  C   UNL     1      23.075 -17.927  -1.462 -0.63 -0.00    +0.000 C 
DOCKED: ATOM     11  C   UNL     1      24.100 -17.474  -0.726 -0.74 -0.00    +0.000 C 
DOCKED: BRANCH  10  13
DOCKED: ATOM     12  O   UNL     1      21.483 -18.182   0.255 -1.15 -0.00    +0.000 OA
DOCKED: ATOM     13  C   UNL     1      21.881 -18.569  -0.876 -0.84 -0.00    +0.000 C 
DOCKED: ATOM     14  N   UNL     1      21.185 -19.635  -1.536 -0.68 -0.00    +0.000 N 
DOCKED: ATOM     15  H   UNL     1      21.551 -20.018  -2.366 -0.53 -0.00    +0.000 HD
DOCKED: BRANCH  14  16
DOCKED: ATOM     16  O   UNL     1      20.028 -20.117  -1.022 -1.30 -0.00    +0.000 OA
DOCKED: ATOM     17  H   UNL     1      19.643 -20.760  -1.638 -0.61 -0.00    +0.000 HD
DOCKED: ENDBRANCH  14  16
DOCKED: ENDBRANCH  10  13
DOCKED: ENDBRANCH   4  11
DOCKED: ENDBRANCH   3   7
DOCKED: ENDBRANCH   1   3
DOCKED: BRANCH   1  18
DOCKED: ATOM     18  C   UNL     1      30.648 -16.426  -2.096 -0.13 -0.00    +0.000 C 
DOCKED: BRANCH  18  19
DOCKED: ATOM     19  C   UNL     1      30.877 -17.126  -0.747 -0.17 -0.00    +0.000 C 
DOCKED: BRANCH  19  20
DOCKED: ATOM     20  O   UNL     1      29.715 -17.108   0.038 -0.20 -0.00    +0.000 OA
DOCKED: ATOM     21  H   UNL     1      29.288 -17.978   0.003 -0.58 -0.00    +0.000 HD
DOCKED: ENDBRANCH  19  20
DOCKED: ENDBRANCH  18  19
DOCKED: ENDBRANCH   1  18
DOCKED: BRANCH   1  22
DOCKED: ATOM     22  C   UNL     1      30.926 -13.951  -1.988 -0.02 -0.00    +0.000 C 
DOCKED: BRANCH  22  23
DOCKED: ATOM     23  C   UNL     1      31.340 -13.416  -0.603 -0.02 -0.00    +0.000 C 
DOCKED: BRANCH  23  24
DOCKED: ATOM     24  C   UNL     1      30.278 -13.721   0.410 -0.06 -0.00    +0.000 A 
DOCKED: ATOM     25  C   UNL     1      30.379 -14.603   1.481 -0.11 -0.00    +0.000 A 
DOCKED: ATOM     26  N   UNL     1      29.200 -14.686   2.137 -0.05 -0.00    +0.000 N 
DOCKED: ATOM     27  C   UNL     1      28.352 -13.876   1.481 -0.20 -0.00    +0.000 A 
DOCKED: ATOM     28  C   UNL     1      28.971 -13.273   0.416 -0.09 -0.00    +0.000 A 
DOCKED: ATOM     29  C   UNL     1      28.290 -12.407  -0.438 -0.08 -0.00    +0.000 A 
DOCKED: ATOM     30  C   UNL     1      26.933 -12.154  -0.168 -0.15 -0.00    +0.000 A 
DOCKED: ATOM     31  C   UNL     1      26.294 -12.769   0.932 -0.31 -0.00    +0.000 A 
DOCKED: ATOM     32  C   UNL     1      27.007 -13.645   1.771 -0.25 -0.00    +0.000 A 
DOCKED: ATOM     33  H   UNL     1      29.003 -15.229   2.934 -1.90 -0.00    +0.000 HD
DOCKED: ENDBRANCH  23  24
DOCKED: ENDBRANCH  22  23
DOCKED: ENDBRANCH   1  22
DOCKED: TORSDOF 11
DOCKED: TER
DOCKED: ENDMDL
________________________________________________________________________________


	BEGINNING GENETIC ALGORITHM DOCKING 37 of 100
Run: 37 Seed: 248507624 39777678 [ Run 37 of 100 GA/GALS ]
Beginning LAMARCKIAN GENETIC ALGORITHM (LGA), with a maximum of 2500000 energy evaluations.

Final-Value: -17.017


	FINAL GENETIC ALGORITHM DOCKED STATE
	_______________________________________________


Detailed state:  trans 28.398 -16.172 -2.050 quatxyzw 0.340033 -0.029523 0.905604 -0.251770 center 0.459 0.118 0.005 ntor 11 32.5810 135.4946 86.2593 73.4313 177.4177 42.2532 -2.5280 -85.9923 168.7625 -57.4434 41.0880
State:	 28.398 -16.172  -2.050   0.351 -0.031  0.936 -150.835     32.58  135.49   86.26   73.43  177.42   42.25   -2.53  -85.99  168.76  -57.44   41.09

DOCKED: MODEL       37
DOCKED: USER    Run = 37
DOCKED: USER    DPF = ligand_dock.biased.dpf
DOCKED: USER  
DOCKED: USER    Estimated Free Energy of Binding    =  -10.40 kcal/mol  [=(1)+(2)+(3)-(4)]
DOCKED: USER    Estimated Inhibition Constant, Ki   =   23.93 nM (nanomolar)  [Temperature = 298.15 K]
DOCKED: USER    
DOCKED: USER    (1) Final Intermolecular Energy     =  -13.68 kcal/mol
DOCKED: USER        vdW + Hbond + desolv Energy     =  -13.68 kcal/mol
DOCKED: USER        Electrostatic Energy            =   +0.00 kcal/mol
DOCKED: USER    (2) Final Total Internal Energy     =   -3.34 kcal/mol
DOCKED: USER    (3) Torsional Free Energy           =   +3.28 kcal/mol
DOCKED: USER    (4) Unbound System's Energy  [=(2)] =   -3.34 kcal/mol
DOCKED: USER    
DOCKED: USER    
DOCKED: USER    NEWDPF move ligand.pdbqt
DOCKED: USER    NEWDPF about 0.459000 0.118000 0.005000
DOCKED: USER    NEWDPF tran0 28.398116 -16.171865 -2.050255
DOCKED: USER    NEWDPF quaternion0 0.340033 -0.029523 0.905604 -0.251770
DOCKED: USER    NEWDPF axisangle0 0.351351 -0.030505 0.935747 -150.835471
DOCKED: USER    NEWDPF quat0 0.351351 -0.030505 0.935747 -150.835471
DOCKED: USER    NEWDPF dihe0 32.58 135.49 86.26 73.43 177.42 42.25 -2.53 -85.99 168.76 -57.44 41.09 
DOCKED: USER  keepresnum = 1 
DOCKED: USER  
DOCKED: REMARK  Name = 
DOCKED: REMARK  11 active torsions:
DOCKED: REMARK  status: ('A' for Active; 'I' for Inactive)
DOCKED: REMARK    1  A    between atoms: C_2  and  C_5
DOCKED: REMARK    2  A    between atoms: N_3  and  O_4
DOCKED: REMARK    3  A    between atoms: C_6  and  C_7
DOCKED: REMARK    4  A    between atoms: C_10  and  C_11
DOCKED: REMARK    5  A    between atoms: C_11  and  N_12
DOCKED: REMARK    6  A    between atoms: N_12  and  C_13
DOCKED: REMARK    7  A    between atoms: N_12  and  C_16
DOCKED: REMARK    8  A    between atoms: C_13  and  C_14
DOCKED: REMARK    9  A    between atoms: C_14  and  O_15
DOCKED: REMARK   10  A    between atoms: C_16  and  C_17
DOCKED: REMARK   11  A    between atoms: C_17  and  C_18
DOCKED: REMARK                            x       y       z     vdW  Elec       q    Type
DOCKED: REMARK                         _______ _______ _______ _____ _____    ______ ____
DOCKED: USER                              x       y       z     vdW  Elec       q    Type
DOCKED: USER                           _______ _______ _______ _____ _____    ______ ____
DOCKED: ROOT
DOCKED: ATOM      1  N   UNL     1      29.579 -15.514  -2.768 -0.13 -0.00    +0.000 N 
DOCKED: ATOM      2  H   UNL     1      28.653 -15.169  -3.017 +0.00 -0.00    +0.000 HD
DOCKED: ENDROOT
DOCKED: BRANCH   1   3
DOCKED: ATOM      3  C   UNL     1      29.426 -16.497  -1.672 -0.23 -0.00    +0.000 C 
DOCKED: BRANCH   3   7
DOCKED: ATOM      4  C   UNL     1      25.226 -17.274  -0.981 -0.59 -0.00    +0.000 A 
DOCKED: ATOM      5  C   UNL     1      26.193 -17.727  -0.069 -0.53 -0.00    +0.000 A 
DOCKED: ATOM      6  C   UNL     1      27.552 -17.485  -0.292 -0.30 -0.00    +0.000 A 
DOCKED: ATOM      7  C   UNL     1      27.967 -16.778  -1.431 -0.33 -0.00    +0.000 A 
DOCKED: ATOM      8  C   UNL     1      27.005 -16.306  -2.334 -0.33 -0.00    +0.000 A 
DOCKED: ATOM      9  C   UNL     1      25.646 -16.547  -2.112 -0.50 -0.00    +0.000 A 
DOCKED: BRANCH   4  11
DOCKED: ATOM     10  C   UNL     1      23.023 -18.327  -1.460 -0.72 -0.00    +0.000 C 
DOCKED: ATOM     11  C   UNL     1      23.796 -17.543  -0.694 -0.75 -0.00    +0.000 C 
DOCKED: BRANCH  10  13
DOCKED: ATOM     12  O   UNL     1      21.008 -17.866  -0.332 -1.94 +0.00    +0.000 OA
DOCKED: ATOM     13  C   UNL     1      21.605 -18.605  -1.160 -0.71 -0.00    +0.000 C 
DOCKED: ATOM     14  N   UNL     1      20.900 -19.705  -1.752 -0.72 -0.00    +0.000 N 
DOCKED: ATOM     15  H   UNL     1      21.384 -20.351  -2.314 -0.53 -0.00    +0.000 HD
DOCKED: BRANCH  14  16
DOCKED: ATOM     16  O   UNL     1      19.571 -19.856  -1.542 -1.54 -0.00    +0.000 OA
DOCKED: ATOM     17  H   UNL     1      19.155 -18.984  -1.451 -0.54 -0.00    +0.000 HD
DOCKED: ENDBRANCH  14  16
DOCKED: ENDBRANCH  10  13
DOCKED: ENDBRANCH   4  11
DOCKED: ENDBRANCH   3   7
DOCKED: ENDBRANCH   1   3
DOCKED: BRANCH   1  18
DOCKED: ATOM     18  C   UNL     1      30.337 -14.320  -2.323 -0.05 -0.00    +0.000 C 
DOCKED: BRANCH  18  19
DOCKED: ATOM     19  C   UNL     1      29.417 -13.210  -1.793 -0.05 -0.00    +0.000 C 
DOCKED: BRANCH  19  20
DOCKED: ATOM     20  O   UNL     1      28.073 -13.609  -1.819 -0.13 -0.00    +0.000 OA
DOCKED: ATOM     21  H   UNL     1      27.909 -14.238  -1.099 +0.00 -0.00    +0.000 HD
DOCKED: ENDBRANCH  19  20
DOCKED: ENDBRANCH  18  19
DOCKED: ENDBRANCH   1  18
DOCKED: BRANCH   1  22
DOCKED: ATOM     22  C   UNL     1      30.096 -16.142  -4.009 -0.20 -0.00    +0.000 C 
DOCKED: BRANCH  22  23
DOCKED: ATOM     23  C   UNL     1      29.017 -16.406  -5.078 -0.23 -0.00    +0.000 C 
DOCKED: BRANCH  23  24
DOCKED: ATOM     24  C   UNL     1      28.810 -15.183  -5.920 -0.36 -0.00    +0.000 A 
DOCKED: ATOM     25  C   UNL     1      29.480 -14.860  -7.096 -0.25 -0.00    +0.000 A 
DOCKED: ATOM     26  N   UNL     1      29.091 -13.643  -7.541 -0.31 -0.00    +0.000 N 
DOCKED: ATOM     27  C   UNL     1      28.194 -13.190  -6.648 -0.20 -0.00    +0.000 A 
DOCKED: ATOM     28  C   UNL     1      28.000 -14.100  -5.640 -0.31 -0.00    +0.000 A 
DOCKED: ATOM     29  C   UNL     1      27.135 -13.846  -4.576 -0.30 -0.00    +0.000 A 
DOCKED: ATOM     30  C   UNL     1      26.447 -12.619  -4.570 -0.27 -0.00    +0.000 A 
DOCKED: ATOM     31  C   UNL     1      26.641 -11.684  -5.611 -0.19 -0.00    +0.000 A 
DOCKED: ATOM     32  C   UNL     1      27.527 -11.965  -6.666 -0.15 -0.00    +0.000 A 
DOCKED: ATOM     33  H   UNL     1      29.402 -13.183  -8.354 -0.29 -0.00    +0.000 HD
DOCKED: ENDBRANCH  23  24
DOCKED: ENDBRANCH  22  23
DOCKED: ENDBRANCH   1  22
DOCKED: TORSDOF 11
DOCKED: TER
DOCKED: ENDMDL
________________________________________________________________________________


	BEGINNING GENETIC ALGORITHM DOCKING 38 of 100
Run: 38 Seed: 262531499 1779557538 [ Run 38 of 100 GA/GALS ]
Beginning LAMARCKIAN GENETIC ALGORITHM (LGA), with a maximum of 2500000 energy evaluations.

Final-Value: -16.375


	FINAL GENETIC ALGORITHM DOCKED STATE
	_______________________________________________


Detailed state:  trans 28.384 -14.143 -1.833 quatxyzw -0.066429 0.212751 -0.473084 0.852359 center 0.459 0.118 0.005 ntor 11 -28.0267 164.0256 -54.3411 -75.8795 179.8138 -36.3139 -167.9720 113.2107 166.8301 170.4987 179.2316
State:	 28.384 -14.143  -1.833  -0.127  0.407 -0.905 63.062    -28.03  164.03  -54.34  -75.88  179.81  -36.31 -167.97  113.21  166.83  170.50  179.23

DOCKED: MODEL       38
DOCKED: USER    Run = 38
DOCKED: USER    DPF = ligand_dock.biased.dpf
DOCKED: USER  
DOCKED: USER    Estimated Free Energy of Binding    =  -10.44 kcal/mol  [=(1)+(2)+(3)-(4)]
DOCKED: USER    Estimated Inhibition Constant, Ki   =   22.25 nM (nanomolar)  [Temperature = 298.15 K]
DOCKED: USER    
DOCKED: USER    (1) Final Intermolecular Energy     =  -13.72 kcal/mol
DOCKED: USER        vdW + Hbond + desolv Energy     =  -13.72 kcal/mol
DOCKED: USER        Electrostatic Energy            =   +0.00 kcal/mol
DOCKED: USER    (2) Final Total Internal Energy     =   -2.65 kcal/mol
DOCKED: USER    (3) Torsional Free Energy           =   +3.28 kcal/mol
DOCKED: USER    (4) Unbound System's Energy  [=(2)] =   -2.65 kcal/mol
DOCKED: USER    
DOCKED: USER    
DOCKED: USER    NEWDPF move ligand.pdbqt
DOCKED: USER    NEWDPF about 0.459000 0.118000 0.005000
DOCKED: USER    NEWDPF tran0 28.384340 -14.143016 -1.833386
DOCKED: USER    NEWDPF quaternion0 -0.066429 0.212751 -0.473084 0.852359
DOCKED: USER    NEWDPF axisangle0 -0.127025 0.406823 -0.904632 63.061704
DOCKED: USER    NEWDPF quat0 -0.127025 0.406823 -0.904632 63.061704
DOCKED: USER    NEWDPF dihe0 -28.03 164.03 -54.34 -75.88 179.81 -36.31 -167.97 113.21 166.83 170.50 179.23 
DOCKED: USER  keepresnum = 1 
DOCKED: USER  
DOCKED: REMARK  Name = 
DOCKED: REMARK  11 active torsions:
DOCKED: REMARK  status: ('A' for Active; 'I' for Inactive)
DOCKED: REMARK    1  A    between atoms: C_2  and  C_5
DOCKED: REMARK    2  A    between atoms: N_3  and  O_4
DOCKED: REMARK    3  A    between atoms: C_6  and  C_7
DOCKED: REMARK    4  A    between atoms: C_10  and  C_11
DOCKED: REMARK    5  A    between atoms: C_11  and  N_12
DOCKED: REMARK    6  A    between atoms: N_12  and  C_13
DOCKED: REMARK    7  A    between atoms: N_12  and  C_16
DOCKED: REMARK    8  A    between atoms: C_13  and  C_14
DOCKED: REMARK    9  A    between atoms: C_14  and  O_15
DOCKED: REMARK   10  A    between atoms: C_16  and  C_17
DOCKED: REMARK   11  A    between atoms: C_17  and  C_18
DOCKED: REMARK                            x       y       z     vdW  Elec       q    Type
DOCKED: REMARK                         _______ _______ _______ _____ _____    ______ ____
DOCKED: USER                              x       y       z     vdW  Elec       q    Type
DOCKED: USER                           _______ _______ _______ _____ _____    ______ ____
DOCKED: ROOT
DOCKED: ATOM      1  N   UNL     1      28.972 -15.529  -2.108 -0.16 -0.00    +0.000 N 
DOCKED: ATOM      2  H   UNL     1      29.399 -14.751  -2.612 +0.01 -0.00    +0.000 HD
DOCKED: ENDROOT
DOCKED: BRANCH   1   3
DOCKED: ATOM      3  C   UNL     1      27.965 -14.978  -1.175 -0.22 -0.00    +0.000 C 
DOCKED: BRANCH   3   7
DOCKED: ATOM      4  C   UNL     1      24.603 -17.676  -0.811 -0.65 -0.00    +0.000 A 
DOCKED: ATOM      5  C   UNL     1      25.898 -18.103  -0.473 -0.59 -0.00    +0.000 A 
DOCKED: ATOM      6  C   UNL     1      26.988 -17.237  -0.598 -0.46 -0.00    +0.000 A 
DOCKED: ATOM      7  C   UNL     1      26.800 -15.924  -1.055 -0.36 -0.00    +0.000 A 
DOCKED: ATOM      8  C   UNL     1      25.508 -15.486  -1.374 -0.39 -0.00    +0.000 A 
DOCKED: ATOM      9  C   UNL     1      24.417 -16.351  -1.251 -0.40 -0.00    +0.000 A 
DOCKED: BRANCH   4  11
DOCKED: ATOM     10  C   UNL     1      22.187 -18.256  -0.676 -0.85 -0.00    +0.000 C 
DOCKED: ATOM     11  C   UNL     1      23.475 -18.627  -0.650 -0.82 -0.00    +0.000 C 
DOCKED: BRANCH  10  13
DOCKED: ATOM     12  O   UNL     1      21.303 -20.344  -0.040 -0.46 -0.00    +0.000 OA
DOCKED: ATOM     13  C   UNL     1      21.068 -19.209  -0.534 -0.87 -0.00    +0.000 C 
DOCKED: ATOM     14  N   UNL     1      19.737 -18.896  -0.967 -0.79 -0.00    +0.000 N 
DOCKED: ATOM     15  H   UNL     1      19.565 -18.057  -1.453 -0.51 -0.00    +0.000 HD
DOCKED: BRANCH  14  16
DOCKED: ATOM     16  O   UNL     1      18.718 -19.750  -0.712 -0.89 -0.00    +0.000 OA
DOCKED: ATOM     17  H   UNL     1      19.061 -20.656  -0.652 -0.40 -0.00    +0.000 HD
DOCKED: ENDBRANCH  14  16
DOCKED: ENDBRANCH  10  13
DOCKED: ENDBRANCH   4  11
DOCKED: ENDBRANCH   3   7
DOCKED: ENDBRANCH   1   3
DOCKED: BRANCH   1  18
DOCKED: ATOM     18  C   UNL     1      30.085 -16.184  -1.380 -0.16 -0.00    +0.000 C 
DOCKED: BRANCH  18  19
DOCKED: ATOM     19  C   UNL     1      30.208 -17.677  -1.725 -0.21 -0.00    +0.000 C 
DOCKED: BRANCH  19  20
DOCKED: ATOM     20  O   UNL     1      30.478 -18.441  -0.580 -0.25 -0.00    +0.000 OA
DOCKED: ATOM     21  H   UNL     1      29.669 -18.894  -0.296 -0.60 -0.00    +0.000 HD
DOCKED: ENDBRANCH  19  20
DOCKED: ENDBRANCH  18  19
DOCKED: ENDBRANCH   1  18
DOCKED: BRANCH   1  22
DOCKED: ATOM     22  C   UNL     1      28.352 -16.367  -3.164 -0.22 -0.00    +0.000 C 
DOCKED: BRANCH  22  23
DOCKED: ATOM     23  C   UNL     1      28.171 -15.649  -4.515 -0.35 -0.00    +0.000 C 
DOCKED: BRANCH  23  24
DOCKED: ATOM     24  C   UNL     1      27.023 -14.687  -4.442 -0.40 -0.00    +0.000 A 
DOCKED: ATOM     25  C   UNL     1      25.669 -15.006  -4.453 -0.49 -0.00    +0.000 A 
DOCKED: ATOM     26  N   UNL     1      24.919 -13.881  -4.453 -0.39 -0.00    +0.000 N 
DOCKED: ATOM     27  C   UNL     1      25.788 -12.855  -4.456 -0.33 -0.00    +0.000 A 
DOCKED: ATOM     28  C   UNL     1      27.083 -13.307  -4.455 -0.26 -0.00    +0.000 A 
DOCKED: ATOM     29  C   UNL     1      28.168 -12.432  -4.486 -0.12 -0.00    +0.000 A 
DOCKED: ATOM     30  C   UNL     1      27.897 -11.052  -4.508 -0.09 -0.00    +0.000 A 
DOCKED: ATOM     31  C   UNL     1      26.563 -10.585  -4.502 -0.17 -0.00    +0.000 A 
DOCKED: ATOM     32  C   UNL     1      25.489 -11.493  -4.479 -0.29 -0.00    +0.000 A 
DOCKED: ATOM     33  H   UNL     1      23.936 -13.824  -4.450 -0.57 -0.00    +0.000 HD
DOCKED: ENDBRANCH  23  24
DOCKED: ENDBRANCH  22  23
DOCKED: ENDBRANCH   1  22
DOCKED: TORSDOF 11
DOCKED: TER
DOCKED: ENDMDL
________________________________________________________________________________


	BEGINNING GENETIC ALGORITHM DOCKING 39 of 100
Run: 39 Seed: 1919007175 1972235035 [ Run 39 of 100 GA/GALS ]
Beginning LAMARCKIAN GENETIC ALGORITHM (LGA), with a maximum of 2500000 energy evaluations.

Final-Value: -17.438


	FINAL GENETIC ALGORITHM DOCKED STATE
	_______________________________________________


Detailed state:  trans 27.587 -16.137 -1.941 quatxyzw -0.006123 0.494890 -0.868620 -0.023337 center 0.459 0.118 0.005 ntor 11 -19.1946 100.4082 -68.1745 -39.1131 -87.3091 -86.5123 -154.6739 169.2437 173.6353 -177.2628 -18.7706
State:	 27.587 -16.137  -1.941  -0.006  0.495 -0.869 -177.326    -19.19  100.41  -68.17  -39.11  -87.31  -86.51 -154.67  169.24  173.64 -177.26  -18.77

DOCKED: MODEL       39
DOCKED: USER    Run = 39
DOCKED: USER    DPF = ligand_dock.biased.dpf
DOCKED: USER  
DOCKED: USER    Estimated Free Energy of Binding    =  -11.69 kcal/mol  [=(1)+(2)+(3)-(4)]
DOCKED: USER    Estimated Inhibition Constant, Ki   =    2.70 nM (nanomolar)  [Temperature = 298.15 K]
DOCKED: USER    
DOCKED: USER    (1) Final Intermolecular Energy     =  -14.97 kcal/mol
DOCKED: USER        vdW + Hbond + desolv Energy     =  -14.97 kcal/mol
DOCKED: USER        Electrostatic Energy            =   +0.00 kcal/mol
DOCKED: USER    (2) Final Total Internal Energy     =   -2.47 kcal/mol
DOCKED: USER    (3) Torsional Free Energy           =   +3.28 kcal/mol
DOCKED: USER    (4) Unbound System's Energy  [=(2)] =   -2.47 kcal/mol
DOCKED: USER    
DOCKED: USER    
DOCKED: USER    NEWDPF move ligand.pdbqt
DOCKED: USER    NEWDPF about 0.459000 0.118000 0.005000
DOCKED: USER    NEWDPF tran0 27.586899 -16.137426 -1.940928
DOCKED: USER    NEWDPF quaternion0 -0.006123 0.494890 -0.868620 -0.023337
DOCKED: USER    NEWDPF axisangle0 -0.006125 0.495025 -0.868857 -177.325585
DOCKED: USER    NEWDPF quat0 -0.006125 0.495025 -0.868857 -177.325585
DOCKED: USER    NEWDPF dihe0 -19.19 100.41 -68.17 -39.11 -87.31 -86.51 -154.67 169.24 173.64 -177.26 -18.77 
DOCKED: USER  keepresnum = 1 
DOCKED: USER  
DOCKED: REMARK  Name = 
DOCKED: REMARK  11 active torsions:
DOCKED: REMARK  status: ('A' for Active; 'I' for Inactive)
DOCKED: REMARK    1  A    between atoms: C_2  and  C_5
DOCKED: REMARK    2  A    between atoms: N_3  and  O_4
DOCKED: REMARK    3  A    between atoms: C_6  and  C_7
DOCKED: REMARK    4  A    between atoms: C_10  and  C_11
DOCKED: REMARK    5  A    between atoms: C_11  and  N_12
DOCKED: REMARK    6  A    between atoms: N_12  and  C_13
DOCKED: REMARK    7  A    between atoms: N_12  and  C_16
DOCKED: REMARK    8  A    between atoms: C_13  and  C_14
DOCKED: REMARK    9  A    between atoms: C_14  and  O_15
DOCKED: REMARK   10  A    between atoms: C_16  and  C_17
DOCKED: REMARK   11  A    between atoms: C_17  and  C_18
DOCKED: REMARK                            x       y       z     vdW  Elec       q    Type
DOCKED: REMARK                         _______ _______ _______ _____ _____    ______ ____
DOCKED: USER                              x       y       z     vdW  Elec       q    Type
DOCKED: USER                           _______ _______ _______ _____ _____    ______ ____
DOCKED: ROOT
DOCKED: ATOM      1  N   UNL     1      28.468 -15.484  -0.874 -0.20 -0.00    +0.000 N 
DOCKED: ATOM      2  H   UNL     1      27.857 -14.858  -1.398 +0.01 -0.00    +0.000 HD
DOCKED: ENDROOT
DOCKED: BRANCH   1   3
DOCKED: ATOM      3  C   UNL     1      28.177 -16.872  -1.294 -0.36 -0.00    +0.000 C 
DOCKED: BRANCH   3   7
DOCKED: ATOM      4  C   UNL     1      23.942 -17.694  -0.965 -0.68 -0.00    +0.000 A 
DOCKED: ATOM      5  C   UNL     1      24.425 -16.844  -1.973 -0.41 -0.00    +0.000 A 
DOCKED: ATOM      6  C   UNL     1      25.792 -16.569  -2.078 -0.48 -0.00    +0.000 A 
DOCKED: ATOM      7  C   UNL     1      26.701 -17.147  -1.179 -0.45 -0.00    +0.000 A 
DOCKED: ATOM      8  C   UNL     1      26.227 -18.012  -0.184 -0.57 -0.00    +0.000 A 
DOCKED: ATOM      9  C   UNL     1      24.861 -18.288  -0.077 -0.58 -0.00    +0.000 A 
DOCKED: BRANCH   4  11
DOCKED: ATOM     10  C   UNL     1      21.951 -19.182  -1.095 -0.79 -0.00    +0.000 C 
DOCKED: ATOM     11  C   UNL     1      22.485 -17.966  -0.902 -0.78 -0.00    +0.000 C 
DOCKED: BRANCH  10  13
DOCKED: ATOM     12  O   UNL     1      19.883 -19.744  -2.070 -1.89 -0.00    +0.000 OA
DOCKED: ATOM     13  C   UNL     1      20.502 -19.451  -1.013 -0.89 -0.00    +0.000 C 
DOCKED: ATOM     14  N   UNL     1      19.776 -19.357   0.220 -0.73 -0.00    +0.000 N 
DOCKED: ATOM     15  H   UNL     1      20.226 -19.023   1.029 -0.17 -0.00    +0.000 HD
DOCKED: BRANCH  14  16
DOCKED: ATOM     16  O   UNL     1      18.474 -19.725   0.275 -0.75 -0.00    +0.000 OA
DOCKED: ATOM     17  H   UNL     1      18.102 -19.736  -0.621 -0.43 -0.00    +0.000 HD
DOCKED: ENDBRANCH  14  16
DOCKED: ENDBRANCH  10  13
DOCKED: ENDBRANCH   4  11
DOCKED: ENDBRANCH   3   7
DOCKED: ENDBRANCH   1   3
DOCKED: BRANCH   1  18
DOCKED: ATOM     18  C   UNL     1      28.126 -15.265   0.552 -0.24 -0.00    +0.000 C 
DOCKED: BRANCH  18  19
DOCKED: ATOM     19  C   UNL     1      28.921 -14.105   1.171 -0.19 -0.00    +0.000 C 
DOCKED: BRANCH  19  20
DOCKED: ATOM     20  O   UNL     1      29.081 -14.281   2.553 -0.27 -0.00    +0.000 OA
DOCKED: ATOM     21  H   UNL     1      29.254 -15.216   2.743 -1.99 -0.00    +0.000 HD
DOCKED: ENDBRANCH  19  20
DOCKED: ENDBRANCH  18  19
DOCKED: ENDBRANCH   1  18
DOCKED: BRANCH   1  22
DOCKED: ATOM     22  C   UNL     1      29.843 -15.067  -1.246 -0.10 -0.00    +0.000 C 
DOCKED: BRANCH  22  23
DOCKED: ATOM     23  C   UNL     1      29.905 -14.073  -2.421 -0.06 -0.00    +0.000 C 
DOCKED: BRANCH  23  24
DOCKED: ATOM     24  C   UNL     1      28.627 -14.113  -3.204 -0.12 -0.00    +0.000 A 
DOCKED: ATOM     25  C   UNL     1      28.106 -15.207  -3.888 -0.27 -0.00    +0.000 A 
DOCKED: ATOM     26  N   UNL     1      26.978 -14.857  -4.546 -0.42 -0.00    +0.000 N 
DOCKED: ATOM     27  C   UNL     1      26.791 -13.550  -4.295 -0.31 -0.00    +0.000 A 
DOCKED: ATOM     28  C   UNL     1      27.781 -13.058  -3.484 -0.15 -0.00    +0.000 A 
DOCKED: ATOM     29  C   UNL     1      27.823 -11.717  -3.103 -0.09 -0.00    +0.000 A 
DOCKED: ATOM     30  C   UNL     1      26.802 -10.871  -3.572 -0.13 -0.00    +0.000 A 
DOCKED: ATOM     31  C   UNL     1      25.777 -11.377  -4.403 -0.26 -0.00    +0.000 A 
DOCKED: ATOM     32  C   UNL     1      25.767 -12.734  -4.776 -0.15 -0.00    +0.000 A 
DOCKED: ATOM     33  H   UNL     1      26.408 -15.441  -5.097 -0.06 +0.00    +0.000 HD
DOCKED: ENDBRANCH  23  24
DOCKED: ENDBRANCH  22  23
DOCKED: ENDBRANCH   1  22
DOCKED: TORSDOF 11
DOCKED: TER
DOCKED: ENDMDL
________________________________________________________________________________


	BEGINNING GENETIC ALGORITHM DOCKING 40 of 100
Run: 40 Seed: 862825785 183011357 [ Run 40 of 100 GA/GALS ]
Beginning LAMARCKIAN GENETIC ALGORITHM (LGA), with a maximum of 2500000 energy evaluations.

Final-Value: -17.407


	FINAL GENETIC ALGORITHM DOCKED STATE
	_______________________________________________


Detailed state:  trans 27.482 -16.332 -0.036 quatxyzw 0.731709 -0.508362 0.447006 0.079726 center 0.459 0.118 0.005 ntor 11 -2.0158 126.6615 124.9258 9.9910 160.6241 -172.4200 177.2143 -48.3565 5.8655 13.6870 73.0234
State:	 27.482 -16.332  -0.036   0.734 -0.510  0.448 170.854     -2.02  126.66  124.93    9.99  160.62 -172.42  177.21  -48.36    5.87   13.69   73.02

DOCKED: MODEL       40
DOCKED: USER    Run = 40
DOCKED: USER    DPF = ligand_dock.biased.dpf
DOCKED: USER  
DOCKED: USER    Estimated Free Energy of Binding    =  -11.26 kcal/mol  [=(1)+(2)+(3)-(4)]
DOCKED: USER    Estimated Inhibition Constant, Ki   =    5.53 nM (nanomolar)  [Temperature = 298.15 K]
DOCKED: USER    
DOCKED: USER    (1) Final Intermolecular Energy     =  -14.55 kcal/mol
DOCKED: USER        vdW + Hbond + desolv Energy     =  -14.55 kcal/mol
DOCKED: USER        Electrostatic Energy            =   +0.00 kcal/mol
DOCKED: USER    (2) Final Total Internal Energy     =   -2.86 kcal/mol
DOCKED: USER    (3) Torsional Free Energy           =   +3.28 kcal/mol
DOCKED: USER    (4) Unbound System's Energy  [=(2)] =   -2.86 kcal/mol
DOCKED: USER    
DOCKED: USER    
DOCKED: USER    NEWDPF move ligand.pdbqt
DOCKED: USER    NEWDPF about 0.459000 0.118000 0.005000
DOCKED: USER    NEWDPF tran0 27.481708 -16.332394 -0.036455
DOCKED: USER    NEWDPF quaternion0 0.731709 -0.508362 0.447006 0.079726
DOCKED: USER    NEWDPF axisangle0 0.734045 -0.509985 0.448434 170.854375
DOCKED: USER    NEWDPF quat0 0.734045 -0.509985 0.448434 170.854375
DOCKED: USER    NEWDPF dihe0 -2.02 126.66 124.93 9.99 160.62 -172.42 177.21 -48.36 5.87 13.69 73.02 
DOCKED: USER  keepresnum = 1 
DOCKED: USER  
DOCKED: REMARK  Name = 
DOCKED: REMARK  11 active torsions:
DOCKED: REMARK  status: ('A' for Active; 'I' for Inactive)
DOCKED: REMARK    1  A    between atoms: C_2  and  C_5
DOCKED: REMARK    2  A    between atoms: N_3  and  O_4
DOCKED: REMARK    3  A    between atoms: C_6  and  C_7
DOCKED: REMARK    4  A    between atoms: C_10  and  C_11
DOCKED: REMARK    5  A    between atoms: C_11  and  N_12
DOCKED: REMARK    6  A    between atoms: N_12  and  C_13
DOCKED: REMARK    7  A    between atoms: N_12  and  C_16
DOCKED: REMARK    8  A    between atoms: C_13  and  C_14
DOCKED: REMARK    9  A    between atoms: C_14  and  O_15
DOCKED: REMARK   10  A    between atoms: C_16  and  C_17
DOCKED: REMARK   11  A    between atoms: C_17  and  C_18
DOCKED: REMARK                            x       y       z     vdW  Elec       q    Type
DOCKED: REMARK                         _______ _______ _______ _____ _____    ______ ____
DOCKED: USER                              x       y       z     vdW  Elec       q    Type
DOCKED: USER                           _______ _______ _______ _____ _____    ______ ____
DOCKED: ROOT
DOCKED: ATOM      1  N   UNL     1      28.234 -15.009   0.124 -0.23 -0.00    +0.000 N 
DOCKED: ATOM      2  H   UNL     1      27.601 -15.262   0.883 -0.11 -0.00    +0.000 HD
DOCKED: ENDROOT
DOCKED: BRANCH   1   3
DOCKED: ATOM      3  C   UNL     1      28.265 -16.129  -0.843 -0.31 -0.00    +0.000 C 
DOCKED: BRANCH   3   7
DOCKED: ATOM      4  C   UNL     1      24.288 -17.770  -1.299 -0.66 -0.00    +0.000 A 
DOCKED: ATOM      5  C   UNL     1      25.212 -18.375  -0.432 -0.60 -0.00    +0.000 A 
DOCKED: ATOM      6  C   UNL     1      26.501 -17.853  -0.288 -0.54 -0.00    +0.000 A 
DOCKED: ATOM      7  C   UNL     1      26.885 -16.709  -1.005 -0.42 -0.00    +0.000 A 
DOCKED: ATOM      8  C   UNL     1      25.961 -16.089  -1.856 -0.46 -0.00    +0.000 A 
DOCKED: ATOM      9  C   UNL     1      24.672 -16.610  -2.001 -0.46 -0.00    +0.000 A 
DOCKED: BRANCH   4  11
DOCKED: ATOM     10  C   UNL     1      22.318 -18.999  -0.405 -0.81 -0.00    +0.000 C 
DOCKED: ATOM     11  C   UNL     1      22.927 -18.352  -1.409 -0.72 -0.00    +0.000 C 
DOCKED: BRANCH  10  13
DOCKED: ATOM     12  O   UNL     1      20.329 -19.413  -1.595 -1.57 -0.00    +0.000 OA
DOCKED: ATOM     13  C   UNL     1      20.957 -19.561  -0.513 -0.83 -0.00    +0.000 C 
DOCKED: ATOM     14  N   UNL     1      20.319 -20.237   0.579 -0.68 -0.00    +0.000 N 
DOCKED: ATOM     15  H   UNL     1      20.757 -20.263   1.461 -0.51 -0.00    +0.000 HD
DOCKED: BRANCH  14  16
DOCKED: ATOM     16  O   UNL     1      19.119 -20.839   0.402 -0.79 -0.00    +0.000 OA
DOCKED: ATOM     17  H   UNL     1      18.815 -20.695  -0.508 -0.33 -0.00    +0.000 HD
DOCKED: ENDBRANCH  14  16
DOCKED: ENDBRANCH  10  13
DOCKED: ENDBRANCH   4  11
DOCKED: ENDBRANCH   3   7
DOCKED: ENDBRANCH   1   3
DOCKED: BRANCH   1  18
DOCKED: ATOM     18  C   UNL     1      29.556 -14.809   0.764 -0.16 -0.00    +0.000 C 
DOCKED: BRANCH  18  19
DOCKED: ATOM     19  C   UNL     1      29.441 -14.133   2.139 -0.20 -0.00    +0.000 C 
DOCKED: BRANCH  19  20
DOCKED: ATOM     20  O   UNL     1      28.350 -14.636   2.863 -0.35 -0.00    +0.000 OA
DOCKED: ATOM     21  H   UNL     1      28.508 -15.570   3.076 -1.50 -0.00    +0.000 HD
DOCKED: ENDBRANCH  19  20
DOCKED: ENDBRANCH  18  19
DOCKED: ENDBRANCH   1  18
DOCKED: BRANCH   1  22
DOCKED: ATOM     22  C   UNL     1      27.646 -13.781  -0.466 -0.20 -0.00    +0.000 C 
DOCKED: BRANCH  22  23
DOCKED: ATOM     23  C   UNL     1      28.418 -13.232  -1.681 -0.10 -0.00    +0.000 C 
DOCKED: BRANCH  23  24
DOCKED: ATOM     24  C   UNL     1      27.510 -13.131  -2.870 -0.15 -0.00    +0.000 A 
DOCKED: ATOM     25  C   UNL     1      27.280 -14.114  -3.827 -0.27 -0.00    +0.000 A 
DOCKED: ATOM     26  N   UNL     1      26.465 -13.646  -4.798 -0.34 -0.00    +0.000 N 
DOCKED: ATOM     27  C   UNL     1      26.190 -12.372  -4.471 -0.30 -0.00    +0.000 A 
DOCKED: ATOM     28  C   UNL     1      26.816 -12.018  -3.303 -0.13 -0.00    +0.000 A 
DOCKED: ATOM     29  C   UNL     1      26.707 -10.734  -2.769 -0.04 -0.00    +0.000 A 
DOCKED: ATOM     30  C   UNL     1      25.919  -9.800  -3.465 -0.17 -0.00    +0.000 A 
DOCKED: ATOM     31  C   UNL     1      25.269 -10.164  -4.665 -0.30 -0.00    +0.000 A 
DOCKED: ATOM     32  C   UNL     1      25.404 -11.465  -5.183 -0.31 -0.00    +0.000 A 
DOCKED: ATOM     33  H   UNL     1      26.137 -14.139  -5.585 -0.01 -0.00    +0.000 HD
DOCKED: ENDBRANCH  23  24
DOCKED: ENDBRANCH  22  23
DOCKED: ENDBRANCH   1  22
DOCKED: TORSDOF 11
DOCKED: TER
DOCKED: ENDMDL
________________________________________________________________________________


	BEGINNING GENETIC ALGORITHM DOCKING 41 of 100
Run: 41 Seed: 1973954895 1032238974 [ Run 41 of 100 GA/GALS ]
Beginning LAMARCKIAN GENETIC ALGORITHM (LGA), with a maximum of 2500000 energy evaluations.

Final-Value: -16.857


	FINAL GENETIC ALGORITHM DOCKED STATE
	_______________________________________________


Detailed state:  trans 27.173 -15.832 -2.009 quatxyzw 0.226088 -0.642370 0.732180 -0.012579 center 0.459 0.118 0.005 ntor 11 7.2623 115.3501 -137.9600 -48.3011 -46.5907 -146.6727 7.2215 -95.8478 178.5235 -158.3270 -10.7585
State:	 27.173 -15.832  -2.009   0.226 -0.642  0.732 -178.558      7.26  115.35 -137.96  -48.30  -46.59 -146.67    7.22  -95.85  178.52 -158.33  -10.76

DOCKED: MODEL       41
DOCKED: USER    Run = 41
DOCKED: USER    DPF = ligand_dock.biased.dpf
DOCKED: USER  
DOCKED: USER    Estimated Free Energy of Binding    =  -10.79 kcal/mol  [=(1)+(2)+(3)-(4)]
DOCKED: USER    Estimated Inhibition Constant, Ki   =   12.40 nM (nanomolar)  [Temperature = 298.15 K]
DOCKED: USER    
DOCKED: USER    (1) Final Intermolecular Energy     =  -14.07 kcal/mol
DOCKED: USER        vdW + Hbond + desolv Energy     =  -14.07 kcal/mol
DOCKED: USER        Electrostatic Energy            =   +0.00 kcal/mol
DOCKED: USER    (2) Final Total Internal Energy     =   -2.79 kcal/mol
DOCKED: USER    (3) Torsional Free Energy           =   +3.28 kcal/mol
DOCKED: USER    (4) Unbound System's Energy  [=(2)] =   -2.79 kcal/mol
DOCKED: USER    
DOCKED: USER    
DOCKED: USER    NEWDPF move ligand.pdbqt
DOCKED: USER    NEWDPF about 0.459000 0.118000 0.005000
DOCKED: USER    NEWDPF tran0 27.172735 -15.831573 -2.009142
DOCKED: USER    NEWDPF quaternion0 0.226088 -0.642370 0.732180 -0.012579
DOCKED: USER    NEWDPF axisangle0 0.226106 -0.642421 0.732237 -178.558472
DOCKED: USER    NEWDPF quat0 0.226106 -0.642421 0.732237 -178.558472
DOCKED: USER    NEWDPF dihe0 7.26 115.35 -137.96 -48.30 -46.59 -146.67 7.22 -95.85 178.52 -158.33 -10.76 
DOCKED: USER  keepresnum = 1 
DOCKED: USER  
DOCKED: REMARK  Name = 
DOCKED: REMARK  11 active torsions:
DOCKED: REMARK  status: ('A' for Active; 'I' for Inactive)
DOCKED: REMARK    1  A    between atoms: C_2  and  C_5
DOCKED: REMARK    2  A    between atoms: N_3  and  O_4
DOCKED: REMARK    3  A    between atoms: C_6  and  C_7
DOCKED: REMARK    4  A    between atoms: C_10  and  C_11
DOCKED: REMARK    5  A    between atoms: C_11  and  N_12
DOCKED: REMARK    6  A    between atoms: N_12  and  C_13
DOCKED: REMARK    7  A    between atoms: N_12  and  C_16
DOCKED: REMARK    8  A    between atoms: C_13  and  C_14
DOCKED: REMARK    9  A    between atoms: C_14  and  O_15
DOCKED: REMARK   10  A    between atoms: C_16  and  C_17
DOCKED: REMARK   11  A    between atoms: C_17  and  C_18
DOCKED: REMARK                            x       y       z     vdW  Elec       q    Type
DOCKED: REMARK                         _______ _______ _______ _____ _____    ______ ____
DOCKED: USER                              x       y       z     vdW  Elec       q    Type
DOCKED: USER                           _______ _______ _______ _____ _____    ______ ____
DOCKED: ROOT
DOCKED: ATOM      1  N   UNL     1      28.383 -15.379  -1.188 -0.18 -0.00    +0.000 N 
DOCKED: ATOM      2  H   UNL     1      27.560 -14.776  -1.148 +0.00 -0.00    +0.000 HD
DOCKED: ENDROOT
DOCKED: BRANCH   1   3
DOCKED: ATOM      3  C   UNL     1      28.037 -16.579  -1.982 -0.33 -0.00    +0.000 C 
DOCKED: BRANCH   3   7
DOCKED: ATOM      4  C   UNL     1      24.166 -18.106  -0.798 -0.70 -0.00    +0.000 A 
DOCKED: ATOM      5  C   UNL     1      24.272 -17.162  -1.832 -0.51 -0.00    +0.000 A 
DOCKED: ATOM      6  C   UNL     1      25.520 -16.659  -2.212 -0.51 -0.00    +0.000 A 
DOCKED: ATOM      7  C   UNL     1      26.686 -17.100  -1.568 -0.41 -0.00    +0.000 A 
DOCKED: ATOM      8  C   UNL     1      26.589 -18.058  -0.550 -0.51 -0.00    +0.000 A 
DOCKED: ATOM      9  C   UNL     1      25.342 -18.561  -0.168 -0.49 -0.00    +0.000 A 
DOCKED: BRANCH   4  11
DOCKED: ATOM     10  C   UNL     1      21.990 -19.194  -1.321 -0.70 -0.00    +0.000 C 
DOCKED: ATOM     11  C   UNL     1      22.821 -18.621  -0.439 -0.83 -0.00    +0.000 C 
DOCKED: BRANCH  10  13
DOCKED: ATOM     12  O   UNL     1      19.758 -19.741  -1.833 -1.81 -0.00    +0.000 OA
DOCKED: ATOM     13  C   UNL     1      20.660 -19.721  -0.954 -0.85 -0.00    +0.000 C 
DOCKED: ATOM     14  N   UNL     1      20.358 -20.176   0.371 -0.70 -0.00    +0.000 N 
DOCKED: ATOM     15  H   UNL     1      21.020 -20.063   1.091 -0.53 -0.00    +0.000 HD
DOCKED: BRANCH  14  16
DOCKED: ATOM     16  O   UNL     1      19.165 -20.760   0.637 -0.78 -0.00    +0.000 OA
DOCKED: ATOM     17  H   UNL     1      18.680 -20.899  -0.193 -0.24 -0.00    +0.000 HD
DOCKED: ENDBRANCH  14  16
DOCKED: ENDBRANCH  10  13
DOCKED: ENDBRANCH   4  11
DOCKED: ENDBRANCH   3   7
DOCKED: ENDBRANCH   1   3
DOCKED: BRANCH   1  18
DOCKED: ATOM     18  C   UNL     1      28.684 -15.729   0.220 -0.13 -0.00    +0.000 C 
DOCKED: BRANCH  18  19
DOCKED: ATOM     19  C   UNL     1      29.759 -14.815   0.830 -0.15 -0.00    +0.000 C 
DOCKED: BRANCH  19  20
DOCKED: ATOM     20  O   UNL     1      29.421 -14.438   2.139 -0.23 -0.00    +0.000 OA
DOCKED: ATOM     21  H   UNL     1      29.254 -15.233   2.671 -2.03 -0.00    +0.000 HD
DOCKED: ENDBRANCH  19  20
DOCKED: ENDBRANCH  18  19
DOCKED: ENDBRANCH   1  18
DOCKED: BRANCH   1  22
DOCKED: ATOM     22  C   UNL     1      29.423 -14.554  -1.852 -0.09 -0.00    +0.000 C 
DOCKED: BRANCH  22  23
DOCKED: ATOM     23  C   UNL     1      28.917 -13.189  -2.359 -0.08 -0.00    +0.000 C 
DOCKED: BRANCH  23  24
DOCKED: ATOM     24  C   UNL     1      28.749 -12.239  -1.211 -0.05 -0.00    +0.000 A 
DOCKED: ATOM     25  C   UNL     1      29.635 -11.238  -0.824 -0.02 -0.00    +0.000 A 
DOCKED: ATOM     26  N   UNL     1      29.196 -10.629   0.301 -0.03 -0.00    +0.000 N 
DOCKED: ATOM     27  C   UNL     1      28.050 -11.247   0.635 -0.10 -0.00    +0.000 A 
DOCKED: ATOM     28  C   UNL     1      27.747 -12.240  -0.261 -0.12 -0.00    +0.000 A 
DOCKED: ATOM     29  C   UNL     1      26.618 -13.046  -0.114 -0.21 -0.00    +0.000 A 
DOCKED: ATOM     30  C   UNL     1      25.779 -12.802   0.989 -0.28 -0.00    +0.000 A 
DOCKED: ATOM     31  C   UNL     1      26.086 -11.775   1.910 -0.24 +0.00    +0.000 A 
DOCKED: ATOM     32  C   UNL     1      27.237 -10.985   1.738 -0.23 +0.00    +0.000 A 
DOCKED: ATOM     33  H   UNL     1      29.628  -9.885   0.778 +0.00 -0.00    +0.000 HD
DOCKED: ENDBRANCH  23  24
DOCKED: ENDBRANCH  22  23
DOCKED: ENDBRANCH   1  22
DOCKED: TORSDOF 11
DOCKED: TER
DOCKED: ENDMDL
________________________________________________________________________________


	BEGINNING GENETIC ALGORITHM DOCKING 42 of 100
Run: 42 Seed: 1290133655 1914613082 [ Run 42 of 100 GA/GALS ]
Beginning LAMARCKIAN GENETIC ALGORITHM (LGA), with a maximum of 2500000 energy evaluations.

Final-Value: -16.227


	FINAL GENETIC ALGORITHM DOCKED STATE
	_______________________________________________


Detailed state:  trans 28.523 -15.217 0.035 quatxyzw -0.258016 0.958060 -0.076047 -0.098821 center 0.459 0.118 0.005 ntor 11 4.0704 74.0393 -58.7627 -169.1602 123.3323 -178.5628 37.0001 134.8582 -168.8902 46.6290 4.2222
State:	 28.523 -15.217   0.035  -0.259  0.963 -0.076 -168.657      4.07   74.04  -58.76 -169.16  123.33 -178.56   37.00  134.86 -168.89   46.63    4.22

DOCKED: MODEL       42
DOCKED: USER    Run = 42
DOCKED: USER    DPF = ligand_dock.biased.dpf
DOCKED: USER  
DOCKED: USER    Estimated Free Energy of Binding    =   -9.89 kcal/mol  [=(1)+(2)+(3)-(4)]
DOCKED: USER    Estimated Inhibition Constant, Ki   =   56.16 nM (nanomolar)  [Temperature = 298.15 K]
DOCKED: USER    
DOCKED: USER    (1) Final Intermolecular Energy     =  -13.17 kcal/mol
DOCKED: USER        vdW + Hbond + desolv Energy     =  -13.17 kcal/mol
DOCKED: USER        Electrostatic Energy            =   +0.00 kcal/mol
DOCKED: USER    (2) Final Total Internal Energy     =   -3.05 kcal/mol
DOCKED: USER    (3) Torsional Free Energy           =   +3.28 kcal/mol
DOCKED: USER    (4) Unbound System's Energy  [=(2)] =   -3.05 kcal/mol
DOCKED: USER    
DOCKED: USER    
DOCKED: USER    NEWDPF move ligand.pdbqt
DOCKED: USER    NEWDPF about 0.459000 0.118000 0.005000
DOCKED: USER    NEWDPF tran0 28.522790 -15.216869 0.034687
DOCKED: USER    NEWDPF quaternion0 -0.258016 0.958060 -0.076047 -0.098821
DOCKED: USER    NEWDPF axisangle0 -0.259285 0.962773 -0.076421 -168.657488
DOCKED: USER    NEWDPF quat0 -0.259285 0.962773 -0.076421 -168.657488
DOCKED: USER    NEWDPF dihe0 4.07 74.04 -58.76 -169.16 123.33 -178.56 37.00 134.86 -168.89 46.63 4.22 
DOCKED: USER  keepresnum = 1 
DOCKED: USER  
DOCKED: REMARK  Name = 
DOCKED: REMARK  11 active torsions:
DOCKED: REMARK  status: ('A' for Active; 'I' for Inactive)
DOCKED: REMARK    1  A    between atoms: C_2  and  C_5
DOCKED: REMARK    2  A    between atoms: N_3  and  O_4
DOCKED: REMARK    3  A    between atoms: C_6  and  C_7
DOCKED: REMARK    4  A    between atoms: C_10  and  C_11
DOCKED: REMARK    5  A    between atoms: C_11  and  N_12
DOCKED: REMARK    6  A    between atoms: N_12  and  C_13
DOCKED: REMARK    7  A    between atoms: N_12  and  C_16
DOCKED: REMARK    8  A    between atoms: C_13  and  C_14
DOCKED: REMARK    9  A    between atoms: C_14  and  O_15
DOCKED: REMARK   10  A    between atoms: C_16  and  C_17
DOCKED: REMARK   11  A    between atoms: C_17  and  C_18
DOCKED: REMARK                            x       y       z     vdW  Elec       q    Type
DOCKED: REMARK                         _______ _______ _______ _____ _____    ______ ____
DOCKED: USER                              x       y       z     vdW  Elec       q    Type
DOCKED: USER                           _______ _______ _______ _____ _____    ______ ____
DOCKED: ROOT
DOCKED: ATOM      1  N   UNL     1      29.893 -15.791   0.402 -0.15 -0.00    +0.000 N 
DOCKED: ATOM      2  H   UNL     1      29.153 -15.917   1.092 -0.82 -0.00    +0.000 HD
DOCKED: ENDROOT
DOCKED: BRANCH   1   3
DOCKED: ATOM      3  C   UNL     1      29.302 -15.162  -0.799 -0.15 -0.00    +0.000 C 
DOCKED: BRANCH   3   7
DOCKED: ATOM      4  C   UNL     1      25.143 -16.299  -1.156 -0.50 -0.00    +0.000 A 
DOCKED: ATOM      5  C   UNL     1      26.156 -17.265  -1.263 -0.49 -0.00    +0.000 A 
DOCKED: ATOM      6  C   UNL     1      27.502 -16.901  -1.157 -0.38 -0.00    +0.000 A 
DOCKED: ATOM      7  C   UNL     1      27.856 -15.562  -0.933 -0.25 -0.00    +0.000 A 
DOCKED: ATOM      8  C   UNL     1      26.848 -14.597  -0.804 -0.27 -0.00    +0.000 A 
DOCKED: ATOM      9  C   UNL     1      25.503 -14.960  -0.911 -0.19 -0.00    +0.000 A 
DOCKED: BRANCH   4  11
DOCKED: ATOM     10  C   UNL     1      23.320 -17.987  -0.999 -0.80 -0.00    +0.000 C 
DOCKED: ATOM     11  C   UNL     1      23.729 -16.736  -1.262 -0.51 -0.00    +0.000 C 
DOCKED: BRANCH  10  13
DOCKED: ATOM     12  O   UNL     1      21.014 -17.611  -0.706 -2.10 -0.00    +0.000 OA
DOCKED: ATOM     13  C   UNL     1      21.909 -18.411  -1.088 -0.77 -0.00    +0.000 C 
DOCKED: ATOM     14  N   UNL     1      21.530 -19.710  -1.564 -0.48 -0.00    +0.000 N 
DOCKED: ATOM     15  H   UNL     1      22.224 -20.380  -1.762 -0.38 -0.00    +0.000 HD
DOCKED: BRANCH  14  16
DOCKED: ATOM     16  O   UNL     1      20.223 -20.018  -1.741 -1.76 -0.00    +0.000 OA
DOCKED: ATOM     17  H   UNL     1      19.679 -19.234  -1.565 -0.18 -0.00    +0.000 HD
DOCKED: ENDBRANCH  14  16
DOCKED: ENDBRANCH  10  13
DOCKED: ENDBRANCH   4  11
DOCKED: ENDBRANCH   3   7
DOCKED: ENDBRANCH   1   3
DOCKED: BRANCH   1  18
DOCKED: ATOM     18  C   UNL     1      30.395 -17.155   0.108 +0.02 -0.00    +0.000 C 
DOCKED: BRANCH  18  19
DOCKED: ATOM     19  C   UNL     1      30.765 -17.333  -1.372 -0.18 -0.00    +0.000 C 
DOCKED: BRANCH  19  20
DOCKED: ATOM     20  O   UNL     1      30.436 -18.619  -1.826 -0.23 -0.00    +0.000 OA
DOCKED: ATOM     21  H   UNL     1      29.859 -19.053  -1.178 -0.10 -0.00    +0.000 HD
DOCKED: ENDBRANCH  19  20
DOCKED: ENDBRANCH  18  19
DOCKED: ENDBRANCH   1  18
DOCKED: BRANCH   1  22
DOCKED: ATOM     22  C   UNL     1      30.881 -14.904   1.065 -0.12 -0.00    +0.000 C 
DOCKED: BRANCH  22  23
DOCKED: ATOM     23  C   UNL     1      30.582 -14.627   2.551 -0.17 -0.00    +0.000 C 
DOCKED: BRANCH  23  24
DOCKED: ATOM     24  C   UNL     1      29.183 -14.111   2.712 -0.22 -0.00    +0.000 A 
DOCKED: ATOM     25  C   UNL     1      28.220 -14.582   3.599 -0.35 -0.00    +0.000 A 
DOCKED: ATOM     26  N   UNL     1      27.049 -13.933   3.412 -0.43 -0.00    +0.000 N 
DOCKED: ATOM     27  C   UNL     1      27.260 -13.066   2.406 -0.29 -0.00    +0.000 A 
DOCKED: ATOM     28  C   UNL     1      28.550 -13.150   1.948 -0.17 -0.00    +0.000 A 
DOCKED: ATOM     29  C   UNL     1      29.006 -12.370   0.886 -0.07 -0.00    +0.000 A 
DOCKED: ATOM     30  C   UNL     1      28.098 -11.473   0.295 -0.09 -0.00    +0.000 A 
DOCKED: ATOM     31  C   UNL     1      26.770 -11.381   0.770 -0.24 +0.00    +0.000 A 
DOCKED: ATOM     32  C   UNL     1      26.338 -12.188   1.838 -0.30 +0.00    +0.000 A 
DOCKED: ATOM     33  H   UNL     1      26.211 -14.067   3.912 -0.05 -0.00    +0.000 HD
DOCKED: ENDBRANCH  23  24
DOCKED: ENDBRANCH  22  23
DOCKED: ENDBRANCH   1  22
DOCKED: TORSDOF 11
DOCKED: TER
DOCKED: ENDMDL
________________________________________________________________________________


	BEGINNING GENETIC ALGORITHM DOCKING 43 of 100
Run: 43 Seed: 1313180323 62565701 [ Run 43 of 100 GA/GALS ]
Beginning LAMARCKIAN GENETIC ALGORITHM (LGA), with a maximum of 2500000 energy evaluations.

Final-Value: -17.371


	FINAL GENETIC ALGORITHM DOCKED STATE
	_______________________________________________


Detailed state:  trans 28.463 -15.457 -1.125 quatxyzw 0.871519 -0.010288 -0.056448 -0.486993 center 0.459 0.118 0.005 ntor 11 3.4625 -159.4330 -50.6308 -102.5458 68.5861 90.2170 175.7347 162.2141 168.1738 175.5683 171.7724
State:	 28.463 -15.457  -1.125   0.998 -0.012 -0.065 -121.714      3.46 -159.43  -50.63 -102.55   68.59   90.22  175.73  162.21  168.17  175.57  171.77

DOCKED: MODEL       43
DOCKED: USER    Run = 43
DOCKED: USER    DPF = ligand_dock.biased.dpf
DOCKED: USER  
DOCKED: USER    Estimated Free Energy of Binding    =  -11.54 kcal/mol  [=(1)+(2)+(3)-(4)]
DOCKED: USER    Estimated Inhibition Constant, Ki   =    3.50 nM (nanomolar)  [Temperature = 298.15 K]
DOCKED: USER    
DOCKED: USER    (1) Final Intermolecular Energy     =  -14.82 kcal/mol
DOCKED: USER        vdW + Hbond + desolv Energy     =  -14.82 kcal/mol
DOCKED: USER        Electrostatic Energy            =   +0.00 kcal/mol
DOCKED: USER    (2) Final Total Internal Energy     =   -2.55 kcal/mol
DOCKED: USER    (3) Torsional Free Energy           =   +3.28 kcal/mol
DOCKED: USER    (4) Unbound System's Energy  [=(2)] =   -2.55 kcal/mol
DOCKED: USER    
DOCKED: USER    
DOCKED: USER    NEWDPF move ligand.pdbqt
DOCKED: USER    NEWDPF about 0.459000 0.118000 0.005000
DOCKED: USER    NEWDPF tran0 28.462787 -15.456881 -1.124569
DOCKED: USER    NEWDPF quaternion0 0.871519 -0.010288 -0.056448 -0.486993
DOCKED: USER    NEWDPF axisangle0 0.997840 -0.011779 -0.064630 -121.713708
DOCKED: USER    NEWDPF quat0 0.997840 -0.011779 -0.064630 -121.713708
DOCKED: USER    NEWDPF dihe0 3.46 -159.43 -50.63 -102.55 68.59 90.22 175.73 162.21 168.17 175.57 171.77 
DOCKED: USER  keepresnum = 1 
DOCKED: USER  
DOCKED: REMARK  Name = 
DOCKED: REMARK  11 active torsions:
DOCKED: REMARK  status: ('A' for Active; 'I' for Inactive)
DOCKED: REMARK    1  A    between atoms: C_2  and  C_5
DOCKED: REMARK    2  A    between atoms: N_3  and  O_4
DOCKED: REMARK    3  A    between atoms: C_6  and  C_7
DOCKED: REMARK    4  A    between atoms: C_10  and  C_11
DOCKED: REMARK    5  A    between atoms: C_11  and  N_12
DOCKED: REMARK    6  A    between atoms: N_12  and  C_13
DOCKED: REMARK    7  A    between atoms: N_12  and  C_16
DOCKED: REMARK    8  A    between atoms: C_13  and  C_14
DOCKED: REMARK    9  A    between atoms: C_14  and  O_15
DOCKED: REMARK   10  A    between atoms: C_16  and  C_17
DOCKED: REMARK   11  A    between atoms: C_17  and  C_18
DOCKED: REMARK                            x       y       z     vdW  Elec       q    Type
DOCKED: REMARK                         _______ _______ _______ _____ _____    ______ ____
DOCKED: USER                              x       y       z     vdW  Elec       q    Type
DOCKED: USER                           _______ _______ _______ _____ _____    ______ ____
DOCKED: ROOT
DOCKED: ATOM      1  N   UNL     1      27.498 -14.759  -2.086 -0.21 -0.00    +0.000 N 
DOCKED: ATOM      2  H   UNL     1      28.176 -14.160  -1.615 +0.01 -0.00    +0.000 HD
DOCKED: ENDROOT
DOCKED: BRANCH   1   3
DOCKED: ATOM      3  C   UNL     1      27.791 -16.162  -1.722 -0.33 -0.00    +0.000 C 
DOCKED: BRANCH   3   7
DOCKED: ATOM      4  C   UNL     1      24.124 -18.314  -0.922 -0.70 -0.00    +0.000 A 
DOCKED: ATOM      5  C   UNL     1      24.389 -17.814  -2.207 -0.36 -0.00    +0.000 A 
DOCKED: ATOM      6  C   UNL     1      25.569 -17.110  -2.468 -0.27 -0.00    +0.000 A 
DOCKED: ATOM      7  C   UNL     1      26.509 -16.903  -1.447 -0.45 -0.00    +0.000 A 
DOCKED: ATOM      8  C   UNL     1      26.259 -17.417  -0.168 -0.50 -0.00    +0.000 A 
DOCKED: ATOM      9  C   UNL     1      25.080 -18.120   0.094 -0.53 -0.00    +0.000 A 
DOCKED: BRANCH   4  11
DOCKED: ATOM     10  C   UNL     1      21.648 -18.503  -0.752 -0.85 -0.00    +0.000 C 
DOCKED: ATOM     11  C   UNL     1      22.864 -19.066  -0.697 -0.81 -0.00    +0.000 C 
DOCKED: BRANCH  10  13
DOCKED: ATOM     12  O   UNL     1      19.807 -19.734  -1.553 -1.71 -0.00    +0.000 OA
DOCKED: ATOM     13  C   UNL     1      20.397 -19.259  -0.546 -0.88 -0.00    +0.000 C 
DOCKED: ATOM     14  N   UNL     1      19.820 -19.442   0.755 -0.65 -0.00    +0.000 N 
DOCKED: ATOM     15  H   UNL     1      20.212 -18.984   1.533 -0.32 -0.00    +0.000 HD
DOCKED: BRANCH  14  16
DOCKED: ATOM     16  O   UNL     1      18.738 -20.240   0.915 -0.78 -0.00    +0.000 OA
DOCKED: ATOM     17  H   UNL     1      18.512 -20.654   0.067 -0.08 -0.00    +0.000 HD
DOCKED: ENDBRANCH  14  16
DOCKED: ENDBRANCH  10  13
DOCKED: ENDBRANCH   4  11
DOCKED: ENDBRANCH   3   7
DOCKED: ENDBRANCH   1   3
DOCKED: BRANCH   1  18
DOCKED: ATOM     18  C   UNL     1      27.703 -14.520  -3.535 -0.27 -0.00    +0.000 C 
DOCKED: BRANCH  18  19
DOCKED: ATOM     19  C   UNL     1      26.412 -14.716  -4.346 -0.52 -0.00    +0.000 C 
DOCKED: BRANCH  19  20
DOCKED: ATOM     20  O   UNL     1      26.652 -15.463  -5.509 -1.18 +0.00    +0.000 OA
DOCKED: ATOM     21  H   UNL     1      25.920 -16.084  -5.649 -0.09 +0.00    +0.000 HD
DOCKED: ENDBRANCH  19  20
DOCKED: ENDBRANCH  18  19
DOCKED: ENDBRANCH   1  18
DOCKED: BRANCH   1  22
DOCKED: ATOM     22  C   UNL     1      26.180 -14.314  -1.572 -0.29 -0.00    +0.000 C 
DOCKED: BRANCH  22  23
DOCKED: ATOM     23  C   UNL     1      26.258 -13.450  -0.298 -0.22 -0.00    +0.000 C 
DOCKED: BRANCH  23  24
DOCKED: ATOM     24  C   UNL     1      27.506 -13.766   0.468 -0.22 -0.00    +0.000 A 
DOCKED: ATOM     25  C   UNL     1      27.643 -14.709   1.482 -0.16 -0.00    +0.000 A 
DOCKED: ATOM     26  N   UNL     1      28.892 -14.667   2.000 -0.10 -0.00    +0.000 N 
DOCKED: ATOM     27  C   UNL     1      29.539 -13.696   1.333 -0.12 -0.00    +0.000 A 
DOCKED: ATOM     28  C   UNL     1      28.724 -13.118   0.393 -0.10 -0.00    +0.000 A 
DOCKED: ATOM     29  C   UNL     1      29.159 -12.065  -0.410 -0.04 -0.00    +0.000 A 
DOCKED: ATOM     30  C   UNL     1      30.479 -11.610  -0.237 -0.01 -0.00    +0.000 A 
DOCKED: ATOM     31  C   UNL     1      31.322 -12.209   0.727 -0.01 -0.00    +0.000 A 
DOCKED: ATOM     32  C   UNL     1      30.851 -13.265   1.528 -0.05 -0.00    +0.000 A 
DOCKED: ATOM     33  H   UNL     1      29.254 -15.233   2.720 -2.01 -0.00    +0.000 HD
DOCKED: ENDBRANCH  23  24
DOCKED: ENDBRANCH  22  23
DOCKED: ENDBRANCH   1  22
DOCKED: TORSDOF 11
DOCKED: TER
DOCKED: ENDMDL
________________________________________________________________________________


	BEGINNING GENETIC ALGORITHM DOCKING 44 of 100
Run: 44 Seed: 1299685939 651518074 [ Run 44 of 100 GA/GALS ]
Beginning LAMARCKIAN GENETIC ALGORITHM (LGA), with a maximum of 2500000 energy evaluations.

Final-Value: -17.230


	FINAL GENETIC ALGORITHM DOCKED STATE
	_______________________________________________


Detailed state:  trans 28.196 -15.576 -2.165 quatxyzw 0.459037 -0.878004 0.083627 -0.106774 center 0.459 0.118 0.005 ntor 11 -150.5722 -177.4309 67.4149 53.8563 -66.6166 -179.7891 29.5910 127.9770 -141.9070 -89.6516 18.4330
State:	 28.196 -15.576  -2.165   0.462 -0.883  0.084 -167.741   -150.57 -177.43   67.41   53.86  -66.62 -179.79   29.59  127.98 -141.91  -89.65   18.43

DOCKED: MODEL       44
DOCKED: USER    Run = 44
DOCKED: USER    DPF = ligand_dock.biased.dpf
DOCKED: USER  
DOCKED: USER    Estimated Free Energy of Binding    =  -10.76 kcal/mol  [=(1)+(2)+(3)-(4)]
DOCKED: USER    Estimated Inhibition Constant, Ki   =   12.87 nM (nanomolar)  [Temperature = 298.15 K]
DOCKED: USER    
DOCKED: USER    (1) Final Intermolecular Energy     =  -14.05 kcal/mol
DOCKED: USER        vdW + Hbond + desolv Energy     =  -14.05 kcal/mol
DOCKED: USER        Electrostatic Energy            =   +0.00 kcal/mol
DOCKED: USER    (2) Final Total Internal Energy     =   -3.18 kcal/mol
DOCKED: USER    (3) Torsional Free Energy           =   +3.28 kcal/mol
DOCKED: USER    (4) Unbound System's Energy  [=(2)] =   -3.18 kcal/mol
DOCKED: USER    
DOCKED: USER    
DOCKED: USER    NEWDPF move ligand.pdbqt
DOCKED: USER    NEWDPF about 0.459000 0.118000 0.005000
DOCKED: USER    NEWDPF tran0 28.196020 -15.576312 -2.165151
DOCKED: USER    NEWDPF quaternion0 0.459037 -0.878004 0.083627 -0.106774
DOCKED: USER    NEWDPF axisangle0 0.461677 -0.883052 0.084108 -167.741254
DOCKED: USER    NEWDPF quat0 0.461677 -0.883052 0.084108 -167.741254
DOCKED: USER    NEWDPF dihe0 -150.57 -177.43 67.41 53.86 -66.62 -179.79 29.59 127.98 -141.91 -89.65 18.43 
DOCKED: USER  keepresnum = 1 
DOCKED: USER  
DOCKED: REMARK  Name = 
DOCKED: REMARK  11 active torsions:
DOCKED: REMARK  status: ('A' for Active; 'I' for Inactive)
DOCKED: REMARK    1  A    between atoms: C_2  and  C_5
DOCKED: REMARK    2  A    between atoms: N_3  and  O_4
DOCKED: REMARK    3  A    between atoms: C_6  and  C_7
DOCKED: REMARK    4  A    between atoms: C_10  and  C_11
DOCKED: REMARK    5  A    between atoms: C_11  and  N_12
DOCKED: REMARK    6  A    between atoms: N_12  and  C_13
DOCKED: REMARK    7  A    between atoms: N_12  and  C_16
DOCKED: REMARK    8  A    between atoms: C_13  and  C_14
DOCKED: REMARK    9  A    between atoms: C_14  and  O_15
DOCKED: REMARK   10  A    between atoms: C_16  and  C_17
DOCKED: REMARK   11  A    between atoms: C_17  and  C_18
DOCKED: REMARK                            x       y       z     vdW  Elec       q    Type
DOCKED: REMARK                         _______ _______ _______ _____ _____    ______ ____
DOCKED: USER                              x       y       z     vdW  Elec       q    Type
DOCKED: USER                           _______ _______ _______ _____ _____    ______ ____
DOCKED: ROOT
DOCKED: ATOM      1  N   UNL     1      29.713 -15.540  -2.361 -0.12 -0.00    +0.000 N 
DOCKED: ATOM      2  H   UNL     1      29.387 -15.738  -1.416 +0.00 -0.00    +0.000 HD
DOCKED: ENDROOT
DOCKED: BRANCH   1   3
DOCKED: ATOM      3  C   UNL     1      28.534 -15.464  -3.251 -0.25 -0.00    +0.000 C 
DOCKED: BRANCH   3   7
DOCKED: ATOM      4  C   UNL     1      25.093 -17.209  -1.293 -0.59 -0.00    +0.000 A 
DOCKED: ATOM      5  C   UNL     1      24.925 -16.313  -2.361 -0.39 -0.00    +0.000 A 
DOCKED: ATOM      6  C   UNL     1      26.034 -15.740  -2.991 -0.46 -0.00    +0.000 A 
DOCKED: ATOM      7  C   UNL     1      27.332 -16.061  -2.567 -0.30 -0.00    +0.000 A 
DOCKED: ATOM      8  C   UNL     1      27.507 -16.971  -1.515 -0.35 -0.00    +0.000 A 
DOCKED: ATOM      9  C   UNL     1      26.399 -17.544  -0.884 -0.51 -0.00    +0.000 A 
DOCKED: BRANCH   4  11
DOCKED: ATOM     10  C   UNL     1      22.701 -17.896  -1.284 -0.57 -0.00    +0.000 C 
DOCKED: ATOM     11  C   UNL     1      23.886 -17.801  -0.664 -0.77 -0.00    +0.000 C 
DOCKED: BRANCH  10  13
DOCKED: ATOM     12  O   UNL     1      20.416 -17.879  -0.717 -2.26 -0.00    +0.000 OA
DOCKED: ATOM     13  C   UNL     1      21.508 -18.503  -0.661 -0.85 -0.00    +0.000 C 
DOCKED: ATOM     14  N   UNL     1      21.563 -19.759   0.030 -0.51 -0.00    +0.000 N 
DOCKED: ATOM     15  H   UNL     1      22.430 -20.201   0.174 -0.53 -0.00    +0.000 HD
DOCKED: BRANCH  14  16
DOCKED: ATOM     16  O   UNL     1      20.426 -20.337   0.485 -0.77 -0.00    +0.000 OA
DOCKED: ATOM     17  H   UNL     1      20.625 -20.866   1.274 -0.52 -0.00    +0.000 HD
DOCKED: ENDBRANCH  14  16
DOCKED: ENDBRANCH  10  13
DOCKED: ENDBRANCH   4  11
DOCKED: ENDBRANCH   3   7
DOCKED: ENDBRANCH   1   3
DOCKED: BRANCH   1  18
DOCKED: ATOM     18  C   UNL     1      30.592 -16.678  -2.721 -0.15 -0.00    +0.000 C 
DOCKED: BRANCH  18  19
DOCKED: ATOM     19  C   UNL     1      30.582 -17.782  -1.652 -0.21 -0.00    +0.000 C 
DOCKED: BRANCH  19  20
DOCKED: ATOM     20  O   UNL     1      30.068 -17.308  -0.437 -0.25 -0.00    +0.000 OA
DOCKED: ATOM     21  H   UNL     1      29.298 -17.841  -0.181 -0.51 -0.00    +0.000 HD
DOCKED: ENDBRANCH  19  20
DOCKED: ENDBRANCH  18  19
DOCKED: ENDBRANCH   1  18
DOCKED: BRANCH   1  22
DOCKED: ATOM     22  C   UNL     1      30.413 -14.235  -2.253 -0.04 -0.00    +0.000 C 
DOCKED: BRANCH  22  23
DOCKED: ATOM     23  C   UNL     1      31.146 -14.022  -0.915 -0.03 -0.00    +0.000 C 
DOCKED: BRANCH  23  24
DOCKED: ATOM     24  C   UNL     1      30.173 -14.074   0.224 -0.07 -0.00    +0.000 A 
DOCKED: ATOM     25  C   UNL     1      30.215 -14.936   1.315 -0.05 -0.00    +0.000 A 
DOCKED: ATOM     26  N   UNL     1      29.132 -14.753   2.104 -0.01 -0.00    +0.000 N 
DOCKED: ATOM     27  C   UNL     1      28.400 -13.793   1.513 -0.20 -0.00    +0.000 A 
DOCKED: ATOM     28  C   UNL     1      29.000 -13.357   0.359 -0.09 -0.00    +0.000 A 
DOCKED: ATOM     29  C   UNL     1      28.418 -12.382  -0.450 -0.08 -0.00    +0.000 A 
DOCKED: ATOM     30  C   UNL     1      27.186 -11.840  -0.040 -0.15 -0.00    +0.000 A 
DOCKED: ATOM     31  C   UNL     1      26.570 -12.283   1.152 -0.30 -0.00    +0.000 A 
DOCKED: ATOM     32  C   UNL     1      27.178 -13.275   1.943 -0.28 -0.00    +0.000 A 
DOCKED: ATOM     33  H   UNL     1      28.922 -15.226   2.942 -1.89 -0.00    +0.000 HD
DOCKED: ENDBRANCH  23  24
DOCKED: ENDBRANCH  22  23
DOCKED: ENDBRANCH   1  22
DOCKED: TORSDOF 11
DOCKED: TER
DOCKED: ENDMDL
________________________________________________________________________________


	BEGINNING GENETIC ALGORITHM DOCKING 45 of 100
Run: 45 Seed: 1168198610 2049159618 [ Run 45 of 100 GA/GALS ]
Beginning LAMARCKIAN GENETIC ALGORITHM (LGA), with a maximum of 2500000 energy evaluations.

Final-Value: -16.129


	FINAL GENETIC ALGORITHM DOCKED STATE
	_______________________________________________


Detailed state:  trans 27.192 -16.514 -2.363 quatxyzw 0.018093 -0.538310 -0.833808 -0.121071 center 0.459 0.118 0.005 ntor 11 5.2927 -180.0000 -174.5315 80.3711 -177.3703 -179.6532 -79.2872 -55.3881 180.0000 19.7537 15.3776
State:	 27.192 -16.514  -2.363   0.018 -0.542 -0.840 -166.092      5.29 -180.00 -174.53   80.37 -177.37 -179.65  -79.29  -55.39  180.00   19.75   15.38

DOCKED: MODEL       45
DOCKED: USER    Run = 45
DOCKED: USER    DPF = ligand_dock.biased.dpf
DOCKED: USER  
DOCKED: USER    Estimated Free Energy of Binding    =  -10.93 kcal/mol  [=(1)+(2)+(3)-(4)]
DOCKED: USER    Estimated Inhibition Constant, Ki   =    9.75 nM (nanomolar)  [Temperature = 298.15 K]
DOCKED: USER    
DOCKED: USER    (1) Final Intermolecular Energy     =  -14.21 kcal/mol
DOCKED: USER        vdW + Hbond + desolv Energy     =  -14.21 kcal/mol
DOCKED: USER        Electrostatic Energy            =   +0.00 kcal/mol
DOCKED: USER    (2) Final Total Internal Energy     =   -1.92 kcal/mol
DOCKED: USER    (3) Torsional Free Energy           =   +3.28 kcal/mol
DOCKED: USER    (4) Unbound System's Energy  [=(2)] =   -1.92 kcal/mol
DOCKED: USER    
DOCKED: USER    
DOCKED: USER    NEWDPF move ligand.pdbqt
DOCKED: USER    NEWDPF about 0.459000 0.118000 0.005000
DOCKED: USER    NEWDPF tran0 27.191681 -16.513705 -2.363189
DOCKED: USER    NEWDPF quaternion0 0.018093 -0.538310 -0.833808 -0.121071
DOCKED: USER    NEWDPF axisangle0 0.018227 -0.542299 -0.839988 -166.092173
DOCKED: USER    NEWDPF quat0 0.018227 -0.542299 -0.839988 -166.092173
DOCKED: USER    NEWDPF dihe0 5.29 -180.00 -174.53 80.37 -177.37 -179.65 -79.29 -55.39 180.00 19.75 15.38 
DOCKED: USER  keepresnum = 1 
DOCKED: USER  
DOCKED: REMARK  Name = 
DOCKED: REMARK  11 active torsions:
DOCKED: REMARK  status: ('A' for Active; 'I' for Inactive)
DOCKED: REMARK    1  A    between atoms: C_2  and  C_5
DOCKED: REMARK    2  A    between atoms: N_3  and  O_4
DOCKED: REMARK    3  A    between atoms: C_6  and  C_7
DOCKED: REMARK    4  A    between atoms: C_10  and  C_11
DOCKED: REMARK    5  A    between atoms: C_11  and  N_12
DOCKED: REMARK    6  A    between atoms: N_12  and  C_13
DOCKED: REMARK    7  A    between atoms: N_12  and  C_16
DOCKED: REMARK    8  A    between atoms: C_13  and  C_14
DOCKED: REMARK    9  A    between atoms: C_14  and  O_15
DOCKED: REMARK   10  A    between atoms: C_16  and  C_17
DOCKED: REMARK   11  A    between atoms: C_17  and  C_18
DOCKED: REMARK                            x       y       z     vdW  Elec       q    Type
DOCKED: REMARK                         _______ _______ _______ _____ _____    ______ ____
DOCKED: USER                              x       y       z     vdW  Elec       q    Type
DOCKED: USER                           _______ _______ _______ _____ _____    ______ ____
DOCKED: ROOT
DOCKED: ATOM      1  N   UNL     1      27.864 -15.821  -3.551 -0.30 -0.00    +0.000 N 
DOCKED: ATOM      2  H   UNL     1      27.446 -16.733  -3.739 +0.02 -0.00    +0.000 HD
DOCKED: ENDROOT
DOCKED: BRANCH   1   3
DOCKED: ATOM      3  C   UNL     1      27.551 -15.449  -2.154 -0.29 -0.00    +0.000 C 
DOCKED: BRANCH   3   7
DOCKED: ATOM      4  C   UNL     1      24.240 -17.835  -0.716 -0.68 -0.00    +0.000 A 
DOCKED: ATOM      5  C   UNL     1      24.009 -16.590  -1.322 -0.38 -0.00    +0.000 A 
DOCKED: ATOM      6  C   UNL     1      25.077 -15.811  -1.780 -0.38 -0.00    +0.000 A 
DOCKED: ATOM      7  C   UNL     1      26.395 -16.271  -1.647 -0.42 -0.00    +0.000 A 
DOCKED: ATOM      8  C   UNL     1      26.631 -17.523  -1.062 -0.47 -0.00    +0.000 A 
DOCKED: ATOM      9  C   UNL     1      25.565 -18.301  -0.603 -0.59 -0.00    +0.000 A 
DOCKED: BRANCH   4  11
DOCKED: ATOM     10  C   UNL     1      21.836 -18.476  -0.746 -0.85 -0.00    +0.000 C 
DOCKED: ATOM     11  C   UNL     1      23.075 -18.631  -0.257 -0.80 -0.00    +0.000 C 
DOCKED: BRANCH  10  13
DOCKED: ATOM     12  O   UNL     1      20.747 -19.855   0.821 -0.67 -0.00    +0.000 OA
DOCKED: ATOM     13  C   UNL     1      20.683 -19.283  -0.299 -0.86 -0.00    +0.000 C 
DOCKED: ATOM     14  N   UNL     1      19.514 -19.461  -1.111 -0.82 -0.00    +0.000 N 
DOCKED: ATOM     15  H   UNL     1      19.498 -19.110  -2.030 -0.31 -0.00    +0.000 HD
DOCKED: BRANCH  14  16
DOCKED: ATOM     16  O   UNL     1      18.433 -20.111  -0.617 -0.82 -0.00    +0.000 OA
DOCKED: ATOM     17  H   UNL     1      18.579 -20.316   0.321 -0.04 -0.00    +0.000 HD
DOCKED: ENDBRANCH  14  16
DOCKED: ENDBRANCH  10  13
DOCKED: ENDBRANCH   4  11
DOCKED: ENDBRANCH   3   7
DOCKED: ENDBRANCH   1   3
DOCKED: BRANCH   1  18
DOCKED: ATOM     18  C   UNL     1      27.228 -14.891  -4.515 -0.44 -0.00    +0.000 C 
DOCKED: BRANCH  18  19
DOCKED: ATOM     19  C   UNL     1      25.776 -15.282  -4.831 -0.47 -0.00    +0.000 C 
DOCKED: BRANCH  19  20
DOCKED: ATOM     20  O   UNL     1      24.869 -14.486  -4.116 -1.04 -0.00    +0.000 OA
DOCKED: ATOM     21  H   UNL     1      24.309 -13.996  -4.739 -0.45 -0.00    +0.000 HD
DOCKED: ENDBRANCH  19  20
DOCKED: ENDBRANCH  18  19
DOCKED: ENDBRANCH   1  18
DOCKED: BRANCH   1  22
DOCKED: ATOM     22  C   UNL     1      29.319 -16.022  -3.761 -0.25 -0.00    +0.000 C 
DOCKED: BRANCH  22  23
DOCKED: ATOM     23  C   UNL     1      29.716 -17.477  -4.076 -0.16 -0.00    +0.000 C 
DOCKED: BRANCH  23  24
DOCKED: ATOM     24  C   UNL     1      30.300 -17.569  -5.454 -0.29 -0.00    +0.000 A 
DOCKED: ATOM     25  C   UNL     1      30.719 -16.508  -6.252 -0.26 -0.00    +0.000 A 
DOCKED: ATOM     26  N   UNL     1      31.117 -16.958  -7.463 -0.29 -0.00    +0.000 N 
DOCKED: ATOM     27  C   UNL     1      30.940 -18.290  -7.442 -0.32 -0.00    +0.000 A 
DOCKED: ATOM     28  C   UNL     1      30.437 -18.700  -6.234 -0.36 -0.00    +0.000 A 
DOCKED: ATOM     29  C   UNL     1      30.140 -20.038  -5.976 -0.40 -0.00    +0.000 A 
DOCKED: ATOM     30  C   UNL     1      30.384 -20.972  -6.999 -0.23 -0.00    +0.000 A 
DOCKED: ATOM     31  C   UNL     1      30.909 -20.552  -8.242 -0.26 -0.00    +0.000 A 
DOCKED: ATOM     32  C   UNL     1      31.190 -19.194  -8.475 -0.33 -0.00    +0.000 A 
DOCKED: ATOM     33  H   UNL     1      31.467 -16.419  -8.209 -0.02 -0.00    +0.000 HD
DOCKED: ENDBRANCH  23  24
DOCKED: ENDBRANCH  22  23
DOCKED: ENDBRANCH   1  22
DOCKED: TORSDOF 11
DOCKED: TER
DOCKED: ENDMDL
________________________________________________________________________________


	BEGINNING GENETIC ALGORITHM DOCKING 46 of 100
Run: 46 Seed: 1207945518 1662231425 [ Run 46 of 100 GA/GALS ]
Beginning LAMARCKIAN GENETIC ALGORITHM (LGA), with a maximum of 2500000 energy evaluations.

Final-Value: -15.703


	FINAL GENETIC ALGORITHM DOCKED STATE
	_______________________________________________


Detailed state:  trans 27.903 -16.208 0.001 quatxyzw 0.345692 -0.925271 -0.139632 -0.069816 center 0.459 0.118 0.005 ntor 11 3.4143 -179.9093 1.4319 -143.1063 36.3817 127.8324 -175.4625 98.8002 -84.1284 -46.7510 -5.5973
State:	 27.903 -16.208   0.001   0.347 -0.928 -0.140 -171.993      3.41 -179.91    1.43 -143.11   36.38  127.83 -175.46   98.80  -84.13  -46.75   -5.60

DOCKED: MODEL       46
DOCKED: USER    Run = 46
DOCKED: USER    DPF = ligand_dock.biased.dpf
DOCKED: USER  
DOCKED: USER    Estimated Free Energy of Binding    =  -10.16 kcal/mol  [=(1)+(2)+(3)-(4)]
DOCKED: USER    Estimated Inhibition Constant, Ki   =   35.49 nM (nanomolar)  [Temperature = 298.15 K]
DOCKED: USER    
DOCKED: USER    (1) Final Intermolecular Energy     =  -13.44 kcal/mol
DOCKED: USER        vdW + Hbond + desolv Energy     =  -13.44 kcal/mol
DOCKED: USER        Electrostatic Energy            =   +0.00 kcal/mol
DOCKED: USER    (2) Final Total Internal Energy     =   -2.26 kcal/mol
DOCKED: USER    (3) Torsional Free Energy           =   +3.28 kcal/mol
DOCKED: USER    (4) Unbound System's Energy  [=(2)] =   -2.26 kcal/mol
DOCKED: USER    
DOCKED: USER    
DOCKED: USER    NEWDPF move ligand.pdbqt
DOCKED: USER    NEWDPF about 0.459000 0.118000 0.005000
DOCKED: USER    NEWDPF tran0 27.902762 -16.208487 0.000984
DOCKED: USER    NEWDPF quaternion0 0.345692 -0.925271 -0.139632 -0.069816
DOCKED: USER    NEWDPF axisangle0 0.346537 -0.927534 -0.139973 -171.993153
DOCKED: USER    NEWDPF quat0 0.346537 -0.927534 -0.139973 -171.993153
DOCKED: USER    NEWDPF dihe0 3.41 -179.91 1.43 -143.11 36.38 127.83 -175.46 98.80 -84.13 -46.75 -5.60 
DOCKED: USER  keepresnum = 1 
DOCKED: USER  
DOCKED: REMARK  Name = 
DOCKED: REMARK  11 active torsions:
DOCKED: REMARK  status: ('A' for Active; 'I' for Inactive)
DOCKED: REMARK    1  A    between atoms: C_2  and  C_5
DOCKED: REMARK    2  A    between atoms: N_3  and  O_4
DOCKED: REMARK    3  A    between atoms: C_6  and  C_7
DOCKED: REMARK    4  A    between atoms: C_10  and  C_11
DOCKED: REMARK    5  A    between atoms: C_11  and  N_12
DOCKED: REMARK    6  A    between atoms: N_12  and  C_13
DOCKED: REMARK    7  A    between atoms: N_12  and  C_16
DOCKED: REMARK    8  A    between atoms: C_13  and  C_14
DOCKED: REMARK    9  A    between atoms: C_14  and  O_15
DOCKED: REMARK   10  A    between atoms: C_16  and  C_17
DOCKED: REMARK   11  A    between atoms: C_17  and  C_18
DOCKED: REMARK                            x       y       z     vdW  Elec       q    Type
DOCKED: REMARK                         _______ _______ _______ _____ _____    ______ ____
DOCKED: USER                              x       y       z     vdW  Elec       q    Type
DOCKED: USER                           _______ _______ _______ _____ _____    ______ ____
DOCKED: ROOT
DOCKED: ATOM      1  N   UNL     1      29.351 -16.478  -0.415 -0.22 -0.00    +0.000 N 
DOCKED: ATOM      2  H   UNL     1      29.027 -16.959   0.424 -0.53 -0.00    +0.000 HD
DOCKED: ENDROOT
DOCKED: BRANCH   1   3
DOCKED: ATOM      3  C   UNL     1      28.205 -15.748  -1.000 -0.28 -0.00    +0.000 C 
DOCKED: BRANCH   3   7
DOCKED: ATOM      4  C   UNL     1      24.628 -18.164  -0.696 -0.68 -0.00    +0.000 A 
DOCKED: ATOM      5  C   UNL     1      24.716 -17.141  -1.654 -0.59 -0.00    +0.000 A 
DOCKED: ATOM      6  C   UNL     1      25.867 -16.352  -1.750 -0.48 -0.00    +0.000 A 
DOCKED: ATOM      7  C   UNL     1      26.954 -16.580  -0.893 -0.41 -0.00    +0.000 A 
DOCKED: ATOM      8  C   UNL     1      26.880 -17.613   0.051 -0.42 -0.00    +0.000 A 
DOCKED: ATOM      9  C   UNL     1      25.731 -18.402   0.148 -0.49 -0.00    +0.000 A 
DOCKED: BRANCH   4  11
DOCKED: ATOM     10  C   UNL     1      22.182 -18.518  -0.983 -0.82 -0.00    +0.000 C 
DOCKED: ATOM     11  C   UNL     1      23.392 -18.983  -0.641 -0.78 -0.00    +0.000 C 
DOCKED: BRANCH  10  13
DOCKED: ATOM     12  O   UNL     1      20.262 -19.437  -1.990 -1.63 -0.00    +0.000 OA
DOCKED: ATOM     13  C   UNL     1      20.958 -19.343  -0.944 -0.88 -0.00    +0.000 C 
DOCKED: ATOM     14  N   UNL     1      20.523 -20.010   0.249 -0.70 -0.00    +0.000 N 
DOCKED: ATOM     15  H   UNL     1      20.999 -19.855   1.097 -0.48 -0.00    +0.000 HD
DOCKED: BRANCH  14  16
DOCKED: ATOM     16  O   UNL     1      19.462 -20.850   0.213 -0.77 -0.00    +0.000 OA
DOCKED: ATOM     17  H   UNL     1      19.145 -20.933  -0.701 -0.47 -0.00    +0.000 HD
DOCKED: ENDBRANCH  14  16
DOCKED: ENDBRANCH  10  13
DOCKED: ENDBRANCH   4  11
DOCKED: ENDBRANCH   3   7
DOCKED: ENDBRANCH   1   3
DOCKED: BRANCH   1  18
DOCKED: ATOM     18  C   UNL     1      29.832 -17.548  -1.320 -0.25 -0.00    +0.000 C 
DOCKED: BRANCH  18  19
DOCKED: ATOM     19  C   UNL     1      30.109 -17.029  -2.740 -0.21 -0.00    +0.000 C 
DOCKED: BRANCH  19  20
DOCKED: ATOM     20  O   UNL     1      28.931 -16.979  -3.501 -0.28 -0.00    +0.000 OA
DOCKED: ATOM     21  H   UNL     1      28.764 -16.064  -3.777 -0.01 -0.00    +0.000 HD
DOCKED: ENDBRANCH  19  20
DOCKED: ENDBRANCH  18  19
DOCKED: ENDBRANCH   1  18
DOCKED: BRANCH   1  22
DOCKED: ATOM     22  C   UNL     1      30.411 -15.556   0.064 -0.14 -0.00    +0.000 C 
DOCKED: BRANCH  22  23
DOCKED: ATOM     23  C   UNL     1      31.831 -16.151   0.020 -0.10 -0.00    +0.000 C 
DOCKED: BRANCH  23  24
DOCKED: ATOM     24  C   UNL     1      32.141 -16.850   1.309 -0.14 -0.00    +0.000 A 
DOCKED: ATOM     25  C   UNL     1      32.592 -16.262   2.487 -0.18 -0.00    +0.000 A 
DOCKED: ATOM     26  N   UNL     1      32.842 -17.207   3.421 -0.28 -0.00    +0.000 N 
DOCKED: ATOM     27  C   UNL     1      32.567 -18.387   2.839 -0.26 -0.00    +0.000 A 
DOCKED: ATOM     28  C   UNL     1      32.142 -18.211   1.547 -0.14 -0.00    +0.000 A 
DOCKED: ATOM     29  C   UNL     1      31.822 -19.290   0.724 -0.12 -0.00    +0.000 A 
DOCKED: ATOM     30  C   UNL     1      31.938 -20.583   1.264 -0.19 -0.00    +0.000 A 
DOCKED: ATOM     31  C   UNL     1      32.370 -20.766   2.598 -0.24 -0.00    +0.000 A 
DOCKED: ATOM     32  C   UNL     1      32.694 -19.657   3.400 -0.30 -0.00    +0.000 A 
DOCKED: ATOM     33  H   UNL     1      33.161 -17.061   4.341 +0.01 -0.00    +0.000 HD
DOCKED: ENDBRANCH  23  24
DOCKED: ENDBRANCH  22  23
DOCKED: ENDBRANCH   1  22
DOCKED: TORSDOF 11
DOCKED: TER
DOCKED: ENDMDL
________________________________________________________________________________


	BEGINNING GENETIC ALGORITHM DOCKING 47 of 100
Run: 47 Seed: 678822912 1622107323 [ Run 47 of 100 GA/GALS ]
Beginning LAMARCKIAN GENETIC ALGORITHM (LGA), with a maximum of 2500000 energy evaluations.

Final-Value: -16.086


	FINAL GENETIC ALGORITHM DOCKED STATE
	_______________________________________________


Detailed state:  trans 28.692 -16.234 -1.130 quatxyzw -0.867214 0.078546 0.155288 0.466536 center 0.459 0.118 0.005 ntor 11 3.9396 -179.7015 -45.4592 -95.9489 -64.0584 -155.5509 -179.5785 -87.4462 145.3808 171.7803 172.9918
State:	 28.692 -16.234  -1.130  -0.980  0.089  0.176 124.381      3.94 -179.70  -45.46  -95.95  -64.06 -155.55 -179.58  -87.45  145.38  171.78  172.99

DOCKED: MODEL       47
DOCKED: USER    Run = 47
DOCKED: USER    DPF = ligand_dock.biased.dpf
DOCKED: USER  
DOCKED: USER    Estimated Free Energy of Binding    =  -10.69 kcal/mol  [=(1)+(2)+(3)-(4)]
DOCKED: USER    Estimated Inhibition Constant, Ki   =   14.71 nM (nanomolar)  [Temperature = 298.15 K]
DOCKED: USER    
DOCKED: USER    (1) Final Intermolecular Energy     =  -13.97 kcal/mol
DOCKED: USER        vdW + Hbond + desolv Energy     =  -13.97 kcal/mol
DOCKED: USER        Electrostatic Energy            =   +0.00 kcal/mol
DOCKED: USER    (2) Final Total Internal Energy     =   -2.12 kcal/mol
DOCKED: USER    (3) Torsional Free Energy           =   +3.28 kcal/mol
DOCKED: USER    (4) Unbound System's Energy  [=(2)] =   -2.12 kcal/mol
DOCKED: USER    
DOCKED: USER    
DOCKED: USER    NEWDPF move ligand.pdbqt
DOCKED: USER    NEWDPF about 0.459000 0.118000 0.005000
DOCKED: USER    NEWDPF tran0 28.691858 -16.233582 -1.129992
DOCKED: USER    NEWDPF quaternion0 -0.867214 0.078546 0.155288 0.466536
DOCKED: USER    NEWDPF axisangle0 -0.980454 0.088803 0.175566 124.380616
DOCKED: USER    NEWDPF quat0 -0.980454 0.088803 0.175566 124.380616
DOCKED: USER    NEWDPF dihe0 3.94 -179.70 -45.46 -95.95 -64.06 -155.55 -179.58 -87.45 145.38 171.78 172.99 
DOCKED: USER  keepresnum = 1 
DOCKED: USER  
DOCKED: REMARK  Name = 
DOCKED: REMARK  11 active torsions:
DOCKED: REMARK  status: ('A' for Active; 'I' for Inactive)
DOCKED: REMARK    1  A    between atoms: C_2  and  C_5
DOCKED: REMARK    2  A    between atoms: N_3  and  O_4
DOCKED: REMARK    3  A    between atoms: C_6  and  C_7
DOCKED: REMARK    4  A    between atoms: C_10  and  C_11
DOCKED: REMARK    5  A    between atoms: C_11  and  N_12
DOCKED: REMARK    6  A    between atoms: N_12  and  C_13
DOCKED: REMARK    7  A    between atoms: N_12  and  C_16
DOCKED: REMARK    8  A    between atoms: C_13  and  C_14
DOCKED: REMARK    9  A    between atoms: C_14  and  O_15
DOCKED: REMARK   10  A    between atoms: C_16  and  C_17
DOCKED: REMARK   11  A    between atoms: C_17  and  C_18
DOCKED: REMARK                            x       y       z     vdW  Elec       q    Type
DOCKED: REMARK                         _______ _______ _______ _____ _____    ______ ____
DOCKED: USER                              x       y       z     vdW  Elec       q    Type
DOCKED: USER                           _______ _______ _______ _____ _____    ______ ____
DOCKED: ROOT
DOCKED: ATOM      1  N   UNL     1      27.809 -15.309  -1.972 -0.21 -0.00    +0.000 N 
DOCKED: ATOM      2  H   UNL     1      28.645 -14.888  -1.568 +0.01 -0.00    +0.000 HD
DOCKED: ENDROOT
DOCKED: BRANCH   1   3
DOCKED: ATOM      3  C   UNL     1      27.825 -16.756  -1.661 -0.37 -0.00    +0.000 C 
DOCKED: BRANCH   3   7
DOCKED: ATOM      4  C   UNL     1      23.862 -18.117  -0.586 -0.71 -0.00    +0.000 A 
DOCKED: ATOM      5  C   UNL     1      24.104 -17.563  -1.853 -0.51 -0.00    +0.000 A 
DOCKED: ATOM      6  C   UNL     1      25.382 -17.114  -2.202 -0.49 -0.00    +0.000 A 
DOCKED: ATOM      7  C   UNL     1      26.442 -17.219  -1.289 -0.46 -0.00    +0.000 A 
DOCKED: ATOM      8  C   UNL     1      26.211 -17.790  -0.030 -0.54 -0.00    +0.000 A 
DOCKED: ATOM      9  C   UNL     1      24.934 -18.239   0.320 -0.42 -0.00    +0.000 A 
DOCKED: BRANCH   4  11
DOCKED: ATOM     10  C   UNL     1      21.764 -19.355  -1.093 -0.77 -0.00    +0.000 C 
DOCKED: ATOM     11  C   UNL     1      22.493 -18.592  -0.266 -0.82 -0.00    +0.000 C 
DOCKED: BRANCH  10  13
DOCKED: ATOM     12  O   UNL     1      19.507 -19.749  -1.637 -1.61 -0.00    +0.000 OA
DOCKED: ATOM     13  C   UNL     1      20.409 -19.840  -0.763 -0.83 -0.00    +0.000 C 
DOCKED: ATOM     14  N   UNL     1      20.083 -20.378   0.526 -0.70 -0.00    +0.000 N 
DOCKED: ATOM     15  H   UNL     1      20.750 -20.353   1.250 -0.49 -0.00    +0.000 HD
DOCKED: BRANCH  14  16
DOCKED: ATOM     16  O   UNL     1      18.863 -20.919   0.751 -0.79 -0.00    +0.000 OA
DOCKED: ATOM     17  H   UNL     1      18.352 -20.922  -0.075 -0.15 -0.00    +0.000 HD
DOCKED: ENDBRANCH  14  16
DOCKED: ENDBRANCH  10  13
DOCKED: ENDBRANCH   4  11
DOCKED: ENDBRANCH   3   7
DOCKED: ENDBRANCH   1   3
DOCKED: BRANCH   1  18
DOCKED: ATOM     18  C   UNL     1      27.912 -15.067  -3.431 -0.28 -0.00    +0.000 C 
DOCKED: BRANCH  18  19
DOCKED: ATOM     19  C   UNL     1      26.543 -14.790  -4.073 -0.49 -0.00    +0.000 C 
DOCKED: BRANCH  19  20
DOCKED: ATOM     20  O   UNL     1      26.342 -15.593  -5.205 -1.19 +0.00    +0.000 OA
DOCKED: ATOM     21  H   UNL     1      25.561 -16.153  -5.069 -0.09 -0.00    +0.000 HD
DOCKED: ENDBRANCH  19  20
DOCKED: ENDBRANCH  18  19
DOCKED: ENDBRANCH   1  18
DOCKED: BRANCH   1  22
DOCKED: ATOM     22  C   UNL     1      26.678 -14.612  -1.312 -0.32 -0.00    +0.000 C 
DOCKED: BRANCH  22  23
DOCKED: ATOM     23  C   UNL     1      26.907 -14.312   0.182 -0.31 -0.00    +0.000 C 
DOCKED: BRANCH  23  24
DOCKED: ATOM     24  C   UNL     1      27.680 -13.038   0.344 -0.17 -0.00    +0.000 A 
DOCKED: ATOM     25  C   UNL     1      29.064 -12.899   0.341 -0.07 -0.00    +0.000 A 
DOCKED: ATOM     26  N   UNL     1      29.410 -11.616   0.593 -0.04 -0.00    +0.000 N 
DOCKED: ATOM     27  C   UNL     1      28.257 -10.948   0.768 -0.09 +0.00    +0.000 A 
DOCKED: ATOM     28  C   UNL     1      27.178 -11.783   0.630 -0.19 -0.00    +0.000 A 
DOCKED: ATOM     29  C   UNL     1      25.870 -11.330   0.796 -0.28 +0.00    +0.000 A 
DOCKED: ATOM     30  C   UNL     1      25.682  -9.970   1.101 -0.34 +0.00    +0.000 A 
DOCKED: ATOM     31  C   UNL     1      26.792  -9.106   1.238 -0.16 +0.00    +0.000 A 
DOCKED: ATOM     32  C   UNL     1      28.100  -9.596   1.073 -0.10 +0.00    +0.000 A 
DOCKED: ATOM     33  H   UNL     1      30.321 -11.246   0.637 +0.00 -0.00    +0.000 HD
DOCKED: ENDBRANCH  23  24
DOCKED: ENDBRANCH  22  23
DOCKED: ENDBRANCH   1  22
DOCKED: TORSDOF 11
DOCKED: TER
DOCKED: ENDMDL
________________________________________________________________________________


	BEGINNING GENETIC ALGORITHM DOCKING 48 of 100
Run: 48 Seed: 56712174 122766888 [ Run 48 of 100 GA/GALS ]
Beginning LAMARCKIAN GENETIC ALGORITHM (LGA), with a maximum of 2500000 energy evaluations.

Final-Value: -17.421


	FINAL GENETIC ALGORITHM DOCKED STATE
	_______________________________________________


Detailed state:  trans 28.357 -15.822 -1.338 quatxyzw -0.238129 -0.004517 -0.906023 0.349852 center 0.459 0.118 0.005 ntor 11 3.8319 158.5869 97.6683 69.7958 142.1724 162.3663 -5.6135 -165.4367 -156.0837 -139.7413 49.8603
State:	 28.357 -15.822  -1.338  -0.254 -0.005 -0.967 139.043      3.83  158.59   97.67   69.80  142.17  162.37   -5.61 -165.44 -156.08 -139.74   49.86

DOCKED: MODEL       48
DOCKED: USER    Run = 48
DOCKED: USER    DPF = ligand_dock.biased.dpf
DOCKED: USER  
DOCKED: USER    Estimated Free Energy of Binding    =   -9.93 kcal/mol  [=(1)+(2)+(3)-(4)]
DOCKED: USER    Estimated Inhibition Constant, Ki   =   52.44 nM (nanomolar)  [Temperature = 298.15 K]
DOCKED: USER    
DOCKED: USER    (1) Final Intermolecular Energy     =  -13.21 kcal/mol
DOCKED: USER        vdW + Hbond + desolv Energy     =  -13.21 kcal/mol
DOCKED: USER        Electrostatic Energy            =   +0.00 kcal/mol
DOCKED: USER    (2) Final Total Internal Energy     =   -4.21 kcal/mol
DOCKED: USER    (3) Torsional Free Energy           =   +3.28 kcal/mol
DOCKED: USER    (4) Unbound System's Energy  [=(2)] =   -4.21 kcal/mol
DOCKED: USER    
DOCKED: USER    
DOCKED: USER    NEWDPF move ligand.pdbqt
DOCKED: USER    NEWDPF about 0.459000 0.118000 0.005000
DOCKED: USER    NEWDPF tran0 28.357285 -15.821641 -1.338429
DOCKED: USER    NEWDPF quaternion0 -0.238129 -0.004517 -0.906023 0.349852
DOCKED: USER    NEWDPF axisangle0 -0.254192 -0.004822 -0.967142 139.043480
DOCKED: USER    NEWDPF quat0 -0.254192 -0.004822 -0.967142 139.043480
DOCKED: USER    NEWDPF dihe0 3.83 158.59 97.67 69.80 142.17 162.37 -5.61 -165.44 -156.08 -139.74 49.86 
DOCKED: USER  keepresnum = 1 
DOCKED: USER  
DOCKED: REMARK  Name = 
DOCKED: REMARK  11 active torsions:
DOCKED: REMARK  status: ('A' for Active; 'I' for Inactive)
DOCKED: REMARK    1  A    between atoms: C_2  and  C_5
DOCKED: REMARK    2  A    between atoms: N_3  and  O_4
DOCKED: REMARK    3  A    between atoms: C_6  and  C_7
DOCKED: REMARK    4  A    between atoms: C_10  and  C_11
DOCKED: REMARK    5  A    between atoms: C_11  and  N_12
DOCKED: REMARK    6  A    between atoms: N_12  and  C_13
DOCKED: REMARK    7  A    between atoms: N_12  and  C_16
DOCKED: REMARK    8  A    between atoms: C_13  and  C_14
DOCKED: REMARK    9  A    between atoms: C_14  and  O_15
DOCKED: REMARK   10  A    between atoms: C_16  and  C_17
DOCKED: REMARK   11  A    between atoms: C_17  and  C_18
DOCKED: REMARK                            x       y       z     vdW  Elec       q    Type
DOCKED: REMARK                         _______ _______ _______ _____ _____    ______ ____
DOCKED: USER                              x       y       z     vdW  Elec       q    Type
DOCKED: USER                           _______ _______ _______ _____ _____    ______ ____
DOCKED: ROOT
DOCKED: ATOM      1  N   UNL     1      29.726 -15.490  -1.937 -0.11 -0.00    +0.000 N 
DOCKED: ATOM      2  H   UNL     1      28.920 -15.069  -2.398 +0.01 -0.00    +0.000 HD
DOCKED: ENDROOT
DOCKED: BRANCH   1   3
DOCKED: ATOM      3  C   UNL     1      29.247 -16.213  -0.738 -0.23 -0.00    +0.000 C 
DOCKED: BRANCH   3   7
DOCKED: ATOM      4  C   UNL     1      24.964 -16.788  -0.943 -0.54 -0.00    +0.000 A 
DOCKED: ATOM      5  C   UNL     1      25.836 -17.878  -1.095 -0.52 -0.00    +0.000 A 
DOCKED: ATOM      6  C   UNL     1      27.221 -17.695  -1.038 -0.34 -0.00    +0.000 A 
DOCKED: ATOM      7  C   UNL     1      27.758 -16.417  -0.819 -0.34 -0.00    +0.000 A 
DOCKED: ATOM      8  C   UNL     1      26.892 -15.329  -0.646 -0.31 -0.00    +0.000 A 
DOCKED: ATOM      9  C   UNL     1      25.507 -15.510  -0.703 -0.31 -0.00    +0.000 A 
DOCKED: BRANCH   4  11
DOCKED: ATOM     10  C   UNL     1      22.961 -18.256  -1.097 -0.81 -0.00    +0.000 C 
DOCKED: ATOM     11  C   UNL     1      23.502 -17.033  -0.998 -0.65 -0.00    +0.000 C 
DOCKED: BRANCH  10  13
DOCKED: ATOM     12  O   UNL     1      20.735 -17.594  -0.706 -2.15 +0.00    +0.000 OA
DOCKED: ATOM     13  C   UNL     1      21.504 -18.496  -1.133 -0.68 -0.00    +0.000 C 
DOCKED: ATOM     14  N   UNL     1      20.944 -19.729  -1.605 -0.74 -0.00    +0.000 N 
DOCKED: ATOM     15  H   UNL     1      21.537 -20.479  -1.837 -0.41 -0.00    +0.000 HD
DOCKED: BRANCH  14  16
DOCKED: ATOM     16  O   UNL     1      19.603 -19.864  -1.731 -1.61 -0.00    +0.000 OA
DOCKED: ATOM     17  H   UNL     1      19.170 -19.021  -1.522 -0.53 -0.00    +0.000 HD
DOCKED: ENDBRANCH  14  16
DOCKED: ENDBRANCH  10  13
DOCKED: ENDBRANCH   4  11
DOCKED: ENDBRANCH   3   7
DOCKED: ENDBRANCH   1   3
DOCKED: BRANCH   1  18
DOCKED: ATOM     18  C   UNL     1      30.607 -14.355  -1.570 -0.04 -0.00    +0.000 C 
DOCKED: BRANCH  18  19
DOCKED: ATOM     19  C   UNL     1      29.840 -13.026  -1.487 -0.03 -0.00    +0.000 C 
DOCKED: BRANCH  19  20
DOCKED: ATOM     20  O   UNL     1      28.453 -13.239  -1.482 -0.10 -0.00    +0.000 OA
DOCKED: ATOM     21  H   UNL     1      28.126 -13.217  -0.569 +0.00 -0.00    +0.000 HD
DOCKED: ENDBRANCH  19  20
DOCKED: ENDBRANCH  18  19
DOCKED: ENDBRANCH   1  18
DOCKED: BRANCH   1  22
DOCKED: ATOM     22  C   UNL     1      30.301 -16.411  -2.948 -0.16 -0.00    +0.000 C 
DOCKED: BRANCH  22  23
DOCKED: ATOM     23  C   UNL     1      29.880 -16.099  -4.398 -0.24 -0.00    +0.000 C 
DOCKED: BRANCH  23  24
DOCKED: ATOM     24  C   UNL     1      29.092 -14.824  -4.446 -0.19 -0.00    +0.000 A 
DOCKED: ATOM     25  C   UNL     1      29.602 -13.535  -4.568 -0.08 -0.00    +0.000 A 
DOCKED: ATOM     26  N   UNL     1      28.605 -12.625  -4.497 -0.10 -0.00    +0.000 N 
DOCKED: ATOM     27  C   UNL     1      27.473 -13.326  -4.318 -0.22 -0.00    +0.000 A 
DOCKED: ATOM     28  C   UNL     1      27.730 -14.673  -4.275 -0.30 -0.00    +0.000 A 
DOCKED: ATOM     29  C   UNL     1      26.718 -15.609  -4.068 -0.39 -0.00    +0.000 A 
DOCKED: ATOM     30  C   UNL     1      25.404 -15.131  -3.914 -0.40 -0.00    +0.000 A 
DOCKED: ATOM     31  C   UNL     1      25.137 -13.744  -3.963 -0.39 -0.00    +0.000 A 
DOCKED: ATOM     32  C   UNL     1      26.181 -12.823  -4.165 -0.31 -0.00    +0.000 A 
DOCKED: ATOM     33  H   UNL     1      28.691 -11.646  -4.564 +0.00 -0.00    +0.000 HD
DOCKED: ENDBRANCH  23  24
DOCKED: ENDBRANCH  22  23
DOCKED: ENDBRANCH   1  22
DOCKED: TORSDOF 11
DOCKED: TER
DOCKED: ENDMDL
________________________________________________________________________________


	BEGINNING GENETIC ALGORITHM DOCKING 49 of 100
Run: 49 Seed: 675859352 1078909791 [ Run 49 of 100 GA/GALS ]
Beginning LAMARCKIAN GENETIC ALGORITHM (LGA), with a maximum of 2500000 energy evaluations.

Final-Value: -18.102


	FINAL GENETIC ALGORITHM DOCKED STATE
	_______________________________________________


Detailed state:  trans 26.643 -15.670 -1.087 quatxyzw 0.254559 0.042685 0.930517 -0.259839 center 0.459 0.118 0.005 ntor 11 -5.1999 -5.2459 106.5492 80.2905 123.7006 114.0497 -179.2847 179.0384 -151.1424 56.1573 65.3673
State:	 26.643 -15.670  -1.087   0.264  0.044  0.964 -149.879     -5.20   -5.25  106.55   80.29  123.70  114.05 -179.28  179.04 -151.14   56.16   65.37

DOCKED: MODEL       49
DOCKED: USER    Run = 49
DOCKED: USER    DPF = ligand_dock.biased.dpf
DOCKED: USER  
DOCKED: USER    Estimated Free Energy of Binding    =  -11.15 kcal/mol  [=(1)+(2)+(3)-(4)]
DOCKED: USER    Estimated Inhibition Constant, Ki   =    6.71 nM (nanomolar)  [Temperature = 298.15 K]
DOCKED: USER    
DOCKED: USER    (1) Final Intermolecular Energy     =  -14.43 kcal/mol
DOCKED: USER        vdW + Hbond + desolv Energy     =  -14.43 kcal/mol
DOCKED: USER        Electrostatic Energy            =   +0.00 kcal/mol
DOCKED: USER    (2) Final Total Internal Energy     =   -3.67 kcal/mol
DOCKED: USER    (3) Torsional Free Energy           =   +3.28 kcal/mol
DOCKED: USER    (4) Unbound System's Energy  [=(2)] =   -3.67 kcal/mol
DOCKED: USER    
DOCKED: USER    
DOCKED: USER    NEWDPF move ligand.pdbqt
DOCKED: USER    NEWDPF about 0.459000 0.118000 0.005000
DOCKED: USER    NEWDPF tran0 26.642526 -15.669525 -1.087276
DOCKED: USER    NEWDPF quaternion0 0.254559 0.042685 0.930517 -0.259839
DOCKED: USER    NEWDPF axisangle0 0.263614 0.044204 0.963615 -149.878946
DOCKED: USER    NEWDPF quat0 0.263614 0.044204 0.963615 -149.878946
DOCKED: USER    NEWDPF dihe0 -5.20 -5.25 106.55 80.29 123.70 114.05 -179.28 179.04 -151.14 56.16 65.37 
DOCKED: USER  keepresnum = 1 
DOCKED: USER  
DOCKED: REMARK  Name = 
DOCKED: REMARK  11 active torsions:
DOCKED: REMARK  status: ('A' for Active; 'I' for Inactive)
DOCKED: REMARK    1  A    between atoms: C_2  and  C_5
DOCKED: REMARK    2  A    between atoms: N_3  and  O_4
DOCKED: REMARK    3  A    between atoms: C_6  and  C_7
DOCKED: REMARK    4  A    between atoms: C_10  and  C_11
DOCKED: REMARK    5  A    between atoms: C_11  and  N_12
DOCKED: REMARK    6  A    between atoms: N_12  and  C_13
DOCKED: REMARK    7  A    between atoms: N_12  and  C_16
DOCKED: REMARK    8  A    between atoms: C_13  and  C_14
DOCKED: REMARK    9  A    between atoms: C_14  and  O_15
DOCKED: REMARK   10  A    between atoms: C_16  and  C_17
DOCKED: REMARK   11  A    between atoms: C_17  and  C_18
DOCKED: REMARK                            x       y       z     vdW  Elec       q    Type
DOCKED: REMARK                         _______ _______ _______ _____ _____    ______ ____
DOCKED: USER                              x       y       z     vdW  Elec       q    Type
DOCKED: USER                           _______ _______ _______ _____ _____    ______ ____
DOCKED: ROOT
DOCKED: ATOM      1  N   UNL     1      27.891 -15.086  -1.752 -0.19 -0.00    +0.000 N 
DOCKED: ATOM      2  H   UNL     1      26.998 -14.841  -2.179 +0.00 -0.00    +0.000 HD
DOCKED: ENDROOT
DOCKED: BRANCH   1   3
DOCKED: ATOM      3  C   UNL     1      27.618 -15.866  -0.526 -0.34 -0.00    +0.000 C 
DOCKED: BRANCH   3   7
DOCKED: ATOM      4  C   UNL     1      24.005 -18.191  -1.034 -0.71 -0.00    +0.000 A 
DOCKED: ATOM      5  C   UNL     1      23.989 -16.801  -1.230 -0.53 -0.00    +0.000 A 
DOCKED: ATOM      6  C   UNL     1      25.153 -16.044  -1.058 -0.44 -0.00    +0.000 A 
DOCKED: ATOM      7  C   UNL     1      26.355 -16.669  -0.695 -0.46 -0.00    +0.000 A 
DOCKED: ATOM      8  C   UNL     1      26.382 -18.059  -0.518 -0.54 -0.00    +0.000 A 
DOCKED: ATOM      9  C   UNL     1      25.219 -18.817  -0.689 -0.33 -0.00    +0.000 A 
DOCKED: BRANCH   4  11
DOCKED: ATOM     10  C   UNL     1      21.553 -18.544  -0.789 -0.85 -0.00    +0.000 C 
DOCKED: ATOM     11  C   UNL     1      22.748 -18.953  -1.240 -0.79 -0.00    +0.000 C 
DOCKED: BRANCH  10  13
DOCKED: ATOM     12  O   UNL     1      20.139 -19.874  -2.122 -1.85 -0.00    +0.000 OA
DOCKED: ATOM     13  C   UNL     1      20.303 -19.297  -1.014 -0.90 -0.00    +0.000 C 
DOCKED: ATOM     14  N   UNL     1      19.264 -19.365  -0.028 -0.77 -0.00    +0.000 N 
DOCKED: ATOM     15  H   UNL     1      19.335 -18.830   0.795 -0.25 -0.00    +0.000 HD
DOCKED: BRANCH  14  16
DOCKED: ATOM     16  O   UNL     1      18.187 -20.161  -0.226 -0.80 -0.00    +0.000 OA
DOCKED: ATOM     17  H   UNL     1      18.231 -20.552  -1.113 -0.36 -0.00    +0.000 HD
DOCKED: ENDBRANCH  14  16
DOCKED: ENDBRANCH  10  13
DOCKED: ENDBRANCH   4  11
DOCKED: ENDBRANCH   3   7
DOCKED: ENDBRANCH   1   3
DOCKED: BRANCH   1  18
DOCKED: ATOM     18  C   UNL     1      28.545 -13.794  -1.439 -0.11 -0.00    +0.000 C 
DOCKED: BRANCH  18  19
DOCKED: ATOM     19  C   UNL     1      27.529 -12.698  -1.079 -0.15 -0.00    +0.000 C 
DOCKED: BRANCH  19  20
DOCKED: ATOM     20  O   UNL     1      26.315 -13.254  -0.648 -0.25 -0.00    +0.000 OA
DOCKED: ATOM     21  H   UNL     1      25.895 -13.724  -1.386 -0.01 -0.00    +0.000 HD
DOCKED: ENDBRANCH  19  20
DOCKED: ENDBRANCH  18  19
DOCKED: ENDBRANCH   1  18
DOCKED: BRANCH   1  22
DOCKED: ATOM     22  C   UNL     1      28.592 -15.895  -2.781 -0.25 -0.00    +0.000 C 
DOCKED: BRANCH  22  23
DOCKED: ATOM     23  C   UNL     1      28.136 -15.611  -4.225 -0.34 -0.00    +0.000 C 
DOCKED: BRANCH  23  24
DOCKED: ATOM     24  C   UNL     1      26.920 -14.734  -4.223 -0.40 -0.00    +0.000 A 
DOCKED: ATOM     25  C   UNL     1      25.595 -15.150  -4.126 -0.51 -0.00    +0.000 A 
DOCKED: ATOM     26  N   UNL     1      24.760 -14.092  -4.237 -0.44 -0.00    +0.000 N 
DOCKED: ATOM     27  C   UNL     1      25.545 -13.016  -4.417 -0.31 -0.00    +0.000 A 
DOCKED: ATOM     28  C   UNL     1      26.870 -13.368  -4.421 -0.29 -0.00    +0.000 A 
DOCKED: ATOM     29  C   UNL     1      27.881 -12.429  -4.621 -0.15 -0.00    +0.000 A 
DOCKED: ATOM     30  C   UNL     1      27.501 -11.088  -4.810 -0.12 -0.00    +0.000 A 
DOCKED: ATOM     31  C   UNL     1      26.136 -10.722  -4.800 -0.22 -0.00    +0.000 A 
DOCKED: ATOM     32  C   UNL     1      25.139 -11.695  -4.605 -0.28 -0.00    +0.000 A 
DOCKED: ATOM     33  H   UNL     1      23.777 -14.107  -4.193 -0.48 -0.00    +0.000 HD
DOCKED: ENDBRANCH  23  24
DOCKED: ENDBRANCH  22  23
DOCKED: ENDBRANCH   1  22
DOCKED: TORSDOF 11
DOCKED: TER
DOCKED: ENDMDL
________________________________________________________________________________


	BEGINNING GENETIC ALGORITHM DOCKING 50 of 100
Run: 50 Seed: 812412710 1960337909 [ Run 50 of 100 GA/GALS ]
Beginning LAMARCKIAN GENETIC ALGORITHM (LGA), with a maximum of 2500000 energy evaluations.

Final-Value: -20.686


	FINAL GENETIC ALGORITHM DOCKED STATE
	_______________________________________________


Detailed state:  trans 28.965 -16.164 0.823 quatxyzw 0.887725 -0.395206 0.198029 0.128608 center 0.459 0.118 0.005 ntor 11 2.0451 -3.6436 118.5327 34.3065 97.9801 164.4356 153.5006 -104.8752 175.2036 15.4606 114.5246
State:	 28.965 -16.164   0.823   0.895 -0.399  0.200 165.222      2.05   -3.64  118.53   34.31   97.98  164.44  153.50 -104.88  175.20   15.46  114.52

DOCKED: MODEL       50
DOCKED: USER    Run = 50
DOCKED: USER    DPF = ligand_dock.biased.dpf
DOCKED: USER  
DOCKED: USER    Estimated Free Energy of Binding    =  -14.29 kcal/mol  [=(1)+(2)+(3)-(4)]
DOCKED: USER    Estimated Inhibition Constant, Ki   =   33.26 pM (picomolar)  [Temperature = 298.15 K]
DOCKED: USER    
DOCKED: USER    (1) Final Intermolecular Energy     =  -17.58 kcal/mol
DOCKED: USER        vdW + Hbond + desolv Energy     =  -17.58 kcal/mol
DOCKED: USER        Electrostatic Energy            =   +0.00 kcal/mol
DOCKED: USER    (2) Final Total Internal Energy     =   -3.11 kcal/mol
DOCKED: USER    (3) Torsional Free Energy           =   +3.28 kcal/mol
DOCKED: USER    (4) Unbound System's Energy  [=(2)] =   -3.11 kcal/mol
DOCKED: USER    
DOCKED: USER    
DOCKED: USER    NEWDPF move ligand.pdbqt
DOCKED: USER    NEWDPF about 0.459000 0.118000 0.005000
DOCKED: USER    NEWDPF tran0 28.964807 -16.164087 0.823392
DOCKED: USER    NEWDPF quaternion0 0.887725 -0.395206 0.198029 0.128608
DOCKED: USER    NEWDPF axisangle0 0.895159 -0.398516 0.199687 165.221632
DOCKED: USER    NEWDPF quat0 0.895159 -0.398516 0.199687 165.221632
DOCKED: USER    NEWDPF dihe0 2.05 -3.64 118.53 34.31 97.98 164.44 153.50 -104.88 175.20 15.46 114.52 
DOCKED: USER  keepresnum = 1 
DOCKED: USER  
DOCKED: REMARK  Name = 
DOCKED: REMARK  11 active torsions:
DOCKED: REMARK  status: ('A' for Active; 'I' for Inactive)
DOCKED: REMARK    1  A    between atoms: C_2  and  C_5
DOCKED: REMARK    2  A    between atoms: N_3  and  O_4
DOCKED: REMARK    3  A    between atoms: C_6  and  C_7
DOCKED: REMARK    4  A    between atoms: C_10  and  C_11
DOCKED: REMARK    5  A    between atoms: C_11  and  N_12
DOCKED: REMARK    6  A    between atoms: N_12  and  C_13
DOCKED: REMARK    7  A    between atoms: N_12  and  C_16
DOCKED: REMARK    8  A    between atoms: C_13  and  C_14
DOCKED: REMARK    9  A    between atoms: C_14  and  O_15
DOCKED: REMARK   10  A    between atoms: C_16  and  C_17
DOCKED: REMARK   11  A    between atoms: C_17  and  C_18
DOCKED: REMARK                            x       y       z     vdW  Elec       q    Type
DOCKED: REMARK                         _______ _______ _______ _____ _____    ______ ____
DOCKED: USER                              x       y       z     vdW  Elec       q    Type
DOCKED: USER                           _______ _______ _______ _____ _____    ______ ____
DOCKED: ROOT
DOCKED: ATOM      1  N   UNL     1      29.201 -14.669   1.051 -0.17 -0.00    +0.000 N 
DOCKED: ATOM      2  H   UNL     1      29.113 -15.244   1.889 -1.59 -0.00    +0.000 HD
DOCKED: ENDROOT
DOCKED: BRANCH   1   3
DOCKED: ATOM      3  C   UNL     1      29.172 -15.564  -0.127 -0.20 -0.00    +0.000 C 
DOCKED: BRANCH   3   7
DOCKED: ATOM      4  C   UNL     1      25.077 -16.590  -1.075 -0.53 -0.00    +0.000 A 
DOCKED: ATOM      5  C   UNL     1      25.861 -17.448  -0.286 -0.53 -0.00    +0.000 A 
DOCKED: ATOM      6  C   UNL     1      27.188 -17.124   0.015 -0.37 -0.00    +0.000 A 
DOCKED: ATOM      7  C   UNL     1      27.750 -15.931  -0.461 -0.30 -0.00    +0.000 A 
DOCKED: ATOM      8  C   UNL     1      26.966 -15.061  -1.231 -0.28 -0.00    +0.000 A 
DOCKED: ATOM      9  C   UNL     1      25.641 -15.383  -1.534 -0.38 -0.00    +0.000 A 
DOCKED: BRANCH   4  11
DOCKED: ATOM     10  C   UNL     1      23.063 -18.026  -0.796 -0.81 -0.00    +0.000 C 
DOCKED: ATOM     11  C   UNL     1      23.671 -16.970  -1.358 -0.56 -0.00    +0.000 C 
DOCKED: BRANCH  10  13
DOCKED: ATOM     12  O   UNL     1      20.752 -17.581  -0.728 -2.13 -0.00    +0.000 OA
DOCKED: ATOM     13  C   UNL     1      21.658 -18.388  -1.067 -0.76 -0.00    +0.000 C 
DOCKED: ATOM     14  N   UNL     1      21.294 -19.637  -1.670 -0.59 -0.00    +0.000 N 
DOCKED: ATOM     15  H   UNL     1      21.983 -20.319  -1.838 -0.44 -0.00    +0.000 HD
DOCKED: BRANCH  14  16
DOCKED: ATOM     16  O   UNL     1      20.005 -19.881  -2.008 -1.84 -0.00    +0.000 OA
DOCKED: ATOM     17  H   UNL     1      19.464 -19.101  -1.808 -0.34 -0.00    +0.000 HD
DOCKED: ENDBRANCH  14  16
DOCKED: ENDBRANCH  10  13
DOCKED: ENDBRANCH   4  11
DOCKED: ENDBRANCH   3   7
DOCKED: ENDBRANCH   1   3
DOCKED: BRANCH   1  18
DOCKED: ATOM     18  C   UNL     1      30.510 -13.985   1.180 -0.10 -0.00    +0.000 C 
DOCKED: BRANCH  18  19
DOCKED: ATOM     19  C   UNL     1      31.087 -14.093   2.600 -0.15 -0.00    +0.000 C 
DOCKED: BRANCH  19  20
DOCKED: ATOM     20  O   UNL     1      30.754 -15.321   3.191 -0.30 -0.00    +0.000 OA
DOCKED: ATOM     21  H   UNL     1      29.792 -15.373   3.306 -1.29 -0.00    +0.000 HD
DOCKED: ENDBRANCH  19  20
DOCKED: ENDBRANCH  18  19
DOCKED: ENDBRANCH   1  18
DOCKED: BRANCH   1  22
DOCKED: ATOM     22  C   UNL     1      28.028 -13.762   1.090 -0.24 -0.00    +0.000 C 
DOCKED: BRANCH  22  23
DOCKED: ATOM     23  C   UNL     1      27.001 -14.105   2.187 +0.04 -0.00    +0.000 C 
DOCKED: BRANCH  23  24
DOCKED: ATOM     24  C   UNL     1      27.595 -13.875   3.544 -0.41 -0.00    +0.000 A 
DOCKED: ATOM     25  C   UNL     1      27.878 -14.843   4.503 -0.55 -0.00    +0.000 A 
DOCKED: ATOM     26  N   UNL     1      28.333 -14.264   5.637 -0.44 -0.00    +0.000 N 
DOCKED: ATOM     27  C   UNL     1      28.326 -12.940   5.407 -0.40 -0.00    +0.000 A 
DOCKED: ATOM     28  C   UNL     1      27.876 -12.662   4.142 -0.33 -0.00    +0.000 A 
DOCKED: ATOM     29  C   UNL     1      27.751 -11.354   3.676 -0.27 +0.00    +0.000 A 
DOCKED: ATOM     30  C   UNL     1      28.114 -10.311   4.547 -0.27 +0.00    +0.000 A 
DOCKED: ATOM     31  C   UNL     1      28.584 -10.595   5.849 -0.29 +0.00    +0.000 A 
DOCKED: ATOM     32  C   UNL     1      28.691 -11.926   6.293 -0.34 +0.00    +0.000 A 
DOCKED: ATOM     33  H   UNL     1      28.613 -14.720   6.463 -0.41 -0.00    +0.000 HD
DOCKED: ENDBRANCH  23  24
DOCKED: ENDBRANCH  22  23
DOCKED: ENDBRANCH   1  22
DOCKED: TORSDOF 11
DOCKED: TER
DOCKED: ENDMDL
________________________________________________________________________________


	BEGINNING GENETIC ALGORITHM DOCKING 51 of 100
Run: 51 Seed: 1189068273 581026131 [ Run 51 of 100 GA/GALS ]
Beginning LAMARCKIAN GENETIC ALGORITHM (LGA), with a maximum of 2500000 energy evaluations.

Final-Value: -15.982


	FINAL GENETIC ALGORITHM DOCKED STATE
	_______________________________________________


Detailed state:  trans 28.617 -16.074 -1.446 quatxyzw -0.321125 0.690837 -0.644223 0.067824 center 0.459 0.118 0.005 ntor 11 23.3307 72.5619 -22.8385 -132.8608 144.4040 -101.4964 163.3341 178.9746 174.4065 -148.7206 17.7737
State:	 28.617 -16.074  -1.446  -0.322  0.692 -0.646 172.222     23.33   72.56  -22.84 -132.86  144.40 -101.50  163.33  178.97  174.41 -148.72   17.77

DOCKED: MODEL       51
DOCKED: USER    Run = 51
DOCKED: USER    DPF = ligand_dock.biased.dpf
DOCKED: USER  
DOCKED: USER    Estimated Free Energy of Binding    =   -9.78 kcal/mol  [=(1)+(2)+(3)-(4)]
DOCKED: USER    Estimated Inhibition Constant, Ki   =   68.11 nM (nanomolar)  [Temperature = 298.15 K]
DOCKED: USER    
DOCKED: USER    (1) Final Intermolecular Energy     =  -13.06 kcal/mol
DOCKED: USER        vdW + Hbond + desolv Energy     =  -13.06 kcal/mol
DOCKED: USER        Electrostatic Energy            =   +0.00 kcal/mol
DOCKED: USER    (2) Final Total Internal Energy     =   -2.92 kcal/mol
DOCKED: USER    (3) Torsional Free Energy           =   +3.28 kcal/mol
DOCKED: USER    (4) Unbound System's Energy  [=(2)] =   -2.92 kcal/mol
DOCKED: USER    
DOCKED: USER    
DOCKED: USER    NEWDPF move ligand.pdbqt
DOCKED: USER    NEWDPF about 0.459000 0.118000 0.005000
DOCKED: USER    NEWDPF tran0 28.617079 -16.073946 -1.446082
DOCKED: USER    NEWDPF quaternion0 -0.321125 0.690837 -0.644223 0.067824
DOCKED: USER    NEWDPF axisangle0 -0.321866 0.692431 -0.645710 172.221975
DOCKED: USER    NEWDPF quat0 -0.321866 0.692431 -0.645710 172.221975
DOCKED: USER    NEWDPF dihe0 23.33 72.56 -22.84 -132.86 144.40 -101.50 163.33 178.97 174.41 -148.72 17.77 
DOCKED: USER  keepresnum = 1 
DOCKED: USER  
DOCKED: REMARK  Name = 
DOCKED: REMARK  11 active torsions:
DOCKED: REMARK  status: ('A' for Active; 'I' for Inactive)
DOCKED: REMARK    1  A    between atoms: C_2  and  C_5
DOCKED: REMARK    2  A    between atoms: N_3  and  O_4
DOCKED: REMARK    3  A    between atoms: C_6  and  C_7
DOCKED: REMARK    4  A    between atoms: C_10  and  C_11
DOCKED: REMARK    5  A    between atoms: C_11  and  N_12
DOCKED: REMARK    6  A    between atoms: N_12  and  C_13
DOCKED: REMARK    7  A    between atoms: N_12  and  C_16
DOCKED: REMARK    8  A    between atoms: C_13  and  C_14
DOCKED: REMARK    9  A    between atoms: C_14  and  O_15
DOCKED: REMARK   10  A    between atoms: C_16  and  C_17
DOCKED: REMARK   11  A    between atoms: C_17  and  C_18
DOCKED: REMARK                            x       y       z     vdW  Elec       q    Type
DOCKED: REMARK                         _______ _______ _______ _____ _____    ______ ____
DOCKED: USER                              x       y       z     vdW  Elec       q    Type
DOCKED: USER                           _______ _______ _______ _____ _____    ______ ____
DOCKED: ROOT
DOCKED: ATOM      1  N   UNL     1      29.994 -15.712  -0.884 -0.13 -0.00    +0.000 N 
DOCKED: ATOM      2  H   UNL     1      29.209 -15.154  -0.547 -0.00 -0.00    +0.000 HD
DOCKED: ENDROOT
DOCKED: BRANCH   1   3
DOCKED: ATOM      3  C   UNL     1      29.459 -16.783  -1.752 -0.25 -0.00    +0.000 C 
DOCKED: BRANCH   3   7
DOCKED: ATOM      4  C   UNL     1      25.202 -17.243  -1.126 -0.59 -0.00    +0.000 A 
DOCKED: ATOM      5  C   UNL     1      25.685 -16.525  -2.232 -0.49 -0.00    +0.000 A 
DOCKED: ATOM      6  C   UNL     1      27.060 -16.367  -2.434 -0.30 -0.00    +0.000 A 
DOCKED: ATOM      7  C   UNL     1      27.976 -16.933  -1.534 -0.32 -0.00    +0.000 A 
DOCKED: ATOM      8  C   UNL     1      27.501 -17.668  -0.440 -0.32 -0.00    +0.000 A 
DOCKED: ATOM      9  C   UNL     1      26.127 -17.827  -0.237 -0.57 -0.00    +0.000 A 
DOCKED: BRANCH   4  11
DOCKED: ATOM     10  C   UNL     1      23.067 -18.509  -1.295 -0.78 -0.00    +0.000 C 
DOCKED: ATOM     11  C   UNL     1      23.736 -17.396  -0.962 -0.74 -0.00    +0.000 C 
DOCKED: BRANCH  10  13
DOCKED: ATOM     12  O   UNL     1      21.013 -17.867  -0.339 -1.94 +0.00    +0.000 OA
DOCKED: ATOM     13  C   UNL     1      21.610 -18.663  -1.112 -0.78 -0.00    +0.000 C 
DOCKED: ATOM     14  N   UNL     1      20.863 -19.703  -1.758 -0.73 -0.00    +0.000 N 
DOCKED: ATOM     15  H   UNL     1      21.335 -20.394  -2.276 -0.51 -0.00    +0.000 HD
DOCKED: BRANCH  14  16
DOCKED: ATOM     16  O   UNL     1      19.513 -19.738  -1.657 -1.63 -0.00    +0.000 OA
DOCKED: ATOM     17  H   UNL     1      19.180 -18.848  -1.458 -0.53 -0.00    +0.000 HD
DOCKED: ENDBRANCH  14  16
DOCKED: ENDBRANCH  10  13
DOCKED: ENDBRANCH   4  11
DOCKED: ENDBRANCH   3   7
DOCKED: ENDBRANCH   1   3
DOCKED: BRANCH   1  18
DOCKED: ATOM     18  C   UNL     1      30.633 -16.268   0.332 -0.11 -0.00    +0.000 C 
DOCKED: BRANCH  18  19
DOCKED: ATOM     19  C   UNL     1      31.839 -17.161   0.001 -0.13 -0.00    +0.000 C 
DOCKED: BRANCH  19  20
DOCKED: ATOM     20  O   UNL     1      31.540 -18.515   0.212 -0.20 -0.00    +0.000 OA
DOCKED: ATOM     21  H   UNL     1      30.584 -18.619   0.343 -0.40 -0.00    +0.000 HD
DOCKED: ENDBRANCH  19  20
DOCKED: ENDBRANCH  18  19
DOCKED: ENDBRANCH   1  18
DOCKED: BRANCH   1  22
DOCKED: ATOM     22  C   UNL     1      30.840 -14.755  -1.639 -0.04 -0.00    +0.000 C 
DOCKED: BRANCH  22  23
DOCKED: ATOM     23  C   UNL     1      30.187 -13.378  -1.866 -0.03 -0.00    +0.000 C 
DOCKED: BRANCH  23  24
DOCKED: ATOM     24  C   UNL     1      28.745 -13.413  -1.457 -0.07 -0.00    +0.000 A 
DOCKED: ATOM     25  C   UNL     1      27.642 -13.472  -2.304 -0.14 -0.00    +0.000 A 
DOCKED: ATOM     26  N   UNL     1      26.496 -13.408  -1.590 -0.15 -0.00    +0.000 N 
DOCKED: ATOM     27  C   UNL     1      26.866 -13.296  -0.302 -0.21 -0.00    +0.000 A 
DOCKED: ATOM     28  C   UNL     1      28.232 -13.289  -0.181 -0.12 -0.00    +0.000 A 
DOCKED: ATOM     29  C   UNL     1      28.861 -13.153   1.056 -0.11 -0.00    +0.000 A 
DOCKED: ATOM     30  C   UNL     1      28.045 -13.032   2.195 -0.22 -0.00    +0.000 A 
DOCKED: ATOM     31  C   UNL     1      26.637 -13.045   2.073 -0.29 -0.00    +0.000 A 
DOCKED: ATOM     32  C   UNL     1      26.032 -13.176   0.810 -0.27 -0.00    +0.000 A 
DOCKED: ATOM     33  H   UNL     1      25.577 -13.439  -1.941 +0.02 -0.00    +0.000 HD
DOCKED: ENDBRANCH  23  24
DOCKED: ENDBRANCH  22  23
DOCKED: ENDBRANCH   1  22
DOCKED: TORSDOF 11
DOCKED: TER
DOCKED: ENDMDL
________________________________________________________________________________


	BEGINNING GENETIC ALGORITHM DOCKING 52 of 100
Run: 52 Seed: 1257069735 1415561057 [ Run 52 of 100 GA/GALS ]
Beginning LAMARCKIAN GENETIC ALGORITHM (LGA), with a maximum of 2500000 energy evaluations.

Final-Value: -17.835


	FINAL GENETIC ALGORITHM DOCKED STATE
	_______________________________________________


Detailed state:  trans 28.744 -16.241 -0.262 quatxyzw -0.937562 0.280136 0.076410 -0.191477 center 0.459 0.118 0.005 ntor 11 6.4297 43.1219 84.1476 20.2461 -171.7505 145.9623 -106.4159 88.8612 -80.2602 -163.8199 111.8539
State:	 28.744 -16.241  -0.262  -0.955  0.285  0.078 -157.922      6.43   43.12   84.15   20.25 -171.75  145.96 -106.42   88.86  -80.26 -163.82  111.85

DOCKED: MODEL       52
DOCKED: USER    Run = 52
DOCKED: USER    DPF = ligand_dock.biased.dpf
DOCKED: USER  
DOCKED: USER    Estimated Free Energy of Binding    =  -11.94 kcal/mol  [=(1)+(2)+(3)-(4)]
DOCKED: USER    Estimated Inhibition Constant, Ki   =    1.77 nM (nanomolar)  [Temperature = 298.15 K]
DOCKED: USER    
DOCKED: USER    (1) Final Intermolecular Energy     =  -15.22 kcal/mol
DOCKED: USER        vdW + Hbond + desolv Energy     =  -15.22 kcal/mol
DOCKED: USER        Electrostatic Energy            =   +0.00 kcal/mol
DOCKED: USER    (2) Final Total Internal Energy     =   -2.62 kcal/mol
DOCKED: USER    (3) Torsional Free Energy           =   +3.28 kcal/mol
DOCKED: USER    (4) Unbound System's Energy  [=(2)] =   -2.62 kcal/mol
DOCKED: USER    
DOCKED: USER    
DOCKED: USER    NEWDPF move ligand.pdbqt
DOCKED: USER    NEWDPF about 0.459000 0.118000 0.005000
DOCKED: USER    NEWDPF tran0 28.744409 -16.240685 -0.262314
DOCKED: USER    NEWDPF quaternion0 -0.937562 0.280136 0.076410 -0.191477
DOCKED: USER    NEWDPF axisangle0 -0.955236 0.285417 0.077851 -157.922037
DOCKED: USER    NEWDPF quat0 -0.955236 0.285417 0.077851 -157.922037
DOCKED: USER    NEWDPF dihe0 6.43 43.12 84.15 20.25 -171.75 145.96 -106.42 88.86 -80.26 -163.82 111.85 
DOCKED: USER  keepresnum = 1 
DOCKED: USER  
DOCKED: REMARK  Name = 
DOCKED: REMARK  11 active torsions:
DOCKED: REMARK  status: ('A' for Active; 'I' for Inactive)
DOCKED: REMARK    1  A    between atoms: C_2  and  C_5
DOCKED: REMARK    2  A    between atoms: N_3  and  O_4
DOCKED: REMARK    3  A    between atoms: C_6  and  C_7
DOCKED: REMARK    4  A    between atoms: C_10  and  C_11
DOCKED: REMARK    5  A    between atoms: C_11  and  N_12
DOCKED: REMARK    6  A    between atoms: N_12  and  C_13
DOCKED: REMARK    7  A    between atoms: N_12  and  C_16
DOCKED: REMARK    8  A    between atoms: C_13  and  C_14
DOCKED: REMARK    9  A    between atoms: C_14  and  O_15
DOCKED: REMARK   10  A    between atoms: C_16  and  C_17
DOCKED: REMARK   11  A    between atoms: C_17  and  C_18
DOCKED: REMARK                            x       y       z     vdW  Elec       q    Type
DOCKED: REMARK                         _______ _______ _______ _____ _____    ______ ____
DOCKED: USER                              x       y       z     vdW  Elec       q    Type
DOCKED: USER                           _______ _______ _______ _____ _____    ______ ____
DOCKED: ROOT
DOCKED: ATOM      1  N   UNL     1      28.652 -14.838   0.344 -0.20 -0.00    +0.000 N 
DOCKED: ATOM      2  H   UNL     1      29.109 -15.548   0.917 -0.61 -0.00    +0.000 HD
DOCKED: ENDROOT
DOCKED: BRANCH   1   3
DOCKED: ATOM      3  C   UNL     1      28.331 -15.443  -0.968 -0.24 -0.00    +0.000 C 
DOCKED: BRANCH   3   7
DOCKED: ATOM      4  C   UNL     1      24.814 -17.944  -0.656 -0.65 -0.00    +0.000 A 
DOCKED: ATOM      5  C   UNL     1      24.688 -16.562  -0.872 -0.48 -0.00    +0.000 A 
DOCKED: ATOM      6  C   UNL     1      25.821 -15.749  -0.965 -0.40 -0.00    +0.000 A 
DOCKED: ATOM      7  C   UNL     1      27.103 -16.307  -0.851 -0.38 -0.00    +0.000 A 
DOCKED: ATOM      8  C   UNL     1      27.237 -17.688  -0.656 -0.42 -0.00    +0.000 A 
DOCKED: ATOM      9  C   UNL     1      26.105 -18.503  -0.563 -0.49 -0.00    +0.000 A 
DOCKED: BRANCH   4  11
DOCKED: ATOM     10  C   UNL     1      22.351 -18.249  -0.473 -0.84 -0.00    +0.000 C 
DOCKED: ATOM     11  C   UNL     1      23.583 -18.768  -0.578 -0.78 -0.00    +0.000 C 
DOCKED: BRANCH  10  13
DOCKED: ATOM     12  O   UNL     1      21.213 -20.245   0.039 -0.62 -0.00    +0.000 OA
DOCKED: ATOM     13  C   UNL     1      21.128 -19.073  -0.415 -0.86 -0.00    +0.000 C 
DOCKED: ATOM     14  N   UNL     1      19.861 -18.595  -0.885 -0.75 -0.00    +0.000 N 
DOCKED: ATOM     15  H   UNL     1      19.805 -17.724  -1.340 -0.54 -0.00    +0.000 HD
DOCKED: BRANCH  14  16
DOCKED: ATOM     16  O   UNL     1      18.742 -19.337  -0.706 -0.81 -0.00    +0.000 OA
DOCKED: ATOM     17  H   UNL     1      18.950 -20.109  -0.157 -0.06 -0.00    +0.000 HD
DOCKED: ENDBRANCH  14  16
DOCKED: ENDBRANCH  10  13
DOCKED: ENDBRANCH   4  11
DOCKED: ENDBRANCH   3   7
DOCKED: ENDBRANCH   1   3
DOCKED: BRANCH   1  18
DOCKED: ATOM     18  C   UNL     1      29.642 -13.744   0.209 -0.09 -0.00    +0.000 C 
DOCKED: BRANCH  18  19
DOCKED: ATOM     19  C   UNL     1      30.608 -13.680   1.403 -0.09 -0.00    +0.000 C 
DOCKED: BRANCH  19  20
DOCKED: ATOM     20  O   UNL     1      30.315 -14.677   2.346 -0.21 -0.00    +0.000 OA
DOCKED: ATOM     21  H   UNL     1      29.417 -15.011   2.194 -1.56 -0.00    +0.000 HD
DOCKED: ENDBRANCH  19  20
DOCKED: ENDBRANCH  18  19
DOCKED: ENDBRANCH   1  18
DOCKED: BRANCH   1  22
DOCKED: ATOM     22  C   UNL     1      27.430 -14.471   1.101 -0.28 -0.00    +0.000 C 
DOCKED: BRANCH  22  23
DOCKED: ATOM     23  C   UNL     1      27.590 -13.221   1.988 -0.30 -0.00    +0.000 C 
DOCKED: BRANCH  23  24
DOCKED: ATOM     24  C   UNL     1      27.836 -13.622   3.412 -0.37 -0.00    +0.000 A 
DOCKED: ATOM     25  C   UNL     1      27.658 -14.889   3.961 -0.26 -0.00    +0.000 A 
DOCKED: ATOM     26  N   UNL     1      27.900 -14.864   5.291 -0.47 -0.00    +0.000 N 
DOCKED: ATOM     27  C   UNL     1      28.214 -13.591   5.588 -0.40 -0.00    +0.000 A 
DOCKED: ATOM     28  C   UNL     1      28.180 -12.801   4.468 -0.35 -0.00    +0.000 A 
DOCKED: ATOM     29  C   UNL     1      28.442 -11.433   4.523 -0.25 +0.00    +0.000 A 
DOCKED: ATOM     30  C   UNL     1      28.758 -10.877   5.776 -0.27 +0.00    +0.000 A 
DOCKED: ATOM     31  C   UNL     1      28.800 -11.691   6.931 -0.33 +0.00    +0.000 A 
DOCKED: ATOM     32  C   UNL     1      28.522 -13.067   6.844 -0.30 -0.00    +0.000 A 
DOCKED: ATOM     33  H   UNL     1      27.855 -15.624   5.915 -0.55 -0.00    +0.000 HD
DOCKED: ENDBRANCH  23  24
DOCKED: ENDBRANCH  22  23
DOCKED: ENDBRANCH   1  22
DOCKED: TORSDOF 11
DOCKED: TER
DOCKED: ENDMDL
________________________________________________________________________________


	BEGINNING GENETIC ALGORITHM DOCKING 53 of 100
Run: 53 Seed: 1153515690 1708170544 [ Run 53 of 100 GA/GALS ]
Beginning LAMARCKIAN GENETIC ALGORITHM (LGA), with a maximum of 2500000 energy evaluations.

Final-Value: -17.525


	FINAL GENETIC ALGORITHM DOCKED STATE
	_______________________________________________


Detailed state:  trans 27.595 -16.422 -0.524 quatxyzw -0.655686 0.403601 -0.599387 0.218898 center 0.459 0.118 0.005 ntor 11 -23.2725 -143.9185 30.1799 93.3403 -92.6411 -91.5897 176.2627 -138.5944 170.5916 176.1403 75.1921
State:	 27.595 -16.422  -0.524  -0.672  0.414 -0.614 154.711    -23.27 -143.92   30.18   93.34  -92.64  -91.59  176.26 -138.59  170.59  176.14   75.19

DOCKED: MODEL       53
DOCKED: USER    Run = 53
DOCKED: USER    DPF = ligand_dock.biased.dpf
DOCKED: USER  
DOCKED: USER    Estimated Free Energy of Binding    =  -11.31 kcal/mol  [=(1)+(2)+(3)-(4)]
DOCKED: USER    Estimated Inhibition Constant, Ki   =    5.16 nM (nanomolar)  [Temperature = 298.15 K]
DOCKED: USER    
DOCKED: USER    (1) Final Intermolecular Energy     =  -14.59 kcal/mol
DOCKED: USER        vdW + Hbond + desolv Energy     =  -14.59 kcal/mol
DOCKED: USER        Electrostatic Energy            =   +0.00 kcal/mol
DOCKED: USER    (2) Final Total Internal Energy     =   -2.94 kcal/mol
DOCKED: USER    (3) Torsional Free Energy           =   +3.28 kcal/mol
DOCKED: USER    (4) Unbound System's Energy  [=(2)] =   -2.94 kcal/mol
DOCKED: USER    
DOCKED: USER    
DOCKED: USER    NEWDPF move ligand.pdbqt
DOCKED: USER    NEWDPF about 0.459000 0.118000 0.005000
DOCKED: USER    NEWDPF tran0 27.594946 -16.421919 -0.523632
DOCKED: USER    NEWDPF quaternion0 -0.655686 0.403601 -0.599387 0.218898
DOCKED: USER    NEWDPF axisangle0 -0.671983 0.413633 -0.614285 154.711386
DOCKED: USER    NEWDPF quat0 -0.671983 0.413633 -0.614285 154.711386
DOCKED: USER    NEWDPF dihe0 -23.27 -143.92 30.18 93.34 -92.64 -91.59 176.26 -138.59 170.59 176.14 75.19 
DOCKED: USER  keepresnum = 1 
DOCKED: USER  
DOCKED: REMARK  Name = 
DOCKED: REMARK  11 active torsions:
DOCKED: REMARK  status: ('A' for Active; 'I' for Inactive)
DOCKED: REMARK    1  A    between atoms: C_2  and  C_5
DOCKED: REMARK    2  A    between atoms: N_3  and  O_4
DOCKED: REMARK    3  A    between atoms: C_6  and  C_7
DOCKED: REMARK    4  A    between atoms: C_10  and  C_11
DOCKED: REMARK    5  A    between atoms: C_11  and  N_12
DOCKED: REMARK    6  A    between atoms: N_12  and  C_13
DOCKED: REMARK    7  A    between atoms: N_12  and  C_16
DOCKED: REMARK    8  A    between atoms: C_13  and  C_14
DOCKED: REMARK    9  A    between atoms: C_14  and  O_15
DOCKED: REMARK   10  A    between atoms: C_16  and  C_17
DOCKED: REMARK   11  A    between atoms: C_17  and  C_18
DOCKED: REMARK                            x       y       z     vdW  Elec       q    Type
DOCKED: REMARK                         _______ _______ _______ _____ _____    ______ ____
DOCKED: USER                              x       y       z     vdW  Elec       q    Type
DOCKED: USER                           _______ _______ _______ _____ _____    ______ ____
DOCKED: ROOT
DOCKED: ATOM      1  N   UNL     1      28.609 -15.479  -1.175 -0.18 -0.00    +0.000 N 
DOCKED: ATOM      2  H   UNL     1      27.992 -15.063  -0.478 -0.00 -0.00    +0.000 HD
DOCKED: ENDROOT
DOCKED: BRANCH   1   3
DOCKED: ATOM      3  C   UNL     1      28.346 -16.934  -1.216 -0.35 -0.00    +0.000 C 
DOCKED: BRANCH   3   7
DOCKED: ATOM      4  C   UNL     1      24.096 -17.710  -0.977 -0.68 -0.00    +0.000 A 
DOCKED: ATOM      5  C   UNL     1      24.635 -17.037  -2.085 -0.46 -0.00    +0.000 A 
DOCKED: ATOM      6  C   UNL     1      26.007 -16.776  -2.162 -0.43 -0.00    +0.000 A 
DOCKED: ATOM      7  C   UNL     1      26.865 -17.194  -1.134 -0.44 -0.00    +0.000 A 
DOCKED: ATOM      8  C   UNL     1      26.336 -17.884  -0.035 -0.55 -0.00    +0.000 A 
DOCKED: ATOM      9  C   UNL     1      24.965 -18.145   0.043 -0.57 -0.00    +0.000 A 
DOCKED: BRANCH   4  11
DOCKED: ATOM     10  C   UNL     1      22.106 -19.202  -1.062 -0.77 -0.00    +0.000 C 
DOCKED: ATOM     11  C   UNL     1      22.637 -17.975  -0.946 -0.78 -0.00    +0.000 C 
DOCKED: BRANCH  10  13
DOCKED: ATOM     12  O   UNL     1      20.054 -19.738  -2.085 -1.88 -0.00    +0.000 OA
DOCKED: ATOM     13  C   UNL     1      20.653 -19.462  -1.012 -0.89 -0.00    +0.000 C 
DOCKED: ATOM     14  N   UNL     1      19.903 -19.378   0.208 -0.73 -0.00    +0.000 N 
DOCKED: ATOM     15  H   UNL     1      20.340 -19.057   1.030 -0.15 -0.00    +0.000 HD
DOCKED: BRANCH  14  16
DOCKED: ATOM     16  O   UNL     1      18.598 -19.738   0.232 -0.79 -0.00    +0.000 OA
DOCKED: ATOM     17  H   UNL     1      18.227 -19.674  -0.662 -0.45 -0.00    +0.000 HD
DOCKED: ENDBRANCH  14  16
DOCKED: ENDBRANCH  10  13
DOCKED: ENDBRANCH   4  11
DOCKED: ENDBRANCH   3   7
DOCKED: ENDBRANCH   1   3
DOCKED: BRANCH   1  18
DOCKED: ATOM     18  C   UNL     1      29.985 -15.190  -0.706 -0.12 -0.00    +0.000 C 
DOCKED: BRANCH  18  19
DOCKED: ATOM     19  C   UNL     1      30.159 -15.469   0.795 -0.03 -0.00    +0.000 C 
DOCKED: BRANCH  19  20
DOCKED: ATOM     20  O   UNL     1      29.201 -14.781   1.555 -0.21 -0.00    +0.000 OA
DOCKED: ATOM     21  H   UNL     1      29.065 -15.242   2.397 -1.94 -0.00    +0.000 HD
DOCKED: ENDBRANCH  19  20
DOCKED: ENDBRANCH  18  19
DOCKED: ENDBRANCH   1  18
DOCKED: BRANCH   1  22
DOCKED: ATOM     22  C   UNL     1      28.243 -14.812  -2.449 -0.19 -0.00    +0.000 C 
DOCKED: BRANCH  22  23
DOCKED: ATOM     23  C   UNL     1      26.922 -14.021  -2.390 -0.27 -0.00    +0.000 C 
DOCKED: BRANCH  23  24
DOCKED: ATOM     24  C   UNL     1      26.727 -13.437  -1.023 -0.17 -0.00    +0.000 A 
DOCKED: ATOM     25  C   UNL     1      26.064 -14.029   0.047 -0.22 -0.00    +0.000 A 
DOCKED: ATOM     26  N   UNL     1      26.014 -13.181   1.099 -0.34 -0.00    +0.000 N 
DOCKED: ATOM     27  C   UNL     1      26.627 -12.054   0.698 -0.26 -0.00    +0.000 A 
DOCKED: ATOM     28  C   UNL     1      27.071 -12.170  -0.595 -0.12 -0.00    +0.000 A 
DOCKED: ATOM     29  C   UNL     1      27.716 -11.120  -1.248 -0.09 -0.00    +0.000 A 
DOCKED: ATOM     30  C   UNL     1      27.912  -9.925  -0.533 -0.08 +0.00    +0.000 A 
DOCKED: ATOM     31  C   UNL     1      27.461  -9.806   0.801 -0.15 +0.00    +0.000 A 
DOCKED: ATOM     32  C   UNL     1      26.806 -10.881   1.430 -0.27 +0.00    +0.000 A 
DOCKED: ATOM     33  H   UNL     1      25.611 -13.354   1.981 -0.03 -0.00    +0.000 HD
DOCKED: ENDBRANCH  23  24
DOCKED: ENDBRANCH  22  23
DOCKED: ENDBRANCH   1  22
DOCKED: TORSDOF 11
DOCKED: TER
DOCKED: ENDMDL
________________________________________________________________________________


	BEGINNING GENETIC ALGORITHM DOCKING 54 of 100
Run: 54 Seed: 1438298511 347157228 [ Run 54 of 100 GA/GALS ]
Beginning LAMARCKIAN GENETIC ALGORITHM (LGA), with a maximum of 2500000 energy evaluations.

Final-Value: -17.539


	FINAL GENETIC ALGORITHM DOCKED STATE
	_______________________________________________


Detailed state:  trans 27.187 -16.472 -2.150 quatxyzw 0.048683 -0.392876 -0.886662 0.238973 center 0.459 0.118 0.005 ntor 11 -2.6605 -117.5378 95.3149 45.1110 70.4115 -82.4244 8.4481 102.3747 -77.0346 -136.0959 52.4929
State:	 27.187 -16.472  -2.150   0.050 -0.405 -0.913 152.348     -2.66 -117.54   95.31   45.11   70.41  -82.42    8.45  102.37  -77.03 -136.10   52.49

DOCKED: MODEL       54
DOCKED: USER    Run = 54
DOCKED: USER    DPF = ligand_dock.biased.dpf
DOCKED: USER  
DOCKED: USER    Estimated Free Energy of Binding    =  -11.29 kcal/mol  [=(1)+(2)+(3)-(4)]
DOCKED: USER    Estimated Inhibition Constant, Ki   =    5.33 nM (nanomolar)  [Temperature = 298.15 K]
DOCKED: USER    
DOCKED: USER    (1) Final Intermolecular Energy     =  -14.57 kcal/mol
DOCKED: USER        vdW + Hbond + desolv Energy     =  -14.57 kcal/mol
DOCKED: USER        Electrostatic Energy            =   +0.00 kcal/mol
DOCKED: USER    (2) Final Total Internal Energy     =   -2.97 kcal/mol
DOCKED: USER    (3) Torsional Free Energy           =   +3.28 kcal/mol
DOCKED: USER    (4) Unbound System's Energy  [=(2)] =   -2.97 kcal/mol
DOCKED: USER    
DOCKED: USER    
DOCKED: USER    NEWDPF move ligand.pdbqt
DOCKED: USER    NEWDPF about 0.459000 0.118000 0.005000
DOCKED: USER    NEWDPF tran0 27.187169 -16.471755 -2.150029
DOCKED: USER    NEWDPF quaternion0 0.048683 -0.392876 -0.886662 0.238973
DOCKED: USER    NEWDPF axisangle0 0.050136 -0.404599 -0.913119 152.348147
DOCKED: USER    NEWDPF quat0 0.050136 -0.404599 -0.913119 152.348147
DOCKED: USER    NEWDPF dihe0 -2.66 -117.54 95.31 45.11 70.41 -82.42 8.45 102.37 -77.03 -136.10 52.49 
DOCKED: USER  keepresnum = 1 
DOCKED: USER  
DOCKED: REMARK  Name = 
DOCKED: REMARK  11 active torsions:
DOCKED: REMARK  status: ('A' for Active; 'I' for Inactive)
DOCKED: REMARK    1  A    between atoms: C_2  and  C_5
DOCKED: REMARK    2  A    between atoms: N_3  and  O_4
DOCKED: REMARK    3  A    between atoms: C_6  and  C_7
DOCKED: REMARK    4  A    between atoms: C_10  and  C_11
DOCKED: REMARK    5  A    between atoms: C_11  and  N_12
DOCKED: REMARK    6  A    between atoms: N_12  and  C_13
DOCKED: REMARK    7  A    between atoms: N_12  and  C_16
DOCKED: REMARK    8  A    between atoms: C_13  and  C_14
DOCKED: REMARK    9  A    between atoms: C_14  and  O_15
DOCKED: REMARK   10  A    between atoms: C_16  and  C_17
DOCKED: REMARK   11  A    between atoms: C_17  and  C_18
DOCKED: REMARK                            x       y       z     vdW  Elec       q    Type
DOCKED: REMARK                         _______ _______ _______ _____ _____    ______ ____
DOCKED: USER                              x       y       z     vdW  Elec       q    Type
DOCKED: USER                           _______ _______ _______ _____ _____    ______ ____
DOCKED: ROOT
DOCKED: ATOM      1  N   UNL     1      28.566 -16.115  -2.710 -0.24 -0.00    +0.000 N 
DOCKED: ATOM      2  H   UNL     1      27.913 -16.547  -3.364 -0.02 -0.00    +0.000 HD
DOCKED: ENDROOT
DOCKED: BRANCH   1   3
DOCKED: ATOM      3  C   UNL     1      27.858 -15.889  -1.431 -0.31 -0.00    +0.000 C 
DOCKED: BRANCH   3   7
DOCKED: ATOM      4  C   UNL     1      24.298 -18.341  -1.235 -0.64 -0.00    +0.000 A 
DOCKED: ATOM      5  C   UNL     1      25.377 -18.582  -0.369 -0.54 -0.00    +0.000 A 
DOCKED: ATOM      6  C   UNL     1      26.533 -17.798  -0.435 -0.53 -0.00    +0.000 A 
DOCKED: ATOM      7  C   UNL     1      26.625 -16.751  -1.364 -0.43 -0.00    +0.000 A 
DOCKED: ATOM      8  C   UNL     1      25.543 -16.492  -2.217 -0.50 -0.00    +0.000 A 
DOCKED: ATOM      9  C   UNL     1      24.388 -17.276  -2.153 -0.34 -0.00    +0.000 A 
DOCKED: BRANCH   4  11
DOCKED: ATOM     10  C   UNL     1      21.870 -18.708  -0.832 -0.84 -0.00    +0.000 C 
DOCKED: ATOM     11  C   UNL     1      23.088 -19.191  -1.118 -0.77 -0.00    +0.000 C 
DOCKED: BRANCH  10  13
DOCKED: ATOM     12  O   UNL     1      19.969 -19.734  -1.770 -1.85 -0.00    +0.000 OA
DOCKED: ATOM     13  C   UNL     1      20.666 -19.556  -0.735 -0.88 -0.00    +0.000 C 
DOCKED: ATOM     14  N   UNL     1      20.249 -20.154   0.500 -0.71 -0.00    +0.000 N 
DOCKED: ATOM     15  H   UNL     1      20.722 -19.934   1.334 -0.39 -0.00    +0.000 HD
DOCKED: BRANCH  14  16
DOCKED: ATOM     16  O   UNL     1      19.207 -21.019   0.522 -0.76 -0.00    +0.000 OA
DOCKED: ATOM     17  H   UNL     1      18.829 -21.094  -0.369 -0.33 -0.00    +0.000 HD
DOCKED: ENDBRANCH  14  16
DOCKED: ENDBRANCH  10  13
DOCKED: ENDBRANCH   4  11
DOCKED: ENDBRANCH   3   7
DOCKED: ENDBRANCH   1   3
DOCKED: BRANCH   1  18
DOCKED: ATOM     18  C   UNL     1      28.966 -14.836  -3.342 -0.17 -0.00    +0.000 C 
DOCKED: BRANCH  18  19
DOCKED: ATOM     19  C   UNL     1      28.339 -14.651  -4.733 -0.31 -0.00    +0.000 C 
DOCKED: BRANCH  19  20
DOCKED: ATOM     20  O   UNL     1      27.347 -15.614  -4.974 -0.88 +0.00    +0.000 OA
DOCKED: ATOM     21  H   UNL     1      26.987 -15.490  -5.867 -0.07 +0.00    +0.000 HD
DOCKED: ENDBRANCH  19  20
DOCKED: ENDBRANCH  18  19
DOCKED: ENDBRANCH   1  18
DOCKED: BRANCH   1  22
DOCKED: ATOM     22  C   UNL     1      29.667 -17.101  -2.569 -0.23 -0.00    +0.000 C 
DOCKED: BRANCH  22  23
DOCKED: ATOM     23  C   UNL     1      30.906 -16.789  -3.430 -0.15 -0.00    +0.000 C 
DOCKED: BRANCH  23  24
DOCKED: ATOM     24  C   UNL     1      30.739 -17.358  -4.806 -0.22 -0.00    +0.000 A 
DOCKED: ATOM     25  C   UNL     1      30.377 -16.662  -5.956 -0.28 -0.00    +0.000 A 
DOCKED: ATOM     26  N   UNL     1      30.245 -17.511  -7.000 -0.30 -0.00    +0.000 N 
DOCKED: ATOM     27  C   UNL     1      30.507 -18.738  -6.516 -0.36 -0.00    +0.000 A 
DOCKED: ATOM     28  C   UNL     1      30.806 -18.687  -5.179 -0.28 -0.00    +0.000 A 
DOCKED: ATOM     29  C   UNL     1      31.087 -19.837  -4.442 -0.20 -0.00    +0.000 A 
DOCKED: ATOM     30  C   UNL     1      31.065 -21.070  -5.119 -0.28 -0.00    +0.000 A 
DOCKED: ATOM     31  C   UNL     1      30.762 -21.124  -6.499 -0.34 -0.00    +0.000 A 
DOCKED: ATOM     32  C   UNL     1      30.475 -19.947  -7.213 -0.41 -0.00    +0.000 A 
DOCKED: ATOM     33  H   UNL     1      30.007 -17.279  -7.926 -0.04 -0.00    +0.000 HD
DOCKED: ENDBRANCH  23  24
DOCKED: ENDBRANCH  22  23
DOCKED: ENDBRANCH   1  22
DOCKED: TORSDOF 11
DOCKED: TER
DOCKED: ENDMDL
________________________________________________________________________________


	BEGINNING GENETIC ALGORITHM DOCKING 55 of 100
Run: 55 Seed: 536722859 1005061618 [ Run 55 of 100 GA/GALS ]
Beginning LAMARCKIAN GENETIC ALGORITHM (LGA), with a maximum of 2500000 energy evaluations.

Final-Value: -18.641


	FINAL GENETIC ALGORITHM DOCKED STATE
	_______________________________________________


Detailed state:  trans 27.689 -16.057 -0.210 quatxyzw 0.708084 -0.665274 0.172986 0.161567 center 0.459 0.118 0.005 ntor 11 -179.5430 50.9312 153.1868 -37.4862 18.9201 -24.7244 -179.3395 -86.0930 167.7330 55.5303 50.8642
State:	 27.689 -16.057  -0.210   0.718 -0.674  0.175 161.404   -179.54   50.93  153.19  -37.49   18.92  -24.72 -179.34  -86.09  167.73   55.53   50.86

DOCKED: MODEL       55
DOCKED: USER    Run = 55
DOCKED: USER    DPF = ligand_dock.biased.dpf
DOCKED: USER  
DOCKED: USER    Estimated Free Energy of Binding    =  -13.35 kcal/mol  [=(1)+(2)+(3)-(4)]
DOCKED: USER    Estimated Inhibition Constant, Ki   =  162.67 pM (picomolar)  [Temperature = 298.15 K]
DOCKED: USER    
DOCKED: USER    (1) Final Intermolecular Energy     =  -16.64 kcal/mol
DOCKED: USER        vdW + Hbond + desolv Energy     =  -16.64 kcal/mol
DOCKED: USER        Electrostatic Energy            =   +0.00 kcal/mol
DOCKED: USER    (2) Final Total Internal Energy     =   -2.01 kcal/mol
DOCKED: USER    (3) Torsional Free Energy           =   +3.28 kcal/mol
DOCKED: USER    (4) Unbound System's Energy  [=(2)] =   -2.01 kcal/mol
DOCKED: USER    
DOCKED: USER    
DOCKED: USER    NEWDPF move ligand.pdbqt
DOCKED: USER    NEWDPF about 0.459000 0.118000 0.005000
DOCKED: USER    NEWDPF tran0 27.689206 -16.056943 -0.209593
DOCKED: USER    NEWDPF quaternion0 0.708084 -0.665274 0.172986 0.161567
DOCKED: USER    NEWDPF axisangle0 0.717511 -0.674131 0.175289 161.404242
DOCKED: USER    NEWDPF quat0 0.717511 -0.674131 0.175289 161.404242
DOCKED: USER    NEWDPF dihe0 -179.54 50.93 153.19 -37.49 18.92 -24.72 -179.34 -86.09 167.73 55.53 50.86 
DOCKED: USER  keepresnum = 1 
DOCKED: USER  
DOCKED: REMARK  Name = 
DOCKED: REMARK  11 active torsions:
DOCKED: REMARK  status: ('A' for Active; 'I' for Inactive)
DOCKED: REMARK    1  A    between atoms: C_2  and  C_5
DOCKED: REMARK    2  A    between atoms: N_3  and  O_4
DOCKED: REMARK    3  A    between atoms: C_6  and  C_7
DOCKED: REMARK    4  A    between atoms: C_10  and  C_11
DOCKED: REMARK    5  A    between atoms: C_11  and  N_12
DOCKED: REMARK    6  A    between atoms: N_12  and  C_13
DOCKED: REMARK    7  A    between atoms: N_12  and  C_16
DOCKED: REMARK    8  A    between atoms: C_13  and  C_14
DOCKED: REMARK    9  A    between atoms: C_14  and  O_15
DOCKED: REMARK   10  A    between atoms: C_16  and  C_17
DOCKED: REMARK   11  A    between atoms: C_17  and  C_18
DOCKED: REMARK                            x       y       z     vdW  Elec       q    Type
DOCKED: REMARK                         _______ _______ _______ _____ _____    ______ ____
DOCKED: USER                              x       y       z     vdW  Elec       q    Type
DOCKED: USER                           _______ _______ _______ _____ _____    ______ ____
DOCKED: ROOT
DOCKED: ATOM      1  N   UNL     1      28.725 -15.058   0.312 -0.20 -0.00    +0.000 N 
DOCKED: ATOM      2  H   UNL     1      28.279 -15.651   1.012 -0.56 -0.00    +0.000 HD
DOCKED: ENDROOT
DOCKED: BRANCH   1   3
DOCKED: ATOM      3  C   UNL     1      28.253 -15.486  -1.023 -0.25 -0.00    +0.000 C 
DOCKED: BRANCH   3   7
DOCKED: ATOM      4  C   UNL     1      24.660 -17.863  -0.622 -0.66 -0.00    +0.000 A 
DOCKED: ATOM      5  C   UNL     1      25.834 -18.227   0.057 -0.59 -0.00    +0.000 A 
DOCKED: ATOM      6  C   UNL     1      26.999 -17.467  -0.076 -0.43 -0.00    +0.000 A 
DOCKED: ATOM      7  C   UNL     1      27.008 -16.322  -0.887 -0.38 -0.00    +0.000 A 
DOCKED: ATOM      8  C   UNL     1      25.834 -15.942  -1.551 -0.45 -0.00    +0.000 A 
DOCKED: ATOM      9  C   UNL     1      24.668 -16.701  -1.419 -0.56 -0.00    +0.000 A 
DOCKED: BRANCH   4  11
DOCKED: ATOM     10  C   UNL     1      22.261 -18.406  -1.002 -0.81 -0.00    +0.000 C 
DOCKED: ATOM     11  C   UNL     1      23.444 -18.694  -0.439 -0.78 -0.00    +0.000 C 
DOCKED: BRANCH  10  13
DOCKED: ATOM     12  O   UNL     1      20.283 -19.393  -1.813 -1.65 -0.00    +0.000 OA
DOCKED: ATOM     13  C   UNL     1      21.059 -19.246  -0.831 -0.88 -0.00    +0.000 C 
DOCKED: ATOM     14  N   UNL     1      20.734 -19.869   0.418 -0.66 -0.00    +0.000 N 
DOCKED: ATOM     15  H   UNL     1      21.273 -19.673   1.218 -0.47 -0.00    +0.000 HD
DOCKED: BRANCH  14  16
DOCKED: ATOM     16  O   UNL     1      19.688 -20.726   0.502 -0.77 -0.00    +0.000 OA
DOCKED: ATOM     17  H   UNL     1      19.604 -21.047   1.414 -0.11 -0.00    +0.000 HD
DOCKED: ENDBRANCH  14  16
DOCKED: ENDBRANCH  10  13
DOCKED: ENDBRANCH   4  11
DOCKED: ENDBRANCH   3   7
DOCKED: ENDBRANCH   1   3
DOCKED: BRANCH   1  18
DOCKED: ATOM     18  C   UNL     1      30.181 -15.288   0.472 -0.14 -0.00    +0.000 C 
DOCKED: BRANCH  18  19
DOCKED: ATOM     19  C   UNL     1      30.796 -14.392   1.558 -0.12 -0.00    +0.000 C 
DOCKED: BRANCH  19  20
DOCKED: ATOM     20  O   UNL     1      30.347 -14.760   2.835 -0.25 -0.00    +0.000 OA
DOCKED: ATOM     21  H   UNL     1      29.624 -15.401   2.750 -1.73 -0.00    +0.000 HD
DOCKED: ENDBRANCH  19  20
DOCKED: ENDBRANCH  18  19
DOCKED: ENDBRANCH   1  18
DOCKED: BRANCH   1  22
DOCKED: ATOM     22  C   UNL     1      28.281 -13.682   0.644 -0.19 -0.00    +0.000 C 
DOCKED: BRANCH  22  23
DOCKED: ATOM     23  C   UNL     1      27.065 -13.622   1.588 -0.31 -0.00    +0.000 C 
DOCKED: BRANCH  23  24
DOCKED: ATOM     24  C   UNL     1      27.512 -13.701   3.017 -0.35 -0.00    +0.000 A 
DOCKED: ATOM     25  C   UNL     1      27.741 -14.859   3.754 -0.28 -0.00    +0.000 A 
DOCKED: ATOM     26  N   UNL     1      28.058 -14.550   5.032 -0.58 -0.00    +0.000 N 
DOCKED: ATOM     27  C   UNL     1      28.016 -13.209   5.111 -0.44 -0.00    +0.000 A 
DOCKED: ATOM     28  C   UNL     1      27.680 -12.654   3.903 -0.31 -0.00    +0.000 A 
DOCKED: ATOM     29  C   UNL     1      27.544 -11.277   3.737 -0.26 +0.00    +0.000 A 
DOCKED: ATOM     30  C   UNL     1      27.775 -10.457   4.856 -0.32 +0.00    +0.000 A 
DOCKED: ATOM     31  C   UNL     1      28.127 -11.026   6.101 -0.32 +0.00    +0.000 A 
DOCKED: ATOM     32  C   UNL     1      28.248 -12.420   6.238 -0.37 +0.00    +0.000 A 
DOCKED: ATOM     33  H   UNL     1      28.275 -15.180   5.757 -0.45 -0.00    +0.000 HD
DOCKED: ENDBRANCH  23  24
DOCKED: ENDBRANCH  22  23
DOCKED: ENDBRANCH   1  22
DOCKED: TORSDOF 11
DOCKED: TER
DOCKED: ENDMDL
________________________________________________________________________________


	BEGINNING GENETIC ALGORITHM DOCKING 56 of 100
Run: 56 Seed: 513759266 271921628 [ Run 56 of 100 GA/GALS ]
Beginning LAMARCKIAN GENETIC ALGORITHM (LGA), with a maximum of 2500000 energy evaluations.

Final-Value: -17.117


	FINAL GENETIC ALGORITHM DOCKED STATE
	_______________________________________________


Detailed state:  trans 27.963 -17.146 -0.313 quatxyzw -0.710737 0.644972 -0.262280 -0.100362 center 0.459 0.118 0.005 ntor 11 8.6701 64.7784 0.1256 171.8525 158.9720 144.5309 -22.1300 -81.8589 -0.6609 39.0068 74.9473
State:	 27.963 -17.146  -0.313  -0.714  0.648 -0.264 -168.480      8.67   64.78    0.13  171.85  158.97  144.53  -22.13  -81.86   -0.66   39.01   74.95

DOCKED: MODEL       56
DOCKED: USER    Run = 56
DOCKED: USER    DPF = ligand_dock.biased.dpf
DOCKED: USER  
DOCKED: USER    Estimated Free Energy of Binding    =  -10.86 kcal/mol  [=(1)+(2)+(3)-(4)]
DOCKED: USER    Estimated Inhibition Constant, Ki   =   10.90 nM (nanomolar)  [Temperature = 298.15 K]
DOCKED: USER    
DOCKED: USER    (1) Final Intermolecular Energy     =  -14.14 kcal/mol
DOCKED: USER        vdW + Hbond + desolv Energy     =  -14.14 kcal/mol
DOCKED: USER        Electrostatic Energy            =   +0.00 kcal/mol
DOCKED: USER    (2) Final Total Internal Energy     =   -2.97 kcal/mol
DOCKED: USER    (3) Torsional Free Energy           =   +3.28 kcal/mol
DOCKED: USER    (4) Unbound System's Energy  [=(2)] =   -2.97 kcal/mol
DOCKED: USER    
DOCKED: USER    
DOCKED: USER    NEWDPF move ligand.pdbqt
DOCKED: USER    NEWDPF about 0.459000 0.118000 0.005000
DOCKED: USER    NEWDPF tran0 27.963324 -17.145565 -0.312650
DOCKED: USER    NEWDPF quaternion0 -0.710737 0.644972 -0.262280 -0.100362
DOCKED: USER    NEWDPF axisangle0 -0.714344 0.648245 -0.263611 -168.479924
DOCKED: USER    NEWDPF quat0 -0.714344 0.648245 -0.263611 -168.479924
DOCKED: USER    NEWDPF dihe0 8.67 64.78 0.13 171.85 158.97 144.53 -22.13 -81.86 -0.66 39.01 74.95 
DOCKED: USER  keepresnum = 1 
DOCKED: USER  
DOCKED: REMARK  Name = 
DOCKED: REMARK  11 active torsions:
DOCKED: REMARK  status: ('A' for Active; 'I' for Inactive)
DOCKED: REMARK    1  A    between atoms: C_2  and  C_5
DOCKED: REMARK    2  A    between atoms: N_3  and  O_4
DOCKED: REMARK    3  A    between atoms: C_6  and  C_7
DOCKED: REMARK    4  A    between atoms: C_10  and  C_11
DOCKED: REMARK    5  A    between atoms: C_11  and  N_12
DOCKED: REMARK    6  A    between atoms: N_12  and  C_13
DOCKED: REMARK    7  A    between atoms: N_12  and  C_16
DOCKED: REMARK    8  A    between atoms: C_13  and  C_14
DOCKED: REMARK    9  A    between atoms: C_14  and  O_15
DOCKED: REMARK   10  A    between atoms: C_16  and  C_17
DOCKED: REMARK   11  A    between atoms: C_17  and  C_18
DOCKED: REMARK                            x       y       z     vdW  Elec       q    Type
DOCKED: REMARK                         _______ _______ _______ _____ _____    ______ ____
DOCKED: USER                              x       y       z     vdW  Elec       q    Type
DOCKED: USER                           _______ _______ _______ _____ _____    ______ ____
DOCKED: ROOT
DOCKED: ATOM      1  N   UNL     1      28.996 -16.072   0.039 -0.21 -0.00    +0.000 N 
DOCKED: ATOM      2  H   UNL     1      28.503 -16.497   0.825 -0.59 -0.00    +0.000 HD
DOCKED: ENDROOT
DOCKED: BRANCH   1   3
DOCKED: ATOM      3  C   UNL     1      28.579 -16.768  -1.198 -0.32 -0.00    +0.000 C 
DOCKED: BRANCH   3   7
DOCKED: ATOM      4  C   UNL     1      24.316 -17.500  -1.102 -0.65 -0.00    +0.000 A 
DOCKED: ATOM      5  C   UNL     1      25.183 -18.235  -0.278 -0.63 -0.00    +0.000 A 
DOCKED: ATOM      6  C   UNL     1      26.562 -18.008  -0.312 -0.54 -0.00    +0.000 A 
DOCKED: ATOM      7  C   UNL     1      27.097 -17.033  -1.167 -0.42 -0.00    +0.000 A 
DOCKED: ATOM      8  C   UNL     1      26.235 -16.282  -1.977 -0.44 -0.00    +0.000 A 
DOCKED: ATOM      9  C   UNL     1      24.856 -16.509  -1.945 -0.51 -0.00    +0.000 A 
DOCKED: BRANCH   4  11
DOCKED: ATOM     10  C   UNL     1      22.337 -18.837  -0.402 -0.82 -0.00    +0.000 C 
DOCKED: ATOM     11  C   UNL     1      22.859 -17.768  -1.021 -0.76 -0.00    +0.000 C 
DOCKED: BRANCH  10  13
DOCKED: ATOM     12  O   UNL     1      20.094 -18.237  -0.793 -2.02 -0.00    +0.000 OA
DOCKED: ATOM     13  C   UNL     1      20.885 -19.089  -0.309 -0.85 -0.00    +0.000 C 
DOCKED: ATOM     14  N   UNL     1      20.351 -20.251   0.340 -0.70 -0.00    +0.000 N 
DOCKED: ATOM     15  H   UNL     1      20.954 -20.866   0.816 -0.56 -0.00    +0.000 HD
DOCKED: BRANCH  14  16
DOCKED: ATOM     16  O   UNL     1      19.021 -20.504   0.301 -0.81 -0.00    +0.000 OA
DOCKED: ATOM     17  H   UNL     1      18.592 -19.888  -0.314 -0.13 -0.00    +0.000 HD
DOCKED: ENDBRANCH  14  16
DOCKED: ENDBRANCH  10  13
DOCKED: ENDBRANCH   4  11
DOCKED: ENDBRANCH   3   7
DOCKED: ENDBRANCH   1   3
DOCKED: BRANCH   1  18
DOCKED: ATOM     18  C   UNL     1      30.436 -16.280   0.320 -0.08 -0.00    +0.000 C 
DOCKED: BRANCH  18  19
DOCKED: ATOM     19  C   UNL     1      31.152 -17.015  -0.824 -0.15 -0.00    +0.000 C 
DOCKED: BRANCH  19  20
DOCKED: ATOM     20  O   UNL     1      31.003 -18.405  -0.706 -0.22 -0.00    +0.000 OA
DOCKED: ATOM     21  H   UNL     1      30.422 -18.605   0.046 -0.47 -0.00    +0.000 HD
DOCKED: ENDBRANCH  19  20
DOCKED: ENDBRANCH  18  19
DOCKED: ENDBRANCH   1  18
DOCKED: BRANCH   1  22
DOCKED: ATOM     22  C   UNL     1      28.568 -14.651   0.049 -0.20 -0.00    +0.000 C 
DOCKED: BRANCH  22  23
DOCKED: ATOM     23  C   UNL     1      29.278 -13.771  -0.998 -0.08 -0.00    +0.000 C 
DOCKED: BRANCH  23  24
DOCKED: ATOM     24  C   UNL     1      28.512 -13.776  -2.286 -0.10 -0.00    +0.000 A 
DOCKED: ATOM     25  C   UNL     1      27.282 -13.171  -2.525 -0.16 -0.00    +0.000 A 
DOCKED: ATOM     26  N   UNL     1      26.855 -13.449  -3.778 -0.26 -0.00    +0.000 N 
DOCKED: ATOM     27  C   UNL     1      27.797 -14.236  -4.326 -0.26 -0.00    +0.000 A 
DOCKED: ATOM     28  C   UNL     1      28.822 -14.463  -3.444 -0.13 -0.00    +0.000 A 
DOCKED: ATOM     29  C   UNL     1      29.908 -15.275  -3.770 -0.12 -0.00    +0.000 A 
DOCKED: ATOM     30  C   UNL     1      29.930 -15.855  -5.052 -0.23 -0.00    +0.000 A 
DOCKED: ATOM     31  C   UNL     1      28.877 -15.617  -5.964 -0.33 -0.00    +0.000 A 
DOCKED: ATOM     32  C   UNL     1      27.791 -14.800  -5.602 -0.38 -0.00    +0.000 A 
DOCKED: ATOM     33  H   UNL     1      26.023 -13.138  -4.202 -0.02 -0.00    +0.000 HD
DOCKED: ENDBRANCH  23  24
DOCKED: ENDBRANCH  22  23
DOCKED: ENDBRANCH   1  22
DOCKED: TORSDOF 11
DOCKED: TER
DOCKED: ENDMDL
________________________________________________________________________________


	BEGINNING GENETIC ALGORITHM DOCKING 57 of 100
Run: 57 Seed: 603248259 340941918 [ Run 57 of 100 GA/GALS ]
Beginning LAMARCKIAN GENETIC ALGORITHM (LGA), with a maximum of 2500000 energy evaluations.

Final-Value: -16.697


	FINAL GENETIC ALGORITHM DOCKED STATE
	_______________________________________________


Detailed state:  trans 29.905 -16.510 -1.459 quatxyzw -0.866796 -0.039194 0.473551 0.151252 center 0.459 0.118 0.005 ntor 11 1.2192 129.7947 72.8581 33.5211 -161.6149 93.7567 6.1439 63.4261 -20.7880 8.8359 -152.6927
State:	 29.905 -16.510  -1.459  -0.877 -0.040  0.479 162.601      1.22  129.79   72.86   33.52 -161.61   93.76    6.14   63.43  -20.79    8.84 -152.69

DOCKED: MODEL       57
DOCKED: USER    Run = 57
DOCKED: USER    DPF = ligand_dock.biased.dpf
DOCKED: USER  
DOCKED: USER    Estimated Free Energy of Binding    =  -10.63 kcal/mol  [=(1)+(2)+(3)-(4)]
DOCKED: USER    Estimated Inhibition Constant, Ki   =   16.12 nM (nanomolar)  [Temperature = 298.15 K]
DOCKED: USER    
DOCKED: USER    (1) Final Intermolecular Energy     =  -13.91 kcal/mol
DOCKED: USER        vdW + Hbond + desolv Energy     =  -13.91 kcal/mol
DOCKED: USER        Electrostatic Energy            =   +0.00 kcal/mol
DOCKED: USER    (2) Final Total Internal Energy     =   -2.78 kcal/mol
DOCKED: USER    (3) Torsional Free Energy           =   +3.28 kcal/mol
DOCKED: USER    (4) Unbound System's Energy  [=(2)] =   -2.78 kcal/mol
DOCKED: USER    
DOCKED: USER    
DOCKED: USER    NEWDPF move ligand.pdbqt
DOCKED: USER    NEWDPF about 0.459000 0.118000 0.005000
DOCKED: USER    NEWDPF tran0 29.905363 -16.510390 -1.459233
DOCKED: USER    NEWDPF quaternion0 -0.866796 -0.039194 0.473551 0.151252
DOCKED: USER    NEWDPF axisangle0 -0.876885 -0.039650 0.479063 162.601025
DOCKED: USER    NEWDPF quat0 -0.876885 -0.039650 0.479063 162.601025
DOCKED: USER    NEWDPF dihe0 1.22 129.79 72.86 33.52 -161.61 93.76 6.14 63.43 -20.79 8.84 -152.69 
DOCKED: USER  keepresnum = 1 
DOCKED: USER  
DOCKED: REMARK  Name = 
DOCKED: REMARK  11 active torsions:
DOCKED: REMARK  status: ('A' for Active; 'I' for Inactive)
DOCKED: REMARK    1  A    between atoms: C_2  and  C_5
DOCKED: REMARK    2  A    between atoms: N_3  and  O_4
DOCKED: REMARK    3  A    between atoms: C_6  and  C_7
DOCKED: REMARK    4  A    between atoms: C_10  and  C_11
DOCKED: REMARK    5  A    between atoms: C_11  and  N_12
DOCKED: REMARK    6  A    between atoms: N_12  and  C_13
DOCKED: REMARK    7  A    between atoms: N_12  and  C_16
DOCKED: REMARK    8  A    between atoms: C_13  and  C_14
DOCKED: REMARK    9  A    between atoms: C_14  and  O_15
DOCKED: REMARK   10  A    between atoms: C_16  and  C_17
DOCKED: REMARK   11  A    between atoms: C_17  and  C_18
DOCKED: REMARK                            x       y       z     vdW  Elec       q    Type
DOCKED: REMARK                         _______ _______ _______ _____ _____    ______ ____
DOCKED: USER                              x       y       z     vdW  Elec       q    Type
DOCKED: USER                           _______ _______ _______ _____ _____    ______ ____
DOCKED: ROOT
DOCKED: ATOM      1  N   UNL     1      29.131 -15.284  -0.970 -0.14 -0.00    +0.000 N 
DOCKED: ATOM      2  H   UNL     1      30.145 -15.187  -1.017 +0.00 -0.00    +0.000 HD
DOCKED: ENDROOT
DOCKED: BRANCH   1   3
DOCKED: ATOM      3  C   UNL     1      28.769 -16.608  -1.523 -0.30 -0.00    +0.000 C 
DOCKED: BRANCH   3   7
DOCKED: ATOM      4  C   UNL     1      24.535 -17.308  -0.966 -0.62 -0.00    +0.000 A 
DOCKED: ATOM      5  C   UNL     1      25.475 -17.923  -0.123 -0.58 -0.00    +0.000 A 
DOCKED: ATOM      6  C   UNL     1      26.845 -17.706  -0.305 -0.49 -0.00    +0.000 A 
DOCKED: ATOM      7  C   UNL     1      27.297 -16.862  -1.330 -0.39 -0.00    +0.000 A 
DOCKED: ATOM      8  C   UNL     1      26.363 -16.229  -2.162 -0.42 -0.00    +0.000 A 
DOCKED: ATOM      9  C   UNL     1      24.994 -16.445  -1.981 -0.52 -0.00    +0.000 A 
DOCKED: BRANCH   4  11
DOCKED: ATOM     10  C   UNL     1      22.522 -18.765  -0.845 -0.83 -0.00    +0.000 C 
DOCKED: ATOM     11  C   UNL     1      23.093 -17.558  -0.726 -0.78 -0.00    +0.000 C 
DOCKED: BRANCH  10  13
DOCKED: ATOM     12  O   UNL     1      20.257 -18.129  -0.923 -2.14 -0.00    +0.000 OA
DOCKED: ATOM     13  C   UNL     1      21.090 -19.012  -0.586 -0.88 -0.00    +0.000 C 
DOCKED: ATOM     14  N   UNL     1      20.624 -20.203   0.061 -0.69 -0.00    +0.000 N 
DOCKED: ATOM     15  H   UNL     1      21.272 -20.848   0.425 -0.57 -0.00    +0.000 HD
DOCKED: BRANCH  14  16
DOCKED: ATOM     16  O   UNL     1      19.296 -20.444   0.173 -0.82 -0.00    +0.000 OA
DOCKED: ATOM     17  H   UNL     1      18.799 -19.727  -0.251 -0.09 -0.00    +0.000 HD
DOCKED: ENDBRANCH  14  16
DOCKED: ENDBRANCH  10  13
DOCKED: ENDBRANCH   4  11
DOCKED: ENDBRANCH   3   7
DOCKED: ENDBRANCH   1   3
DOCKED: BRANCH   1  18
DOCKED: ATOM     18  C   UNL     1      28.591 -14.183  -1.803 -0.13 -0.00    +0.000 C 
DOCKED: BRANCH  18  19
DOCKED: ATOM     19  C   UNL     1      29.654 -13.121  -2.125 -0.04 -0.00    +0.000 C 
DOCKED: BRANCH  19  20
DOCKED: ATOM     20  O   UNL     1      30.807 -13.304  -1.347 -0.02 -0.00    +0.000 OA
DOCKED: ATOM     21  H   UNL     1      31.260 -14.115  -1.626 +0.00 -0.00    +0.000 HD
DOCKED: ENDBRANCH  19  20
DOCKED: ENDBRANCH  18  19
DOCKED: ENDBRANCH   1  18
DOCKED: BRANCH   1  22
DOCKED: ATOM     22  C   UNL     1      28.808 -15.177   0.474 -0.18 -0.00    +0.000 C 
DOCKED: BRANCH  22  23
DOCKED: ATOM     23  C   UNL     1      27.372 -14.700   0.766 -0.29 -0.00    +0.000 C 
DOCKED: BRANCH  23  24
DOCKED: ATOM     24  C   UNL     1      27.397 -13.494   1.655 -0.27 -0.00    +0.000 A 
DOCKED: ATOM     25  C   UNL     1      27.275 -12.165   1.259 -0.22 -0.00    +0.000 A 
DOCKED: ATOM     26  N   UNL     1      27.422 -11.341   2.320 -0.24 +0.00    +0.000 N 
DOCKED: ATOM     27  C   UNL     1      27.650 -12.136   3.380 -0.26 +0.00    +0.000 A 
DOCKED: ATOM     28  C   UNL     1      27.648 -13.457   3.013 -0.33 -0.00    +0.000 A 
DOCKED: ATOM     29  C   UNL     1      27.891 -14.477   3.932 -0.48 -0.00    +0.000 A 
DOCKED: ATOM     30  C   UNL     1      28.131 -14.110   5.269 -0.46 -0.00    +0.000 A 
DOCKED: ATOM     31  C   UNL     1      28.127 -12.749   5.650 -0.42 -0.00    +0.000 A 
DOCKED: ATOM     32  C   UNL     1      27.887 -11.743   4.697 -0.32 +0.00    +0.000 A 
DOCKED: ATOM     33  H   UNL     1      27.372 -10.357   2.318 -0.01 +0.00    +0.000 HD
DOCKED: ENDBRANCH  23  24
DOCKED: ENDBRANCH  22  23
DOCKED: ENDBRANCH   1  22
DOCKED: TORSDOF 11
DOCKED: TER
DOCKED: ENDMDL
________________________________________________________________________________


	BEGINNING GENETIC ALGORITHM DOCKING 58 of 100
Run: 58 Seed: 1583268626 229728407 [ Run 58 of 100 GA/GALS ]
Beginning LAMARCKIAN GENETIC ALGORITHM (LGA), with a maximum of 2500000 energy evaluations.

Final-Value: -15.391


	FINAL GENETIC ALGORITHM DOCKED STATE
	_______________________________________________


Detailed state:  trans 28.624 -16.238 -1.754 quatxyzw 0.200161 -0.672072 0.704531 -0.109047 center 0.459 0.118 0.005 ntor 11 -22.2145 37.3584 9.9478 -127.4576 -109.7932 63.9991 -164.6704 133.2153 151.8964 15.6684 -0.3261
State:	 28.624 -16.238  -1.754   0.201 -0.676  0.709 -167.479    -22.21   37.36    9.95 -127.46 -109.79   64.00 -164.67  133.22  151.90   15.67   -0.33

DOCKED: MODEL       58
DOCKED: USER    Run = 58
DOCKED: USER    DPF = ligand_dock.biased.dpf
DOCKED: USER  
DOCKED: USER    Estimated Free Energy of Binding    =   -9.53 kcal/mol  [=(1)+(2)+(3)-(4)]
DOCKED: USER    Estimated Inhibition Constant, Ki   =  103.33 nM (nanomolar)  [Temperature = 298.15 K]
DOCKED: USER    
DOCKED: USER    (1) Final Intermolecular Energy     =  -12.81 kcal/mol
DOCKED: USER        vdW + Hbond + desolv Energy     =  -12.81 kcal/mol
DOCKED: USER        Electrostatic Energy            =   +0.00 kcal/mol
DOCKED: USER    (2) Final Total Internal Energy     =   -2.58 kcal/mol
DOCKED: USER    (3) Torsional Free Energy           =   +3.28 kcal/mol
DOCKED: USER    (4) Unbound System's Energy  [=(2)] =   -2.58 kcal/mol
DOCKED: USER    
DOCKED: USER    
DOCKED: USER    NEWDPF move ligand.pdbqt
DOCKED: USER    NEWDPF about 0.459000 0.118000 0.005000
DOCKED: USER    NEWDPF tran0 28.623710 -16.237886 -1.753627
DOCKED: USER    NEWDPF quaternion0 0.200161 -0.672072 0.704531 -0.109047
DOCKED: USER    NEWDPF axisangle0 0.201362 -0.676104 0.708758 -167.479237
DOCKED: USER    NEWDPF quat0 0.201362 -0.676104 0.708758 -167.479237
DOCKED: USER    NEWDPF dihe0 -22.21 37.36 9.95 -127.46 -109.79 64.00 -164.67 133.22 151.90 15.67 -0.33 
DOCKED: USER  keepresnum = 1 
DOCKED: USER  
DOCKED: REMARK  Name = 
DOCKED: REMARK  11 active torsions:
DOCKED: REMARK  status: ('A' for Active; 'I' for Inactive)
DOCKED: REMARK    1  A    between atoms: C_2  and  C_5
DOCKED: REMARK    2  A    between atoms: N_3  and  O_4
DOCKED: REMARK    3  A    between atoms: C_6  and  C_7
DOCKED: REMARK    4  A    between atoms: C_10  and  C_11
DOCKED: REMARK    5  A    between atoms: C_11  and  N_12
DOCKED: REMARK    6  A    between atoms: N_12  and  C_13
DOCKED: REMARK    7  A    between atoms: N_12  and  C_16
DOCKED: REMARK    8  A    between atoms: C_13  and  C_14
DOCKED: REMARK    9  A    between atoms: C_14  and  O_15
DOCKED: REMARK   10  A    between atoms: C_16  and  C_17
DOCKED: REMARK   11  A    between atoms: C_17  and  C_18
DOCKED: REMARK                            x       y       z     vdW  Elec       q    Type
DOCKED: REMARK                         _______ _______ _______ _____ _____    ______ ____
DOCKED: USER                              x       y       z     vdW  Elec       q    Type
DOCKED: USER                           _______ _______ _______ _____ _____    ______ ____
DOCKED: ROOT
DOCKED: ATOM      1  N   UNL     1      29.969 -16.054  -1.047 -0.15 -0.00    +0.000 N 
DOCKED: ATOM      2  H   UNL     1      29.283 -15.312  -0.909 +0.00 -0.00    +0.000 HD
DOCKED: ENDROOT
DOCKED: BRANCH   1   3
DOCKED: ATOM      3  C   UNL     1      29.330 -17.133  -1.832 -0.26 -0.00    +0.000 C 
DOCKED: BRANCH   3   7
DOCKED: ATOM      4  C   UNL     1      25.140 -17.407  -0.789 -0.60 -0.00    +0.000 A 
DOCKED: ATOM      5  C   UNL     1      26.084 -18.242  -0.168 -0.59 -0.00    +0.000 A 
DOCKED: ATOM      6  C   UNL     1      27.437 -18.162  -0.509 -0.14 -0.00    +0.000 A 
DOCKED: ATOM      7  C   UNL     1      27.871 -17.239  -1.472 -0.28 -0.00    +0.000 A 
DOCKED: ATOM      8  C   UNL     1      26.937 -16.390  -2.080 -0.35 -0.00    +0.000 A 
DOCKED: ATOM      9  C   UNL     1      25.583 -16.468  -1.741 -0.51 -0.00    +0.000 A 
DOCKED: BRANCH   4  11
DOCKED: ATOM     10  C   UNL     1      22.826 -18.294  -1.022 -0.82 -0.00    +0.000 C 
DOCKED: ATOM     11  C   UNL     1      23.716 -17.519  -0.385 -0.70 -0.00    +0.000 C 
DOCKED: BRANCH  10  13
DOCKED: ATOM     12  O   UNL     1      20.576 -17.601  -1.073 -2.13 -0.00    +0.000 OA
DOCKED: ATOM     13  C   UNL     1      21.415 -18.416  -0.604 -0.82 -0.00    +0.000 C 
DOCKED: ATOM     14  N   UNL     1      20.979 -19.406   0.337 -0.70 -0.00    +0.000 N 
DOCKED: ATOM     15  H   UNL     1      21.642 -19.975   0.791 -0.52 -0.00    +0.000 HD
DOCKED: BRANCH  14  16
DOCKED: ATOM     16  O   UNL     1      19.661 -19.560   0.604 -0.82 -0.00    +0.000 OA
DOCKED: ATOM     17  H   UNL     1      19.186 -18.745   0.376 -0.23 -0.00    +0.000 HD
DOCKED: ENDBRANCH  14  16
DOCKED: ENDBRANCH  10  13
DOCKED: ENDBRANCH   4  11
DOCKED: ENDBRANCH   3   7
DOCKED: ENDBRANCH   1   3
DOCKED: BRANCH   1  18
DOCKED: ATOM     18  C   UNL     1      30.329 -16.515   0.315 +0.02 -0.00    +0.000 C 
DOCKED: BRANCH  18  19
DOCKED: ATOM     19  C   UNL     1      31.449 -17.567   0.296 -0.15 -0.00    +0.000 C 
DOCKED: BRANCH  19  20
DOCKED: ATOM     20  O   UNL     1      30.970 -18.811  -0.140 -0.21 -0.00    +0.000 OA
DOCKED: ATOM     21  H   UNL     1      30.013 -18.860   0.012 -0.54 -0.00    +0.000 HD
DOCKED: ENDBRANCH  19  20
DOCKED: ENDBRANCH  18  19
DOCKED: ENDBRANCH   1  18
DOCKED: BRANCH   1  22
DOCKED: ATOM     22  C   UNL     1      31.079 -15.409  -1.791 -0.06 -0.00    +0.000 C 
DOCKED: BRANCH  22  23
DOCKED: ATOM     23  C   UNL     1      30.631 -14.283  -2.742 -0.04 -0.00    +0.000 C 
DOCKED: BRANCH  23  24
DOCKED: ATOM     24  C   UNL     1      29.593 -14.791  -3.696 -0.11 -0.00    +0.000 A 
DOCKED: ATOM     25  C   UNL     1      29.799 -15.661  -4.763 -0.21 -0.00    +0.000 A 
DOCKED: ATOM     26  N   UNL     1      28.651 -15.839  -5.454 -0.36 -0.00    +0.000 N 
DOCKED: ATOM     27  C   UNL     1      27.726 -15.078  -4.843 -0.38 -0.00    +0.000 A 
DOCKED: ATOM     28  C   UNL     1      28.265 -14.418  -3.768 -0.19 -0.00    +0.000 A 
DOCKED: ATOM     29  C   UNL     1      27.510 -13.543  -2.988 -0.17 -0.00    +0.000 A 
DOCKED: ATOM     30  C   UNL     1      26.158 -13.361  -3.329 -0.22 -0.00    +0.000 A 
DOCKED: ATOM     31  C   UNL     1      25.600 -14.045  -4.433 -0.35 -0.00    +0.000 A 
DOCKED: ATOM     32  C   UNL     1      26.390 -14.915  -5.206 -0.21 -0.00    +0.000 A 
DOCKED: ATOM     33  H   UNL     1      28.518 -16.410  -6.245 -0.03 +0.00    +0.000 HD
DOCKED: ENDBRANCH  23  24
DOCKED: ENDBRANCH  22  23
DOCKED: ENDBRANCH   1  22
DOCKED: TORSDOF 11
DOCKED: TER
DOCKED: ENDMDL
________________________________________________________________________________


	BEGINNING GENETIC ALGORITHM DOCKING 59 of 100
Run: 59 Seed: 766107886 1882595098 [ Run 59 of 100 GA/GALS ]
Beginning LAMARCKIAN GENETIC ALGORITHM (LGA), with a maximum of 2500000 energy evaluations.

Final-Value: -17.064


	FINAL GENETIC ALGORITHM DOCKED STATE
	_______________________________________________


Detailed state:  trans 28.192 -15.374 -0.911 quatxyzw -0.905776 0.002498 -0.026400 0.422925 center 0.459 0.118 0.005 ntor 11 -0.3582 180.0000 180.0000 -176.8678 35.3213 97.8658 179.8409 -170.4656 154.8806 -180.0000 160.2099
State:	 28.192 -15.374  -0.911  -1.000  0.003 -0.029 129.961     -0.36  180.00  180.00 -176.87   35.32   97.87  179.84 -170.47  154.88 -180.00  160.21

DOCKED: MODEL       59
DOCKED: USER    Run = 59
DOCKED: USER    DPF = ligand_dock.biased.dpf
DOCKED: USER  
DOCKED: USER    Estimated Free Energy of Binding    =  -11.47 kcal/mol  [=(1)+(2)+(3)-(4)]
DOCKED: USER    Estimated Inhibition Constant, Ki   =    3.94 nM (nanomolar)  [Temperature = 298.15 K]
DOCKED: USER    
DOCKED: USER    (1) Final Intermolecular Energy     =  -14.75 kcal/mol
DOCKED: USER        vdW + Hbond + desolv Energy     =  -14.75 kcal/mol
DOCKED: USER        Electrostatic Energy            =   +0.00 kcal/mol
DOCKED: USER    (2) Final Total Internal Energy     =   -2.32 kcal/mol
DOCKED: USER    (3) Torsional Free Energy           =   +3.28 kcal/mol
DOCKED: USER    (4) Unbound System's Energy  [=(2)] =   -2.32 kcal/mol
DOCKED: USER    
DOCKED: USER    
DOCKED: USER    NEWDPF move ligand.pdbqt
DOCKED: USER    NEWDPF about 0.459000 0.118000 0.005000
DOCKED: USER    NEWDPF tran0 28.192471 -15.373610 -0.911385
DOCKED: USER    NEWDPF quaternion0 -0.905776 0.002498 -0.026400 0.422925
DOCKED: USER    NEWDPF axisangle0 -0.999572 0.002757 -0.029133 129.961176
DOCKED: USER    NEWDPF quat0 -0.999572 0.002757 -0.029133 129.961176
DOCKED: USER    NEWDPF dihe0 -0.36 180.00 180.00 -176.87 35.32 97.87 179.84 -170.47 154.88 -180.00 160.21 
DOCKED: USER  keepresnum = 1 
DOCKED: USER  
DOCKED: REMARK  Name = 
DOCKED: REMARK  11 active torsions:
DOCKED: REMARK  status: ('A' for Active; 'I' for Inactive)
DOCKED: REMARK    1  A    between atoms: C_2  and  C_5
DOCKED: REMARK    2  A    between atoms: N_3  and  O_4
DOCKED: REMARK    3  A    between atoms: C_6  and  C_7
DOCKED: REMARK    4  A    between atoms: C_10  and  C_11
DOCKED: REMARK    5  A    between atoms: C_11  and  N_12
DOCKED: REMARK    6  A    between atoms: N_12  and  C_13
DOCKED: REMARK    7  A    between atoms: N_12  and  C_16
DOCKED: REMARK    8  A    between atoms: C_13  and  C_14
DOCKED: REMARK    9  A    between atoms: C_14  and  O_15
DOCKED: REMARK   10  A    between atoms: C_16  and  C_17
DOCKED: REMARK   11  A    between atoms: C_17  and  C_18
DOCKED: REMARK                            x       y       z     vdW  Elec       q    Type
DOCKED: REMARK                         _______ _______ _______ _____ _____    ______ ____
DOCKED: USER                              x       y       z     vdW  Elec       q    Type
DOCKED: USER                           _______ _______ _______ _____ _____    ______ ____
DOCKED: ROOT
DOCKED: ATOM      1  N   UNL     1      27.303 -14.616  -1.900 -0.22 -0.00    +0.000 N 
DOCKED: ATOM      2  H   UNL     1      27.850 -14.044  -1.256 +0.00 -0.00    +0.000 HD
DOCKED: ENDROOT
DOCKED: BRANCH   1   3
DOCKED: ATOM      3  C   UNL     1      27.679 -16.031  -1.692 -0.33 -0.00    +0.000 C 
DOCKED: BRANCH   3   7
DOCKED: ATOM      4  C   UNL     1      24.163 -18.436  -0.935 -0.70 -0.00    +0.000 A 
DOCKED: ATOM      5  C   UNL     1      24.382 -17.876  -2.204 -0.36 -0.00    +0.000 A 
DOCKED: ATOM      6  C   UNL     1      25.513 -17.091  -2.451 -0.33 -0.00    +0.000 A 
DOCKED: ATOM      7  C   UNL     1      26.449 -16.860  -1.432 -0.45 -0.00    +0.000 A 
DOCKED: ATOM      8  C   UNL     1      26.246 -17.433  -0.169 -0.50 -0.00    +0.000 A 
DOCKED: ATOM      9  C   UNL     1      25.117 -18.217   0.079 -0.56 -0.00    +0.000 A 
DOCKED: BRANCH   4  11
DOCKED: ATOM     10  C   UNL     1      21.705 -18.820  -0.894 -0.84 -0.00    +0.000 C 
DOCKED: ATOM     11  C   UNL     1      22.956 -19.272  -0.724 -0.76 -0.00    +0.000 C 
DOCKED: BRANCH  10  13
DOCKED: ATOM     12  O   UNL     1      19.667 -19.737  -1.637 -1.69 -0.00    +0.000 OA
DOCKED: ATOM     13  C   UNL     1      20.507 -19.662  -0.701 -0.88 -0.00    +0.000 C 
DOCKED: ATOM     14  N   UNL     1      20.257 -20.366   0.523 -0.69 -0.00    +0.000 N 
DOCKED: ATOM     15  H   UNL     1      20.849 -20.228   1.297 -0.50 -0.00    +0.000 HD
DOCKED: BRANCH  14  16
DOCKED: ATOM     16  O   UNL     1      19.210 -21.219   0.618 -0.73 -0.00    +0.000 OA
DOCKED: ATOM     17  H   UNL     1      18.729 -21.236  -0.225 -0.26 -0.00    +0.000 HD
DOCKED: ENDBRANCH  14  16
DOCKED: ENDBRANCH  10  13
DOCKED: ENDBRANCH   4  11
DOCKED: ENDBRANCH   3   7
DOCKED: ENDBRANCH   1   3
DOCKED: BRANCH   1  18
DOCKED: ATOM     18  C   UNL     1      27.677 -14.148  -3.256 -0.23 -0.00    +0.000 C 
DOCKED: BRANCH  18  19
DOCKED: ATOM     19  C   UNL     1      27.933 -15.314  -4.224 -0.36 -0.00    +0.000 C 
DOCKED: BRANCH  19  20
DOCKED: ATOM     20  O   UNL     1      26.787 -15.607  -4.979 -1.02 +0.00    +0.000 OA
DOCKED: ATOM     21  H   UNL     1      26.982 -15.484  -5.922 -0.07 +0.00    +0.000 HD
DOCKED: ENDBRANCH  19  20
DOCKED: ENDBRANCH  18  19
DOCKED: ENDBRANCH   1  18
DOCKED: BRANCH   1  22
DOCKED: ATOM     22  C   UNL     1      25.890 -14.356  -1.529 -0.25 -0.00    +0.000 C 
DOCKED: BRANCH  22  23
DOCKED: ATOM     23  C   UNL     1      25.683 -13.995  -0.046 -0.08 -0.00    +0.000 C 
DOCKED: BRANCH  23  24
DOCKED: ATOM     24  C   UNL     1      26.999 -13.967   0.671 -0.26 -0.00    +0.000 A 
DOCKED: ATOM     25  C   UNL     1      27.641 -15.045   1.273 -0.06 -0.00    +0.000 A 
DOCKED: ATOM     26  N   UNL     1      28.771 -14.635   1.892 -0.15 -0.00    +0.000 N 
DOCKED: ATOM     27  C   UNL     1      28.840 -13.306   1.699 -0.15 -0.00    +0.000 A 
DOCKED: ATOM     28  C   UNL     1      27.773 -12.860   0.962 -0.18 -0.00    +0.000 A 
DOCKED: ATOM     29  C   UNL     1      27.604 -11.511   0.653 -0.14 -0.00    +0.000 A 
DOCKED: ATOM     30  C   UNL     1      28.579 -10.607   1.113 -0.07 +0.00    +0.000 A 
DOCKED: ATOM     31  C   UNL     1      29.683 -11.066   1.867 -0.03 -0.00    +0.000 A 
DOCKED: ATOM     32  C   UNL     1      29.820 -12.433   2.170 -0.07 -0.00    +0.000 A 
DOCKED: ATOM     33  H   UNL     1      29.413 -15.196   2.384 -1.84 -0.00    +0.000 HD
DOCKED: ENDBRANCH  23  24
DOCKED: ENDBRANCH  22  23
DOCKED: ENDBRANCH   1  22
DOCKED: TORSDOF 11
DOCKED: TER
DOCKED: ENDMDL
________________________________________________________________________________


	BEGINNING GENETIC ALGORITHM DOCKING 60 of 100
Run: 60 Seed: 1464833700 1241063265 [ Run 60 of 100 GA/GALS ]
Beginning LAMARCKIAN GENETIC ALGORITHM (LGA), with a maximum of 2500000 energy evaluations.

Final-Value: -17.316


	FINAL GENETIC ALGORITHM DOCKED STATE
	_______________________________________________


Detailed state:  trans 26.445 -15.692 -2.176 quatxyzw -0.157482 0.607623 -0.778455 -0.001322 center 0.459 0.118 0.005 ntor 11 0.3305 7.6508 -39.3790 -24.0703 -40.3804 48.5433 179.7804 -127.2992 117.0955 -5.1492 -22.3746
State:	 26.445 -15.692  -2.176  -0.157  0.608 -0.778 -179.849      0.33    7.65  -39.38  -24.07  -40.38   48.54  179.78 -127.30  117.10   -5.15  -22.37

DOCKED: MODEL       60
DOCKED: USER    Run = 60
DOCKED: USER    DPF = ligand_dock.biased.dpf
DOCKED: USER  
DOCKED: USER    Estimated Free Energy of Binding    =  -11.79 kcal/mol  [=(1)+(2)+(3)-(4)]
DOCKED: USER    Estimated Inhibition Constant, Ki   =    2.27 nM (nanomolar)  [Temperature = 298.15 K]
DOCKED: USER    
DOCKED: USER    (1) Final Intermolecular Energy     =  -15.07 kcal/mol
DOCKED: USER        vdW + Hbond + desolv Energy     =  -15.07 kcal/mol
DOCKED: USER        Electrostatic Energy            =   +0.00 kcal/mol
DOCKED: USER    (2) Final Total Internal Energy     =   -2.24 kcal/mol
DOCKED: USER    (3) Torsional Free Energy           =   +3.28 kcal/mol
DOCKED: USER    (4) Unbound System's Energy  [=(2)] =   -2.24 kcal/mol
DOCKED: USER    
DOCKED: USER    
DOCKED: USER    NEWDPF move ligand.pdbqt
DOCKED: USER    NEWDPF about 0.459000 0.118000 0.005000
DOCKED: USER    NEWDPF tran0 26.445479 -15.691698 -2.175886
DOCKED: USER    NEWDPF quaternion0 -0.157482 0.607623 -0.778455 -0.001322
DOCKED: USER    NEWDPF axisangle0 -0.157482 0.607623 -0.778456 -179.848518
DOCKED: USER    NEWDPF quat0 -0.157482 0.607623 -0.778456 -179.848518
DOCKED: USER    NEWDPF dihe0 0.33 7.65 -39.38 -24.07 -40.38 48.54 179.78 -127.30 117.10 -5.15 -22.37 
DOCKED: USER  keepresnum = 1 
DOCKED: USER  
DOCKED: REMARK  Name = 
DOCKED: REMARK  11 active torsions:
DOCKED: REMARK  status: ('A' for Active; 'I' for Inactive)
DOCKED: REMARK    1  A    between atoms: C_2  and  C_5
DOCKED: REMARK    2  A    between atoms: N_3  and  O_4
DOCKED: REMARK    3  A    between atoms: C_6  and  C_7
DOCKED: REMARK    4  A    between atoms: C_10  and  C_11
DOCKED: REMARK    5  A    between atoms: C_11  and  N_12
DOCKED: REMARK    6  A    between atoms: N_12  and  C_13
DOCKED: REMARK    7  A    between atoms: N_12  and  C_16
DOCKED: REMARK    8  A    between atoms: C_13  and  C_14
DOCKED: REMARK    9  A    between atoms: C_14  and  O_15
DOCKED: REMARK   10  A    between atoms: C_16  and  C_17
DOCKED: REMARK   11  A    between atoms: C_17  and  C_18
DOCKED: REMARK                            x       y       z     vdW  Elec       q    Type
DOCKED: REMARK                         _______ _______ _______ _____ _____    ______ ____
DOCKED: USER                              x       y       z     vdW  Elec       q    Type
DOCKED: USER                           _______ _______ _______ _____ _____    ______ ____
DOCKED: ROOT
DOCKED: ATOM      1  N   UNL     1      27.558 -15.205  -1.244 -0.23 -0.00    +0.000 N 
DOCKED: ATOM      2  H   UNL     1      26.774 -14.567  -1.381 -0.00 -0.00    +0.000 HD
DOCKED: ENDROOT
DOCKED: BRANCH   1   3
DOCKED: ATOM      3  C   UNL     1      27.253 -16.468  -1.952 -0.38 -0.00    +0.000 C 
DOCKED: BRANCH   3   7
DOCKED: ATOM      4  C   UNL     1      23.488 -18.060  -0.533 -0.71 -0.00    +0.000 A 
DOCKED: ATOM      5  C   UNL     1      24.682 -18.772  -0.334 -0.34 -0.00    +0.000 A 
DOCKED: ATOM      6  C   UNL     1      25.900 -18.265  -0.798 -0.51 -0.00    +0.000 A 
DOCKED: ATOM      7  C   UNL     1      25.945 -17.031  -1.464 -0.51 -0.00    +0.000 A 
DOCKED: ATOM      8  C   UNL     1      24.760 -16.306  -1.648 -0.49 -0.00    +0.000 A 
DOCKED: ATOM      9  C   UNL     1      23.542 -16.812  -1.185 -0.42 -0.00    +0.000 A 
DOCKED: BRANCH   4  11
DOCKED: ATOM     10  C   UNL     1      21.258 -19.132  -0.797 -0.87 -0.00    +0.000 C 
DOCKED: ATOM     11  C   UNL     1      22.223 -18.631  -0.011 -0.79 -0.00    +0.000 C 
DOCKED: BRANCH  10  13
DOCKED: ATOM     12  O   UNL     1      19.005 -19.776  -1.030 -1.00 -0.00    +0.000 OA
DOCKED: ATOM     13  C   UNL     1      20.009 -19.716  -0.271 -0.87 -0.00    +0.000 C 
DOCKED: ATOM     14  N   UNL     1      19.894 -20.186   1.079 -0.69 -0.00    +0.000 N 
DOCKED: ATOM     15  H   UNL     1      20.635 -20.045   1.711 -0.48 -0.00    +0.000 HD
DOCKED: BRANCH  14  16
DOCKED: ATOM     16  O   UNL     1      18.770 -20.821   1.487 -0.74 -0.00    +0.000 OA
DOCKED: ATOM     17  H   UNL     1      18.145 -20.883   0.747 -0.04 -0.00    +0.000 HD
DOCKED: ENDBRANCH  14  16
DOCKED: ENDBRANCH  10  13
DOCKED: ENDBRANCH   4  11
DOCKED: ENDBRANCH   3   7
DOCKED: ENDBRANCH   1   3
DOCKED: BRANCH   1  18
DOCKED: ATOM     18  C   UNL     1      27.645 -15.412   0.221 -0.31 -0.00    +0.000 C 
DOCKED: BRANCH  18  19
DOCKED: ATOM     19  C   UNL     1      28.177 -14.171   0.955 -0.24 -0.00    +0.000 C 
DOCKED: BRANCH  19  20
DOCKED: ATOM     20  O   UNL     1      29.311 -14.480   1.720 -0.22 -0.00    +0.000 OA
DOCKED: ATOM     21  H   UNL     1      29.112 -15.229   2.304 -1.93 -0.00    +0.000 HD
DOCKED: ENDBRANCH  19  20
DOCKED: ENDBRANCH  18  19
DOCKED: ENDBRANCH   1  18
DOCKED: BRANCH   1  22
DOCKED: ATOM     22  C   UNL     1      28.724 -14.503  -1.835 -0.13 -0.00    +0.000 C 
DOCKED: BRANCH  22  23
DOCKED: ATOM     23  C   UNL     1      28.646 -14.328  -3.364 -0.16 -0.00    +0.000 C 
DOCKED: BRANCH  23  24
DOCKED: ATOM     24  C   UNL     1      27.274 -13.878  -3.766 -0.25 -0.00    +0.000 A 
DOCKED: ATOM     25  C   UNL     1      26.181 -14.691  -4.047 -0.48 -0.00    +0.000 A 
DOCKED: ATOM     26  N   UNL     1      25.129 -13.945  -4.453 -0.45 -0.00    +0.000 N 
DOCKED: ATOM     27  C   UNL     1      25.553 -12.669  -4.443 -0.31 -0.00    +0.000 A 
DOCKED: ATOM     28  C   UNL     1      26.860 -12.588  -4.036 -0.23 -0.00    +0.000 A 
DOCKED: ATOM     29  C   UNL     1      27.536 -11.370  -3.970 -0.11 -0.00    +0.000 A 
DOCKED: ATOM     30  C   UNL     1      26.830 -10.208  -4.329 -0.13 -0.00    +0.000 A 
DOCKED: ATOM     31  C   UNL     1      25.481 -10.289  -4.743 -0.28 -0.00    +0.000 A 
DOCKED: ATOM     32  C   UNL     1      24.829 -11.534  -4.807 -0.34 -0.00    +0.000 A 
DOCKED: ATOM     33  H   UNL     1      24.234 -14.269  -4.703 -0.46 -0.00    +0.000 HD
DOCKED: ENDBRANCH  23  24
DOCKED: ENDBRANCH  22  23
DOCKED: ENDBRANCH   1  22
DOCKED: TORSDOF 11
DOCKED: TER
DOCKED: ENDMDL
________________________________________________________________________________


	BEGINNING GENETIC ALGORITHM DOCKING 61 of 100
Run: 61 Seed: 914509526 355744739 [ Run 61 of 100 GA/GALS ]
Beginning LAMARCKIAN GENETIC ALGORITHM (LGA), with a maximum of 2500000 energy evaluations.

Final-Value: -16.644


	FINAL GENETIC ALGORITHM DOCKED STATE
	_______________________________________________


Detailed state:  trans 28.338 -16.220 -1.640 quatxyzw 0.510901 -0.850726 0.120951 0.024838 center 0.459 0.118 0.005 ntor 11 -4.7505 127.7038 50.0716 37.7691 -146.9575 61.1649 -70.9899 -80.3353 153.1404 91.7053 39.0086
State:	 28.338 -16.220  -1.640   0.511 -0.851  0.121 177.153     -4.75  127.70   50.07   37.77 -146.96   61.16  -70.99  -80.34  153.14   91.71   39.01

DOCKED: MODEL       61
DOCKED: USER    Run = 61
DOCKED: USER    DPF = ligand_dock.biased.dpf
DOCKED: USER  
DOCKED: USER    Estimated Free Energy of Binding    =  -10.11 kcal/mol  [=(1)+(2)+(3)-(4)]
DOCKED: USER    Estimated Inhibition Constant, Ki   =   38.60 nM (nanomolar)  [Temperature = 298.15 K]
DOCKED: USER    
DOCKED: USER    (1) Final Intermolecular Energy     =  -13.39 kcal/mol
DOCKED: USER        vdW + Hbond + desolv Energy     =  -13.39 kcal/mol
DOCKED: USER        Electrostatic Energy            =   +0.00 kcal/mol
DOCKED: USER    (2) Final Total Internal Energy     =   -3.25 kcal/mol
DOCKED: USER    (3) Torsional Free Energy           =   +3.28 kcal/mol
DOCKED: USER    (4) Unbound System's Energy  [=(2)] =   -3.25 kcal/mol
DOCKED: USER    
DOCKED: USER    
DOCKED: USER    NEWDPF move ligand.pdbqt
DOCKED: USER    NEWDPF about 0.459000 0.118000 0.005000
DOCKED: USER    NEWDPF tran0 28.338414 -16.220045 -1.640193
DOCKED: USER    NEWDPF quaternion0 0.510901 -0.850726 0.120951 0.024838
DOCKED: USER    NEWDPF axisangle0 0.511058 -0.850988 0.120988 177.153474
DOCKED: USER    NEWDPF quat0 0.511058 -0.850988 0.120988 177.153474
DOCKED: USER    NEWDPF dihe0 -4.75 127.70 50.07 37.77 -146.96 61.16 -70.99 -80.34 153.14 91.71 39.01 
DOCKED: USER  keepresnum = 1 
DOCKED: USER  
DOCKED: REMARK  Name = 
DOCKED: REMARK  11 active torsions:
DOCKED: REMARK  status: ('A' for Active; 'I' for Inactive)
DOCKED: REMARK    1  A    between atoms: C_2  and  C_5
DOCKED: REMARK    2  A    between atoms: N_3  and  O_4
DOCKED: REMARK    3  A    between atoms: C_6  and  C_7
DOCKED: REMARK    4  A    between atoms: C_10  and  C_11
DOCKED: REMARK    5  A    between atoms: C_11  and  N_12
DOCKED: REMARK    6  A    between atoms: N_12  and  C_13
DOCKED: REMARK    7  A    between atoms: N_12  and  C_16
DOCKED: REMARK    8  A    between atoms: C_13  and  C_14
DOCKED: REMARK    9  A    between atoms: C_14  and  O_15
DOCKED: REMARK   10  A    between atoms: C_16  and  C_17
DOCKED: REMARK   11  A    between atoms: C_17  and  C_18
DOCKED: REMARK                            x       y       z     vdW  Elec       q    Type
DOCKED: REMARK                         _______ _______ _______ _____ _____    ______ ____
DOCKED: USER                              x       y       z     vdW  Elec       q    Type
DOCKED: USER                           _______ _______ _______ _____ _____    ______ ____
DOCKED: ROOT
DOCKED: ATOM      1  N   UNL     1      29.834 -15.961  -1.445 -0.13 -0.00    +0.000 N 
DOCKED: ATOM      2  H   UNL     1      29.321 -16.277  -0.622 -0.02 -0.00    +0.000 HD
DOCKED: ENDROOT
DOCKED: BRANCH   1   3
DOCKED: ATOM      3  C   UNL     1      28.909 -15.977  -2.600 -0.23 -0.00    +0.000 C 
DOCKED: BRANCH   3   7
DOCKED: ATOM      4  C   UNL     1      24.902 -16.946  -1.287 -0.58 -0.00    +0.000 A 
DOCKED: ATOM      5  C   UNL     1      26.010 -17.262  -0.484 -0.53 -0.00    +0.000 A 
DOCKED: ATOM      6  C   UNL     1      27.307 -16.959  -0.908 -0.41 -0.00    +0.000 A 
DOCKED: ATOM      7  C   UNL     1      27.518 -16.325  -2.142 -0.31 -0.00    +0.000 A 
DOCKED: ATOM      8  C   UNL     1      26.415 -15.988  -2.938 -0.40 -0.00    +0.000 A 
DOCKED: ATOM      9  C   UNL     1      25.118 -16.292  -2.516 -0.46 -0.00    +0.000 A 
DOCKED: BRANCH   4  11
DOCKED: ATOM     10  C   UNL     1      22.882 -18.391  -1.131 -0.81 -0.00    +0.000 C 
DOCKED: ATOM     11  C   UNL     1      23.544 -17.276  -0.788 -0.72 -0.00    +0.000 C 
DOCKED: BRANCH  10  13
DOCKED: ATOM     12  O   UNL     1      20.627 -17.857  -0.709 -2.35 -0.00    +0.000 OA
DOCKED: ATOM     13  C   UNL     1      21.538 -18.723  -0.617 -0.86 -0.00    +0.000 C 
DOCKED: ATOM     14  N   UNL     1      21.248 -19.980   0.008 -0.55 -0.00    +0.000 N 
DOCKED: ATOM     15  H   UNL     1      21.976 -20.619   0.183 -0.57 -0.00    +0.000 HD
DOCKED: BRANCH  14  16
DOCKED: ATOM     16  O   UNL     1      19.978 -20.291   0.359 -0.80 -0.00    +0.000 OA
DOCKED: ATOM     17  H   UNL     1      19.399 -19.531   0.188 -0.03 -0.00    +0.000 HD
DOCKED: ENDBRANCH  14  16
DOCKED: ENDBRANCH  10  13
DOCKED: ENDBRANCH   4  11
DOCKED: ENDBRANCH   3   7
DOCKED: ENDBRANCH   1   3
DOCKED: BRANCH   1  18
DOCKED: ATOM     18  C   UNL     1      30.937 -16.936  -1.619 -0.14 -0.00    +0.000 C 
DOCKED: BRANCH  18  19
DOCKED: ATOM     19  C   UNL     1      31.073 -17.883  -0.416 -0.18 -0.00    +0.000 C 
DOCKED: BRANCH  19  20
DOCKED: ATOM     20  O   UNL     1      30.759 -17.227   0.783 -0.11 -0.00    +0.000 OA
DOCKED: ATOM     21  H   UNL     1      29.816 -17.001   0.790 -0.53 -0.00    +0.000 HD
DOCKED: ENDBRANCH  19  20
DOCKED: ENDBRANCH  18  19
DOCKED: ENDBRANCH   1  18
DOCKED: BRANCH   1  22
DOCKED: ATOM     22  C   UNL     1      30.279 -14.586  -1.108 -0.06 -0.00    +0.000 C 
DOCKED: BRANCH  22  23
DOCKED: ATOM     23  C   UNL     1      29.327 -13.829  -0.162 -0.10 -0.00    +0.000 C 
DOCKED: BRANCH  23  24
DOCKED: ATOM     24  C   UNL     1      29.729 -14.048   1.265 -0.12 -0.00    +0.000 A 
DOCKED: ATOM     25  C   UNL     1      30.984 -14.437   1.725 -0.11 -0.00    +0.000 A 
DOCKED: ATOM     26  N   UNL     1      30.961 -14.614   3.065 -0.21 -0.00    +0.000 N 
DOCKED: ATOM     27  C   UNL     1      29.700 -14.355   3.453 -0.26 -0.00    +0.000 A 
DOCKED: ATOM     28  C   UNL     1      28.916 -14.012   2.381 -0.21 -0.00    +0.000 A 
DOCKED: ATOM     29  C   UNL     1      27.559 -13.725   2.524 -0.31 -0.00    +0.000 A 
DOCKED: ATOM     30  C   UNL     1      27.009 -13.786   3.817 -0.37 -0.00    +0.000 A 
DOCKED: ATOM     31  C   UNL     1      27.817 -14.133   4.923 -0.52 -0.00    +0.000 A 
DOCKED: ATOM     32  C   UNL     1      29.181 -14.426   4.746 -0.39 -0.00    +0.000 A 
DOCKED: ATOM     33  H   UNL     1      31.715 -14.878   3.640 -0.02 -0.00    +0.000 HD
DOCKED: ENDBRANCH  23  24
DOCKED: ENDBRANCH  22  23
DOCKED: ENDBRANCH   1  22
DOCKED: TORSDOF 11
DOCKED: TER
DOCKED: ENDMDL
________________________________________________________________________________


	BEGINNING GENETIC ALGORITHM DOCKING 62 of 100
Run: 62 Seed: 1536392546 1884127391 [ Run 62 of 100 GA/GALS ]
Beginning LAMARCKIAN GENETIC ALGORITHM (LGA), with a maximum of 2500000 energy evaluations.

Final-Value: -17.997


	FINAL GENETIC ALGORITHM DOCKED STATE
	_______________________________________________


Detailed state:  trans 28.586 -14.974 -1.899 quatxyzw 0.797703 0.149727 -0.360975 -0.459292 center 0.459 0.118 0.005 ntor 11 -0.1565 -154.0718 -157.8288 108.8874 36.3992 -67.7328 -55.0683 72.5312 -177.1881 1.9762 -153.7278
State:	 28.586 -14.974  -1.899   0.898  0.169 -0.406 -125.317     -0.16 -154.07 -157.83  108.89   36.40  -67.73  -55.07   72.53 -177.19    1.98 -153.73

DOCKED: MODEL       62
DOCKED: USER    Run = 62
DOCKED: USER    DPF = ligand_dock.biased.dpf
DOCKED: USER  
DOCKED: USER    Estimated Free Energy of Binding    =  -12.61 kcal/mol  [=(1)+(2)+(3)-(4)]
DOCKED: USER    Estimated Inhibition Constant, Ki   =  568.69 pM (picomolar)  [Temperature = 298.15 K]
DOCKED: USER    
DOCKED: USER    (1) Final Intermolecular Energy     =  -15.89 kcal/mol
DOCKED: USER        vdW + Hbond + desolv Energy     =  -15.89 kcal/mol
DOCKED: USER        Electrostatic Energy            =   +0.00 kcal/mol
DOCKED: USER    (2) Final Total Internal Energy     =   -2.10 kcal/mol
DOCKED: USER    (3) Torsional Free Energy           =   +3.28 kcal/mol
DOCKED: USER    (4) Unbound System's Energy  [=(2)] =   -2.10 kcal/mol
DOCKED: USER    
DOCKED: USER    
DOCKED: USER    NEWDPF move ligand.pdbqt
DOCKED: USER    NEWDPF about 0.459000 0.118000 0.005000
DOCKED: USER    NEWDPF tran0 28.586429 -14.974117 -1.898545
DOCKED: USER    NEWDPF quaternion0 0.797703 0.149727 -0.360975 -0.459292
DOCKED: USER    NEWDPF axisangle0 0.898025 0.168558 -0.406373 -125.317186
DOCKED: USER    NEWDPF quat0 0.898025 0.168558 -0.406373 -125.317186
DOCKED: USER    NEWDPF dihe0 -0.16 -154.07 -157.83 108.89 36.40 -67.73 -55.07 72.53 -177.19 1.98 -153.73 
DOCKED: USER  keepresnum = 1 
DOCKED: USER  
DOCKED: REMARK  Name = 
DOCKED: REMARK  11 active torsions:
DOCKED: REMARK  status: ('A' for Active; 'I' for Inactive)
DOCKED: REMARK    1  A    between atoms: C_2  and  C_5
DOCKED: REMARK    2  A    between atoms: N_3  and  O_4
DOCKED: REMARK    3  A    between atoms: C_6  and  C_7
DOCKED: REMARK    4  A    between atoms: C_10  and  C_11
DOCKED: REMARK    5  A    between atoms: C_11  and  N_12
DOCKED: REMARK    6  A    between atoms: N_12  and  C_13
DOCKED: REMARK    7  A    between atoms: N_12  and  C_16
DOCKED: REMARK    8  A    between atoms: C_13  and  C_14
DOCKED: REMARK    9  A    between atoms: C_14  and  O_15
DOCKED: REMARK   10  A    between atoms: C_16  and  C_17
DOCKED: REMARK   11  A    between atoms: C_17  and  C_18
DOCKED: REMARK                            x       y       z     vdW  Elec       q    Type
DOCKED: REMARK                         _______ _______ _______ _____ _____    ______ ____
DOCKED: USER                              x       y       z     vdW  Elec       q    Type
DOCKED: USER                           _______ _______ _______ _____ _____    ______ ____
DOCKED: ROOT
DOCKED: ATOM      1  N   UNL     1      27.243 -14.248  -2.005 -0.21 -0.00    +0.000 N 
DOCKED: ATOM      2  H   UNL     1      28.077 -13.667  -2.093 +0.00 -0.00    +0.000 HD
DOCKED: ENDROOT
DOCKED: BRANCH   1   3
DOCKED: ATOM      3  C   UNL     1      27.673 -15.660  -1.910 -0.30 -0.00    +0.000 C 
DOCKED: BRANCH   3   7
DOCKED: ATOM      4  C   UNL     1      24.258 -18.162  -1.013 -0.69 -0.00    +0.000 A 
DOCKED: ATOM      5  C   UNL     1      25.250 -17.937  -0.044 -0.56 -0.00    +0.000 A 
DOCKED: ATOM      6  C   UNL     1      26.359 -17.137  -0.332 -0.50 -0.00    +0.000 A 
DOCKED: ATOM      7  C   UNL     1      26.491 -16.539  -1.595 -0.43 -0.00    +0.000 A 
DOCKED: ATOM      8  C   UNL     1      25.495 -16.743  -2.559 -0.45 -0.00    +0.000 A 
DOCKED: ATOM      9  C   UNL     1      24.386 -17.543  -2.272 -0.20 -0.00    +0.000 A 
DOCKED: BRANCH   4  11
DOCKED: ATOM     10  C   UNL     1      21.825 -18.680  -0.946 -0.83 -0.00    +0.000 C 
DOCKED: ATOM     11  C   UNL     1      23.093 -19.008  -0.656 -0.80 -0.00    +0.000 C 
DOCKED: BRANCH  10  13
DOCKED: ATOM     12  O   UNL     1      19.881 -19.875  -1.526 -1.68 -0.00    +0.000 OA
DOCKED: ATOM     13  C   UNL     1      20.671 -19.535  -0.605 -0.88 -0.00    +0.000 C 
DOCKED: ATOM     14  N   UNL     1      20.405 -19.959   0.739 -0.66 -0.00    +0.000 N 
DOCKED: ATOM     15  H   UNL     1      20.951 -19.610   1.479 -0.43 -0.00    +0.000 HD
DOCKED: BRANCH  14  16
DOCKED: ATOM     16  O   UNL     1      19.405 -20.837   0.992 -0.72 -0.00    +0.000 OA
DOCKED: ATOM     17  H   UNL     1      18.967 -21.078   0.160 -0.13 -0.00    +0.000 HD
DOCKED: ENDBRANCH  14  16
DOCKED: ENDBRANCH  10  13
DOCKED: ENDBRANCH   4  11
DOCKED: ENDBRANCH   3   7
DOCKED: ENDBRANCH   1   3
DOCKED: BRANCH   1  18
DOCKED: ATOM     18  C   UNL     1      26.461 -14.002  -3.240 -0.36 -0.00    +0.000 C 
DOCKED: BRANCH  18  19
DOCKED: ATOM     19  C   UNL     1      27.230 -14.403  -4.508 -0.39 -0.00    +0.000 C 
DOCKED: BRANCH  19  20
DOCKED: ATOM     20  O   UNL     1      26.569 -15.428  -5.200 -1.10 +0.00    +0.000 OA
DOCKED: ATOM     21  H   UNL     1      26.692 -15.304  -6.155 -0.06 +0.00    +0.000 HD
DOCKED: ENDBRANCH  19  20
DOCKED: ENDBRANCH  18  19
DOCKED: ENDBRANCH   1  18
DOCKED: BRANCH   1  22
DOCKED: ATOM     22  C   UNL     1      26.587 -13.781  -0.759 -0.27 -0.00    +0.000 C 
DOCKED: BRANCH  22  23
DOCKED: ATOM     23  C   UNL     1      27.347 -12.656  -0.029 -0.20 -0.00    +0.000 C 
DOCKED: BRANCH  23  24
DOCKED: ATOM     24  C   UNL     1      27.814 -13.131   1.313 -0.20 -0.00    +0.000 A 
DOCKED: ATOM     25  C   UNL     1      28.295 -14.399   1.626 -0.22 -0.00    +0.000 A 
DOCKED: ATOM     26  N   UNL     1      28.548 -14.494   2.951 -0.31 -0.00    +0.000 N 
DOCKED: ATOM     27  C   UNL     1      28.218 -13.303   3.479 -0.31 -0.00    +0.000 A 
DOCKED: ATOM     28  C   UNL     1      27.759 -12.446   2.512 -0.23 -0.00    +0.000 A 
DOCKED: ATOM     29  C   UNL     1      27.327 -11.156   2.816 -0.26 +0.00    +0.000 A 
DOCKED: ATOM     30  C   UNL     1      27.384 -10.746   4.160 -0.27 +0.00    +0.000 A 
DOCKED: ATOM     31  C   UNL     1      27.862 -11.626   5.158 -0.35 +0.00    +0.000 A 
DOCKED: ATOM     32  C   UNL     1      28.283 -12.925   4.820 -0.37 -0.00    +0.000 A 
DOCKED: ATOM     33  H   UNL     1      28.903 -15.277   3.431 -1.51 -0.00    +0.000 HD
DOCKED: ENDBRANCH  23  24
DOCKED: ENDBRANCH  22  23
DOCKED: ENDBRANCH   1  22
DOCKED: TORSDOF 11
DOCKED: TER
DOCKED: ENDMDL
________________________________________________________________________________


	BEGINNING GENETIC ALGORITHM DOCKING 63 of 100
Run: 63 Seed: 1189392404 280250743 [ Run 63 of 100 GA/GALS ]
Beginning LAMARCKIAN GENETIC ALGORITHM (LGA), with a maximum of 2500000 energy evaluations.

Final-Value: -17.960


	FINAL GENETIC ALGORITHM DOCKED STATE
	_______________________________________________


Detailed state:  trans 27.778 -15.857 -0.750 quatxyzw 0.638647 -0.319676 0.679351 -0.168578 center 0.459 0.118 0.005 ntor 11 53.7761 -161.6401 90.3275 84.5854 -66.5563 43.3491 -169.0266 57.3869 79.7744 -61.3134 61.0407
State:	 27.778 -15.857  -0.750   0.648 -0.324  0.689 -160.590     53.78 -161.64   90.33   84.59  -66.56   43.35 -169.03   57.39   79.77  -61.31   61.04

DOCKED: MODEL       63
DOCKED: USER    Run = 63
DOCKED: USER    DPF = ligand_dock.biased.dpf
DOCKED: USER  
DOCKED: USER    Estimated Free Energy of Binding    =  -12.33 kcal/mol  [=(1)+(2)+(3)-(4)]
DOCKED: USER    Estimated Inhibition Constant, Ki   =  918.57 pM (picomolar)  [Temperature = 298.15 K]
DOCKED: USER    
DOCKED: USER    (1) Final Intermolecular Energy     =  -15.61 kcal/mol
DOCKED: USER        vdW + Hbond + desolv Energy     =  -15.61 kcal/mol
DOCKED: USER        Electrostatic Energy            =   +0.00 kcal/mol
DOCKED: USER    (2) Final Total Internal Energy     =   -2.35 kcal/mol
DOCKED: USER    (3) Torsional Free Energy           =   +3.28 kcal/mol
DOCKED: USER    (4) Unbound System's Energy  [=(2)] =   -2.35 kcal/mol
DOCKED: USER    
DOCKED: USER    
DOCKED: USER    NEWDPF move ligand.pdbqt
DOCKED: USER    NEWDPF about 0.459000 0.118000 0.005000
DOCKED: USER    NEWDPF tran0 27.777594 -15.856924 -0.749631
DOCKED: USER    NEWDPF quaternion0 0.638647 -0.319676 0.679351 -0.168578
DOCKED: USER    NEWDPF axisangle0 0.647920 -0.324317 0.689215 -160.589650
DOCKED: USER    NEWDPF quat0 0.647920 -0.324317 0.689215 -160.589650
DOCKED: USER    NEWDPF dihe0 53.78 -161.64 90.33 84.59 -66.56 43.35 -169.03 57.39 79.77 -61.31 61.04 
DOCKED: USER  keepresnum = 1 
DOCKED: USER  
DOCKED: REMARK  Name = 
DOCKED: REMARK  11 active torsions:
DOCKED: REMARK  status: ('A' for Active; 'I' for Inactive)
DOCKED: REMARK    1  A    between atoms: C_2  and  C_5
DOCKED: REMARK    2  A    between atoms: N_3  and  O_4
DOCKED: REMARK    3  A    between atoms: C_6  and  C_7
DOCKED: REMARK    4  A    between atoms: C_10  and  C_11
DOCKED: REMARK    5  A    between atoms: C_11  and  N_12
DOCKED: REMARK    6  A    between atoms: N_12  and  C_13
DOCKED: REMARK    7  A    between atoms: N_12  and  C_16
DOCKED: REMARK    8  A    between atoms: C_13  and  C_14
DOCKED: REMARK    9  A    between atoms: C_14  and  O_15
DOCKED: REMARK   10  A    between atoms: C_16  and  C_17
DOCKED: REMARK   11  A    between atoms: C_17  and  C_18
DOCKED: REMARK                            x       y       z     vdW  Elec       q    Type
DOCKED: REMARK                         _______ _______ _______ _____ _____    ______ ____
DOCKED: USER                              x       y       z     vdW  Elec       q    Type
DOCKED: USER                           _______ _______ _______ _____ _____    ______ ____
DOCKED: ROOT
DOCKED: ATOM      1  N   UNL     1      28.682 -14.798  -1.384 -0.13 -0.00    +0.000 N 
DOCKED: ATOM      2  H   UNL     1      27.909 -14.449  -0.818 +0.00 -0.00    +0.000 HD
DOCKED: ENDROOT
DOCKED: BRANCH   1   3
DOCKED: ATOM      3  C   UNL     1      28.698 -16.274  -1.283 -0.28 -0.00    +0.000 C 
DOCKED: BRANCH   3   7
DOCKED: ATOM      4  C   UNL     1      24.710 -17.727  -0.443 -0.62 -0.00    +0.000 A 
DOCKED: ATOM      5  C   UNL     1      25.807 -18.604  -0.420 -0.52 -0.00    +0.000 A 
DOCKED: ATOM      6  C   UNL     1      27.096 -18.141  -0.700 -0.35 -0.00    +0.000 A 
DOCKED: ATOM      7  C   UNL     1      27.311 -16.787  -0.999 -0.40 -0.00    +0.000 A 
DOCKED: ATOM      8  C   UNL     1      26.224 -15.903  -1.003 -0.40 -0.00    +0.000 A 
DOCKED: ATOM      9  C   UNL     1      24.935 -16.365  -0.725 -0.42 -0.00    +0.000 A 
DOCKED: BRANCH   4  11
DOCKED: ATOM     10  C   UNL     1      22.363 -18.320  -1.019 -0.80 -0.00    +0.000 C 
DOCKED: ATOM     11  C   UNL     1      23.363 -18.263  -0.128 -0.78 -0.00    +0.000 C 
DOCKED: BRANCH  10  13
DOCKED: ATOM     12  O   UNL     1      20.011 -18.205  -1.030 -1.91 -0.00    +0.000 OA
DOCKED: ATOM     13  C   UNL     1      21.030 -18.871  -0.704 -0.88 -0.00    +0.000 C 
DOCKED: ATOM     14  N   UNL     1      20.861 -20.117  -0.015 -0.66 -0.00    +0.000 N 
DOCKED: ATOM     15  H   UNL     1      21.648 -20.591   0.340 -0.58 -0.00    +0.000 HD
DOCKED: BRANCH  14  16
DOCKED: ATOM     16  O   UNL     1      19.625 -20.644   0.150 -0.80 -0.00    +0.000 OA
DOCKED: ATOM     17  H   UNL     1      19.184 -20.713  -0.712 -0.45 -0.00    +0.000 HD
DOCKED: ENDBRANCH  14  16
DOCKED: ENDBRANCH  10  13
DOCKED: ENDBRANCH   4  11
DOCKED: ENDBRANCH   3   7
DOCKED: ENDBRANCH   1   3
DOCKED: BRANCH   1  18
DOCKED: ATOM     18  C   UNL     1      29.903 -14.200  -0.793 -0.07 -0.00    +0.000 C 
DOCKED: BRANCH  18  19
DOCKED: ATOM     19  C   UNL     1      29.822 -14.103   0.739 -0.12 -0.00    +0.000 C 
DOCKED: BRANCH  19  20
DOCKED: ATOM     20  O   UNL     1      28.663 -14.726   1.226 -0.26 -0.00    +0.000 OA
DOCKED: ATOM     21  H   UNL     1      28.882 -15.240   2.019 -1.68 -0.00    +0.000 HD
DOCKED: ENDBRANCH  19  20
DOCKED: ENDBRANCH  18  19
DOCKED: ENDBRANCH   1  18
DOCKED: BRANCH   1  22
DOCKED: ATOM     22  C   UNL     1      28.379 -14.338  -2.762 -0.16 -0.00    +0.000 C 
DOCKED: BRANCH  22  23
DOCKED: ATOM     23  C   UNL     1      27.848 -15.444  -3.694 -0.33 -0.00    +0.000 C 
DOCKED: BRANCH  23  24
DOCKED: ATOM     24  C   UNL     1      28.599 -15.435  -4.991 -0.32 -0.00    +0.000 A 
DOCKED: ATOM     25  C   UNL     1      28.440 -14.532  -6.038 -0.34 -0.00    +0.000 A 
DOCKED: ATOM     26  N   UNL     1      29.228 -14.876  -7.081 -0.34 -0.00    +0.000 N 
DOCKED: ATOM     27  C   UNL     1      29.872 -15.996  -6.708 -0.27 -0.00    +0.000 A 
DOCKED: ATOM     28  C   UNL     1      29.509 -16.373  -5.440 -0.29 -0.00    +0.000 A 
DOCKED: ATOM     29  C   UNL     1      30.020 -17.522  -4.839 -0.27 -0.00    +0.000 A 
DOCKED: ATOM     30  C   UNL     1      30.940 -18.292  -5.573 -0.26 -0.00    +0.000 A 
DOCKED: ATOM     31  C   UNL     1      31.320 -17.902  -6.878 -0.25 -0.00    +0.000 A 
DOCKED: ATOM     32  C   UNL     1      30.780 -16.741  -7.460 -0.29 -0.00    +0.000 A 
DOCKED: ATOM     33  H   UNL     1      29.314 -14.403  -7.940 -0.37 -0.00    +0.000 HD
DOCKED: ENDBRANCH  23  24
DOCKED: ENDBRANCH  22  23
DOCKED: ENDBRANCH   1  22
DOCKED: TORSDOF 11
DOCKED: TER
DOCKED: ENDMDL
________________________________________________________________________________


	BEGINNING GENETIC ALGORITHM DOCKING 64 of 100
Run: 64 Seed: 587217120 2123528866 [ Run 64 of 100 GA/GALS ]
Beginning LAMARCKIAN GENETIC ALGORITHM (LGA), with a maximum of 2500000 energy evaluations.

Final-Value: -15.968


	FINAL GENETIC ALGORITHM DOCKED STATE
	_______________________________________________


Detailed state:  trans 29.176 -15.320 0.866 quatxyzw -0.458479 0.752869 -0.416224 -0.223030 center 0.459 0.118 0.005 ntor 11 -143.9704 178.6756 -36.0813 178.9977 -80.6239 -140.8358 -162.3468 -111.3014 -174.6152 -13.3184 39.1637
State:	 29.176 -15.320   0.866  -0.470  0.772 -0.427 -154.226   -143.97  178.68  -36.08  179.00  -80.62 -140.84 -162.35 -111.30 -174.62  -13.32   39.16

DOCKED: MODEL       64
DOCKED: USER    Run = 64
DOCKED: USER    DPF = ligand_dock.biased.dpf
DOCKED: USER  
DOCKED: USER    Estimated Free Energy of Binding    =  -10.91 kcal/mol  [=(1)+(2)+(3)-(4)]
DOCKED: USER    Estimated Inhibition Constant, Ki   =   10.09 nM (nanomolar)  [Temperature = 298.15 K]
DOCKED: USER    
DOCKED: USER    (1) Final Intermolecular Energy     =  -14.19 kcal/mol
DOCKED: USER        vdW + Hbond + desolv Energy     =  -14.19 kcal/mol
DOCKED: USER        Electrostatic Energy            =   +0.00 kcal/mol
DOCKED: USER    (2) Final Total Internal Energy     =   -1.78 kcal/mol
DOCKED: USER    (3) Torsional Free Energy           =   +3.28 kcal/mol
DOCKED: USER    (4) Unbound System's Energy  [=(2)] =   -1.78 kcal/mol
DOCKED: USER    
DOCKED: USER    
DOCKED: USER    NEWDPF move ligand.pdbqt
DOCKED: USER    NEWDPF about 0.459000 0.118000 0.005000
DOCKED: USER    NEWDPF tran0 29.175968 -15.319798 0.866331
DOCKED: USER    NEWDPF quaternion0 -0.458479 0.752869 -0.416224 -0.223030
DOCKED: USER    NEWDPF axisangle0 -0.470326 0.772322 -0.426979 -154.225818
DOCKED: USER    NEWDPF quat0 -0.470326 0.772322 -0.426979 -154.225818
DOCKED: USER    NEWDPF dihe0 -143.97 178.68 -36.08 179.00 -80.62 -140.84 -162.35 -111.30 -174.62 -13.32 39.16 
DOCKED: USER  keepresnum = 1 
DOCKED: USER  
DOCKED: REMARK  Name = 
DOCKED: REMARK  11 active torsions:
DOCKED: REMARK  status: ('A' for Active; 'I' for Inactive)
DOCKED: REMARK    1  A    between atoms: C_2  and  C_5
DOCKED: REMARK    2  A    between atoms: N_3  and  O_4
DOCKED: REMARK    3  A    between atoms: C_6  and  C_7
DOCKED: REMARK    4  A    between atoms: C_10  and  C_11
DOCKED: REMARK    5  A    between atoms: C_11  and  N_12
DOCKED: REMARK    6  A    between atoms: N_12  and  C_13
DOCKED: REMARK    7  A    between atoms: N_12  and  C_16
DOCKED: REMARK    8  A    between atoms: C_13  and  C_14
DOCKED: REMARK    9  A    between atoms: C_14  and  O_15
DOCKED: REMARK   10  A    between atoms: C_16  and  C_17
DOCKED: REMARK   11  A    between atoms: C_17  and  C_18
DOCKED: REMARK                            x       y       z     vdW  Elec       q    Type
DOCKED: REMARK                         _______ _______ _______ _____ _____    ______ ____
DOCKED: USER                              x       y       z     vdW  Elec       q    Type
DOCKED: USER                           _______ _______ _______ _____ _____    ______ ____
DOCKED: ROOT
DOCKED: ATOM      1  N   UNL     1      30.244 -14.800   1.831 -0.14 -0.00    +0.000 N 
DOCKED: ATOM      2  H   UNL     1      29.313 -14.940   2.224 -1.59 -0.00    +0.000 HD
DOCKED: ENDROOT
DOCKED: BRANCH   1   3
DOCKED: ATOM      3  C   UNL     1      30.232 -15.279   0.432 -0.14 -0.00    +0.000 C 
DOCKED: BRANCH   3   7
DOCKED: ATOM      4  C   UNL     1      26.209 -16.419  -0.680 -0.44 -0.00    +0.000 A 
DOCKED: ATOM      5  C   UNL     1      27.268 -17.333  -0.806 -0.43 -0.00    +0.000 A 
DOCKED: ATOM      6  C   UNL     1      28.571 -16.966  -0.456 -0.22 -0.00    +0.000 A 
DOCKED: ATOM      7  C   UNL     1      28.835 -15.678   0.035 -0.18 -0.00    +0.000 A 
DOCKED: ATOM      8  C   UNL     1      27.779 -14.769   0.182 -0.23 -0.00    +0.000 A 
DOCKED: ATOM      9  C   UNL     1      26.476 -15.134  -0.168 -0.23 -0.00    +0.000 A 
DOCKED: BRANCH   4  11
DOCKED: ATOM     10  C   UNL     1      24.199 -17.867  -0.444 -0.75 -0.00    +0.000 C 
DOCKED: ATOM     11  C   UNL     1      24.842 -16.859  -1.052 -0.64 -0.00    +0.000 C 
DOCKED: BRANCH  10  13
DOCKED: ATOM     12  O   UNL     1      22.657 -19.457  -1.243 -0.80 -0.00    +0.000 OA
DOCKED: ATOM     13  C   UNL     1      22.831 -18.288  -0.805 -0.83 -0.00    +0.000 C 
DOCKED: ATOM     14  N   UNL     1      21.707 -17.403  -0.704 -0.73 -0.00    +0.000 N 
DOCKED: ATOM     15  H   UNL     1      21.847 -16.458  -0.468 -0.05 -0.00    +0.000 HD
DOCKED: BRANCH  14  16
DOCKED: ATOM     16  O   UNL     1      20.454 -17.863  -0.933 -2.23 -0.00    +0.000 OA
DOCKED: ATOM     17  H   UNL     1      19.932 -17.176  -1.377 -0.61 -0.00    +0.000 HD
DOCKED: ENDBRANCH  14  16
DOCKED: ENDBRANCH  10  13
DOCKED: ENDBRANCH   4  11
DOCKED: ENDBRANCH   3   7
DOCKED: ENDBRANCH   1   3
DOCKED: BRANCH   1  18
DOCKED: ATOM     18  C   UNL     1      31.153 -15.612   2.675 -0.08 -0.00    +0.000 C 
DOCKED: BRANCH  18  19
DOCKED: ATOM     19  C   UNL     1      32.090 -16.496   1.837 -0.18 -0.00    +0.000 C 
DOCKED: BRANCH  19  20
DOCKED: ATOM     20  O   UNL     1      31.912 -17.854   2.140 -0.28 -0.00    +0.000 OA
DOCKED: ATOM     21  H   UNL     1      31.606 -18.324   1.348 -0.04 -0.00    +0.000 HD
DOCKED: ENDBRANCH  19  20
DOCKED: ENDBRANCH  18  19
DOCKED: ENDBRANCH   1  18
DOCKED: BRANCH   1  22
DOCKED: ATOM     22  C   UNL     1      30.473 -13.336   1.917 -0.09 -0.00    +0.000 C 
DOCKED: BRANCH  22  23
DOCKED: ATOM     23  C   UNL     1      29.315 -12.553   2.566 -0.13 -0.00    +0.000 C 
DOCKED: BRANCH  23  24
DOCKED: ATOM     24  C   UNL     1      29.090 -13.028   3.970 -0.23 -0.00    +0.000 A 
DOCKED: ATOM     25  C   UNL     1      28.576 -14.262   4.358 -0.45 -0.00    +0.000 A 
DOCKED: ATOM     26  N   UNL     1      28.438 -14.314   5.702 -0.39 -0.00    +0.000 N 
DOCKED: ATOM     27  C   UNL     1      28.847 -13.119   6.164 -0.38 -0.00    +0.000 A 
DOCKED: ATOM     28  C   UNL     1      29.247 -12.304   5.136 -0.23 -0.00    +0.000 A 
DOCKED: ATOM     29  C   UNL     1      29.688 -11.001   5.358 -0.13 -0.00    +0.000 A 
DOCKED: ATOM     30  C   UNL     1      29.723 -10.539   6.686 -0.19 +0.00    +0.000 A 
DOCKED: ATOM     31  C   UNL     1      29.317 -11.379   7.748 -0.30 -0.00    +0.000 A 
DOCKED: ATOM     32  C   UNL     1      28.869 -12.687   7.490 -0.37 -0.00    +0.000 A 
DOCKED: ATOM     33  H   UNL     1      28.107 -15.072   6.235 -0.48 -0.00    +0.000 HD
DOCKED: ENDBRANCH  23  24
DOCKED: ENDBRANCH  22  23
DOCKED: ENDBRANCH   1  22
DOCKED: TORSDOF 11
DOCKED: TER
DOCKED: ENDMDL
________________________________________________________________________________


	BEGINNING GENETIC ALGORITHM DOCKING 65 of 100
Run: 65 Seed: 1792775238 347140033 [ Run 65 of 100 GA/GALS ]
Beginning LAMARCKIAN GENETIC ALGORITHM (LGA), with a maximum of 2500000 energy evaluations.

Final-Value: -15.739


	FINAL GENETIC ALGORITHM DOCKED STATE
	_______________________________________________


Detailed state:  trans 27.607 -16.981 -1.098 quatxyzw 0.078285 -0.308681 -0.858710 0.401503 center 0.459 0.118 0.005 ntor 11 -15.8058 112.5337 45.9772 60.8951 -160.6718 178.4317 157.4700 -75.5740 -48.8026 -136.2206 49.7692
State:	 27.607 -16.981  -1.098   0.085 -0.337 -0.938 132.656    -15.81  112.53   45.98   60.90 -160.67  178.43  157.47  -75.57  -48.80 -136.22   49.77

DOCKED: MODEL       65
DOCKED: USER    Run = 65
DOCKED: USER    DPF = ligand_dock.biased.dpf
DOCKED: USER  
DOCKED: USER    Estimated Free Energy of Binding    =   -9.65 kcal/mol  [=(1)+(2)+(3)-(4)]
DOCKED: USER    Estimated Inhibition Constant, Ki   =   85.12 nM (nanomolar)  [Temperature = 298.15 K]
DOCKED: USER    
DOCKED: USER    (1) Final Intermolecular Energy     =  -12.93 kcal/mol
DOCKED: USER        vdW + Hbond + desolv Energy     =  -12.93 kcal/mol
DOCKED: USER        Electrostatic Energy            =   +0.00 kcal/mol
DOCKED: USER    (2) Final Total Internal Energy     =   -2.81 kcal/mol
DOCKED: USER    (3) Torsional Free Energy           =   +3.28 kcal/mol
DOCKED: USER    (4) Unbound System's Energy  [=(2)] =   -2.81 kcal/mol
DOCKED: USER    
DOCKED: USER    
DOCKED: USER    NEWDPF move ligand.pdbqt
DOCKED: USER    NEWDPF about 0.459000 0.118000 0.005000
DOCKED: USER    NEWDPF tran0 27.606609 -16.981126 -1.098193
DOCKED: USER    NEWDPF quaternion0 0.078285 -0.308681 -0.858710 0.401503
DOCKED: USER    NEWDPF axisangle0 0.085477 -0.337040 -0.937602 132.655705
DOCKED: USER    NEWDPF quat0 0.085477 -0.337040 -0.937602 132.655705
DOCKED: USER    NEWDPF dihe0 -15.81 112.53 45.98 60.90 -160.67 178.43 157.47 -75.57 -48.80 -136.22 49.77 
DOCKED: USER  keepresnum = 1 
DOCKED: USER  
DOCKED: REMARK  Name = 
DOCKED: REMARK  11 active torsions:
DOCKED: REMARK  status: ('A' for Active; 'I' for Inactive)
DOCKED: REMARK    1  A    between atoms: C_2  and  C_5
DOCKED: REMARK    2  A    between atoms: N_3  and  O_4
DOCKED: REMARK    3  A    between atoms: C_6  and  C_7
DOCKED: REMARK    4  A    between atoms: C_10  and  C_11
DOCKED: REMARK    5  A    between atoms: C_11  and  N_12
DOCKED: REMARK    6  A    between atoms: N_12  and  C_13
DOCKED: REMARK    7  A    between atoms: N_12  and  C_16
DOCKED: REMARK    8  A    between atoms: C_13  and  C_14
DOCKED: REMARK    9  A    between atoms: C_14  and  O_15
DOCKED: REMARK   10  A    between atoms: C_16  and  C_17
DOCKED: REMARK   11  A    between atoms: C_17  and  C_18
DOCKED: REMARK                            x       y       z     vdW  Elec       q    Type
DOCKED: REMARK                         _______ _______ _______ _____ _____    ______ ____
DOCKED: USER                              x       y       z     vdW  Elec       q    Type
DOCKED: USER                           _______ _______ _______ _____ _____    ______ ____
DOCKED: ROOT
DOCKED: ATOM      1  N   UNL     1      29.123 -16.972  -1.305 -0.27 -0.00    +0.000 N 
DOCKED: ATOM      2  H   UNL     1      28.556 -17.139  -2.137 -0.02 -0.00    +0.000 HD
DOCKED: ENDROOT
DOCKED: BRANCH   1   3
DOCKED: ATOM      3  C   UNL     1      28.212 -16.682  -0.177 -0.24 -0.00    +0.000 C 
DOCKED: BRANCH   3   7
DOCKED: ATOM      4  C   UNL     1      24.172 -17.873  -1.164 -0.68 -0.00    +0.000 A 
DOCKED: ATOM      5  C   UNL     1      24.887 -18.547  -0.161 -0.49 -0.00    +0.000 A 
DOCKED: ATOM      6  C   UNL     1      26.196 -18.171   0.155 -0.55 -0.00    +0.000 A 
DOCKED: ATOM      7  C   UNL     1      26.809 -17.106  -0.522 -0.47 -0.00    +0.000 A 
DOCKED: ATOM      8  C   UNL     1      26.093 -16.417  -1.510 -0.46 -0.00    +0.000 A 
DOCKED: ATOM      9  C   UNL     1      24.785 -16.792  -1.828 -0.56 -0.00    +0.000 A 
DOCKED: BRANCH   4  11
DOCKED: ATOM     10  C   UNL     1      22.024 -18.993  -0.592 -0.83 -0.00    +0.000 C 
DOCKED: ATOM     11  C   UNL     1      22.781 -18.300  -1.456 -0.66 -0.00    +0.000 C 
DOCKED: BRANCH  10  13
DOCKED: ATOM     12  O   UNL     1      20.343 -19.763  -2.051 -1.80 -0.00    +0.000 OA
DOCKED: ATOM     13  C   UNL     1      20.634 -19.399  -0.880 -0.90 -0.00    +0.000 C 
DOCKED: ATOM     14  N   UNL     1      19.605 -19.362   0.118 -0.75 -0.00    +0.000 N 
DOCKED: ATOM     15  H   UNL     1      19.796 -18.978   1.003 -0.21 -0.00    +0.000 HD
DOCKED: BRANCH  14  16
DOCKED: ATOM     16  O   UNL     1      18.373 -19.853  -0.155 -0.80 -0.00    +0.000 OA
DOCKED: ATOM     17  H   UNL     1      18.271 -19.960  -1.114 -0.42 -0.00    +0.000 HD
DOCKED: ENDBRANCH  14  16
DOCKED: ENDBRANCH  10  13
DOCKED: ENDBRANCH   4  11
DOCKED: ENDBRANCH   3   7
DOCKED: ENDBRANCH   1   3
DOCKED: BRANCH   1  18
DOCKED: ATOM     18  C   UNL     1      29.969 -15.801  -1.635 -0.14 -0.00    +0.000 C 
DOCKED: BRANCH  18  19
DOCKED: ATOM     19  C   UNL     1      29.496 -15.079  -2.906 -0.14 -0.00    +0.000 C 
DOCKED: BRANCH  19  20
DOCKED: ATOM     20  O   UNL     1      29.061 -15.993  -3.877 -0.27 -0.00    +0.000 OA
DOCKED: ATOM     21  H   UNL     1      28.414 -16.599  -3.483 -0.02 -0.00    +0.000 HD
DOCKED: ENDBRANCH  19  20
DOCKED: ENDBRANCH  18  19
DOCKED: ENDBRANCH   1  18
DOCKED: BRANCH   1  22
DOCKED: ATOM     22  C   UNL     1      29.875 -18.235  -1.102 -0.16 -0.00    +0.000 C 
DOCKED: BRANCH  22  23
DOCKED: ATOM     23  C   UNL     1      31.399 -18.047  -0.971 -0.17 -0.00    +0.000 C 
DOCKED: BRANCH  23  24
DOCKED: ATOM     24  C   UNL     1      31.793 -17.988   0.474 -0.13 -0.00    +0.000 A 
DOCKED: ATOM     25  C   UNL     1      32.245 -16.870   1.168 -0.13 -0.00    +0.000 A 
DOCKED: ATOM     26  N   UNL     1      32.582 -17.205   2.434 -0.22 -0.00    +0.000 N 
DOCKED: ATOM     27  C   UNL     1      32.361 -18.526   2.541 -0.23 -0.00    +0.000 A 
DOCKED: ATOM     28  C   UNL     1      31.884 -19.042   1.363 -0.12 -0.00    +0.000 A 
DOCKED: ATOM     29  C   UNL     1      31.604 -20.400   1.213 -0.17 -0.00    +0.000 A 
DOCKED: ATOM     30  C   UNL     1      31.816 -21.238   2.323 -0.25 -0.00    +0.000 A 
DOCKED: ATOM     31  C   UNL     1      32.302 -20.707   3.539 -0.34 -0.00    +0.000 A 
DOCKED: ATOM     32  C   UNL     1      32.582 -19.334   3.656 -0.33 -0.00    +0.000 A 
DOCKED: ATOM     33  H   UNL     1      32.921 -16.603   3.136 -0.01 -0.00    +0.000 HD
DOCKED: ENDBRANCH  23  24
DOCKED: ENDBRANCH  22  23
DOCKED: ENDBRANCH   1  22
DOCKED: TORSDOF 11
DOCKED: TER
DOCKED: ENDMDL
________________________________________________________________________________


	BEGINNING GENETIC ALGORITHM DOCKING 66 of 100
Run: 66 Seed: 402764706 2060603447 [ Run 66 of 100 GA/GALS ]
Beginning LAMARCKIAN GENETIC ALGORITHM (LGA), with a maximum of 2500000 energy evaluations.

Final-Value: -18.692


	FINAL GENETIC ALGORITHM DOCKED STATE
	_______________________________________________


Detailed state:  trans 28.571 -16.125 0.444 quatxyzw 0.666799 -0.622136 0.389689 0.128327 center 0.459 0.118 0.005 ntor 11 12.7423 74.9659 113.3614 -0.1199 78.2203 -176.1936 -18.6937 62.2209 -142.5513 -9.0122 69.4040
State:	 28.571 -16.125   0.444   0.672 -0.627  0.393 165.254     12.74   74.97  113.36   -0.12   78.22 -176.19  -18.69   62.22 -142.55   -9.01   69.40

DOCKED: MODEL       66
DOCKED: USER    Run = 66
DOCKED: USER    DPF = ligand_dock.biased.dpf
DOCKED: USER  
DOCKED: USER    Estimated Free Energy of Binding    =  -12.77 kcal/mol  [=(1)+(2)+(3)-(4)]
DOCKED: USER    Estimated Inhibition Constant, Ki   =  437.07 pM (picomolar)  [Temperature = 298.15 K]
DOCKED: USER    
DOCKED: USER    (1) Final Intermolecular Energy     =  -16.05 kcal/mol
DOCKED: USER        vdW + Hbond + desolv Energy     =  -16.05 kcal/mol
DOCKED: USER        Electrostatic Energy            =   +0.00 kcal/mol
DOCKED: USER    (2) Final Total Internal Energy     =   -2.64 kcal/mol
DOCKED: USER    (3) Torsional Free Energy           =   +3.28 kcal/mol
DOCKED: USER    (4) Unbound System's Energy  [=(2)] =   -2.64 kcal/mol
DOCKED: USER    
DOCKED: USER    
DOCKED: USER    NEWDPF move ligand.pdbqt
DOCKED: USER    NEWDPF about 0.459000 0.118000 0.005000
DOCKED: USER    NEWDPF tran0 28.570906 -16.125008 0.443580
DOCKED: USER    NEWDPF quaternion0 0.666799 -0.622136 0.389689 0.128327
DOCKED: USER    NEWDPF axisangle0 0.672359 -0.627323 0.392937 165.254186
DOCKED: USER    NEWDPF quat0 0.672359 -0.627323 0.392937 165.254186
DOCKED: USER    NEWDPF dihe0 12.74 74.97 113.36 -0.12 78.22 -176.19 -18.69 62.22 -142.55 -9.01 69.40 
DOCKED: USER  keepresnum = 1 
DOCKED: USER  
DOCKED: REMARK  Name = 
DOCKED: REMARK  11 active torsions:
DOCKED: REMARK  status: ('A' for Active; 'I' for Inactive)
DOCKED: REMARK    1  A    between atoms: C_2  and  C_5
DOCKED: REMARK    2  A    between atoms: N_3  and  O_4
DOCKED: REMARK    3  A    between atoms: C_6  and  C_7
DOCKED: REMARK    4  A    between atoms: C_10  and  C_11
DOCKED: REMARK    5  A    between atoms: C_11  and  N_12
DOCKED: REMARK    6  A    between atoms: N_12  and  C_13
DOCKED: REMARK    7  A    between atoms: N_12  and  C_16
DOCKED: REMARK    8  A    between atoms: C_13  and  C_14
DOCKED: REMARK    9  A    between atoms: C_14  and  O_15
DOCKED: REMARK   10  A    between atoms: C_16  and  C_17
DOCKED: REMARK   11  A    between atoms: C_17  and  C_18
DOCKED: REMARK                            x       y       z     vdW  Elec       q    Type
DOCKED: REMARK                         _______ _______ _______ _____ _____    ______ ____
DOCKED: USER                              x       y       z     vdW  Elec       q    Type
DOCKED: USER                           _______ _______ _______ _____ _____    ______ ____
DOCKED: ROOT
DOCKED: ATOM      1  N   UNL     1      29.541 -15.034   0.903 -0.14 -0.00    +0.000 N 
DOCKED: ATOM      2  H   UNL     1      28.853 -15.343   1.590 -1.23 -0.00    +0.000 HD
DOCKED: ENDROOT
DOCKED: BRANCH   1   3
DOCKED: ATOM      3  C   UNL     1      29.399 -15.878  -0.304 -0.20 -0.00    +0.000 C 
DOCKED: BRANCH   3   7
DOCKED: ATOM      4  C   UNL     1      25.227 -16.846  -0.919 -0.54 -0.00    +0.000 A 
DOCKED: ATOM      5  C   UNL     1      26.174 -17.866  -0.727 -0.55 -0.00    +0.000 A 
DOCKED: ATOM      6  C   UNL     1      27.524 -17.558  -0.536 -0.36 -0.00    +0.000 A 
DOCKED: ATOM      7  C   UNL     1      27.950 -16.221  -0.526 -0.30 -0.00    +0.000 A 
DOCKED: ATOM      8  C   UNL     1      27.008 -15.198  -0.697 -0.29 -0.00    +0.000 A 
DOCKED: ATOM      9  C   UNL     1      25.657 -15.504  -0.888 -0.36 -0.00    +0.000 A 
DOCKED: BRANCH   4  11
DOCKED: ATOM     10  C   UNL     1      23.269 -18.353  -0.623 -0.82 -0.00    +0.000 C 
DOCKED: ATOM     11  C   UNL     1      23.804 -17.221  -1.104 -0.71 -0.00    +0.000 C 
DOCKED: BRANCH  10  13
DOCKED: ATOM     12  O   UNL     1      21.005 -18.235   0.011 -1.52 -0.00    +0.000 OA
DOCKED: ATOM     13  C   UNL     1      21.848 -18.713  -0.794 -0.85 -0.00    +0.000 C 
DOCKED: ATOM     14  N   UNL     1      21.405 -19.609  -1.822 -0.49 -0.00    +0.000 N 
DOCKED: ATOM     15  H   UNL     1      22.065 -20.072  -2.386 -0.59 -0.00    +0.000 HD
DOCKED: BRANCH  14  16
DOCKED: ATOM     16  O   UNL     1      20.082 -19.821  -2.019 -1.86 -0.00    +0.000 OA
DOCKED: ATOM     17  H   UNL     1      19.571 -19.153  -1.534 -0.22 -0.00    +0.000 HD
DOCKED: ENDBRANCH  14  16
DOCKED: ENDBRANCH  10  13
DOCKED: ENDBRANCH   4  11
DOCKED: ENDBRANCH   3   7
DOCKED: ENDBRANCH   1   3
DOCKED: BRANCH   1  18
DOCKED: ATOM     18  C   UNL     1      30.860 -15.232   1.551 -0.11 -0.00    +0.000 C 
DOCKED: BRANCH  18  19
DOCKED: ATOM     19  C   UNL     1      30.899 -14.663   2.978 -0.22 -0.00    +0.000 C 
DOCKED: BRANCH  19  20
DOCKED: ATOM     20  O   UNL     1      29.628 -14.694   3.572 -0.36 -0.00    +0.000 OA
DOCKED: ATOM     21  H   UNL     1      29.042 -15.265   3.051 -1.86 -0.00    +0.000 HD
DOCKED: ENDBRANCH  19  20
DOCKED: ENDBRANCH  18  19
DOCKED: ENDBRANCH   1  18
DOCKED: BRANCH   1  22
DOCKED: ATOM     22  C   UNL     1      29.196 -13.617   0.634 -0.13 -0.00    +0.000 C 
DOCKED: BRANCH  22  23
DOCKED: ATOM     23  C   UNL     1      28.632 -12.862   1.854 -0.17 -0.00    +0.000 C 
DOCKED: BRANCH  23  24
DOCKED: ATOM     24  C   UNL     1      27.315 -12.233   1.512 -0.23 -0.00    +0.000 A 
DOCKED: ATOM     25  C   UNL     1      26.097 -12.887   1.355 -0.28 -0.00    +0.000 A 
DOCKED: ATOM     26  N   UNL     1      25.139 -12.014   0.970 -0.28 +0.00    +0.000 N 
DOCKED: ATOM     27  C   UNL     1      25.745 -10.819   0.869 -0.32 +0.00    +0.000 A 
DOCKED: ATOM     28  C   UNL     1      27.075 -10.912   1.186 -0.22 +0.00    +0.000 A 
DOCKED: ATOM     29  C   UNL     1      27.926  -9.809   1.128 -0.12 +0.00    +0.000 A 
DOCKED: ATOM     30  C   UNL     1      27.372  -8.575   0.741 -0.14 +0.00    +0.000 A 
DOCKED: ATOM     31  C   UNL     1      25.999  -8.475   0.419 -0.22 +0.00    +0.000 A 
DOCKED: ATOM     32  C   UNL     1      25.169  -9.609   0.479 -0.30 +0.00    +0.000 A 
DOCKED: ATOM     33  H   UNL     1      24.190 -12.214   0.799 -0.04 +0.00    +0.000 HD
DOCKED: ENDBRANCH  23  24
DOCKED: ENDBRANCH  22  23
DOCKED: ENDBRANCH   1  22
DOCKED: TORSDOF 11
DOCKED: TER
DOCKED: ENDMDL
________________________________________________________________________________


	BEGINNING GENETIC ALGORITHM DOCKING 67 of 100
Run: 67 Seed: 2005844299 1183218930 [ Run 67 of 100 GA/GALS ]
Beginning LAMARCKIAN GENETIC ALGORITHM (LGA), with a maximum of 2500000 energy evaluations.

Final-Value: -19.148


	FINAL GENETIC ALGORITHM DOCKED STATE
	_______________________________________________


Detailed state:  trans 28.287 -16.439 -0.193 quatxyzw -0.763927 0.570872 -0.228368 -0.195883 center 0.459 0.118 0.005 ntor 11 79.0934 4.2067 158.2205 -25.3923 55.0535 -149.9383 -19.3525 -42.5128 179.4957 71.6519 72.9595
State:	 28.287 -16.439  -0.193  -0.779  0.582 -0.233 -157.407     79.09    4.21  158.22  -25.39   55.05 -149.94  -19.35  -42.51  179.50   71.65   72.96

DOCKED: MODEL       67
DOCKED: USER    Run = 67
DOCKED: USER    DPF = ligand_dock.biased.dpf
DOCKED: USER  
DOCKED: USER    Estimated Free Energy of Binding    =  -13.80 kcal/mol  [=(1)+(2)+(3)-(4)]
DOCKED: USER    Estimated Inhibition Constant, Ki   =   76.34 pM (picomolar)  [Temperature = 298.15 K]
DOCKED: USER    
DOCKED: USER    (1) Final Intermolecular Energy     =  -17.08 kcal/mol
DOCKED: USER        vdW + Hbond + desolv Energy     =  -17.08 kcal/mol
DOCKED: USER        Electrostatic Energy            =   +0.00 kcal/mol
DOCKED: USER    (2) Final Total Internal Energy     =   -2.06 kcal/mol
DOCKED: USER    (3) Torsional Free Energy           =   +3.28 kcal/mol
DOCKED: USER    (4) Unbound System's Energy  [=(2)] =   -2.06 kcal/mol
DOCKED: USER    
DOCKED: USER    
DOCKED: USER    NEWDPF move ligand.pdbqt
DOCKED: USER    NEWDPF about 0.459000 0.118000 0.005000
DOCKED: USER    NEWDPF tran0 28.286695 -16.439488 -0.192914
DOCKED: USER    NEWDPF quaternion0 -0.763927 0.570872 -0.228368 -0.195883
DOCKED: USER    NEWDPF axisangle0 -0.779018 0.582149 -0.232879 -157.407388
DOCKED: USER    NEWDPF quat0 -0.779018 0.582149 -0.232879 -157.407388
DOCKED: USER    NEWDPF dihe0 79.09 4.21 158.22 -25.39 55.05 -149.94 -19.35 -42.51 179.50 71.65 72.96 
DOCKED: USER  keepresnum = 1 
DOCKED: USER  
DOCKED: REMARK  Name = 
DOCKED: REMARK  11 active torsions:
DOCKED: REMARK  status: ('A' for Active; 'I' for Inactive)
DOCKED: REMARK    1  A    between atoms: C_2  and  C_5
DOCKED: REMARK    2  A    between atoms: N_3  and  O_4
DOCKED: REMARK    3  A    between atoms: C_6  and  C_7
DOCKED: REMARK    4  A    between atoms: C_10  and  C_11
DOCKED: REMARK    5  A    between atoms: C_11  and  N_12
DOCKED: REMARK    6  A    between atoms: N_12  and  C_13
DOCKED: REMARK    7  A    between atoms: N_12  and  C_16
DOCKED: REMARK    8  A    between atoms: C_13  and  C_14
DOCKED: REMARK    9  A    between atoms: C_14  and  O_15
DOCKED: REMARK   10  A    between atoms: C_16  and  C_17
DOCKED: REMARK   11  A    between atoms: C_17  and  C_18
DOCKED: REMARK                            x       y       z     vdW  Elec       q    Type
DOCKED: REMARK                         _______ _______ _______ _____ _____    ______ ____
DOCKED: USER                              x       y       z     vdW  Elec       q    Type
DOCKED: USER                           _______ _______ _______ _____ _____    ______ ____
DOCKED: ROOT
DOCKED: ATOM      1  N   UNL     1      29.023 -15.219   0.365 -0.19 -0.00    +0.000 N 
DOCKED: ATOM      2  H   UNL     1      28.607 -15.847   1.053 -0.73 -0.00    +0.000 HD
DOCKED: ENDROOT
DOCKED: BRANCH   1   3
DOCKED: ATOM      3  C   UNL     1      28.838 -15.816  -0.976 -0.23 -0.00    +0.000 C 
DOCKED: BRANCH   3   7
DOCKED: ATOM      4  C   UNL     1      24.914 -17.616  -1.266 -0.62 -0.00    +0.000 A 
DOCKED: ATOM      5  C   UNL     1      25.663 -17.729  -0.084 -0.53 -0.00    +0.000 A 
DOCKED: ATOM      6  C   UNL     1      26.935 -17.157   0.011 -0.42 -0.00    +0.000 A 
DOCKED: ATOM      7  C   UNL     1      27.476 -16.452  -1.075 -0.36 -0.00    +0.000 A 
DOCKED: ATOM      8  C   UNL     1      26.725 -16.317  -2.250 -0.37 -0.00    +0.000 A 
DOCKED: ATOM      9  C   UNL     1      25.453 -16.889  -2.346 -0.45 -0.00    +0.000 A 
DOCKED: BRANCH   4  11
DOCKED: ATOM     10  C   UNL     1      22.613 -17.996  -0.398 -0.82 -0.00    +0.000 C 
DOCKED: ATOM     11  C   UNL     1      23.563 -18.228  -1.315 -0.79 -0.00    +0.000 C 
DOCKED: BRANCH  10  13
DOCKED: ATOM     12  O   UNL     1      20.295 -17.859  -0.787 -2.21 -0.00    +0.000 OA
DOCKED: ATOM     13  C   UNL     1      21.265 -18.594  -0.461 -0.80 -0.00    +0.000 C 
DOCKED: ATOM     14  N   UNL     1      21.022 -19.970  -0.134 -0.66 -0.00    +0.000 N 
DOCKED: ATOM     15  H   UNL     1      21.753 -20.523   0.225 -0.59 -0.00    +0.000 HD
DOCKED: BRANCH  14  16
DOCKED: ATOM     16  O   UNL     1      19.794 -20.509  -0.318 -0.86 -0.00    +0.000 OA
DOCKED: ATOM     17  H   UNL     1      19.672 -20.725  -1.256 -0.58 -0.00    +0.000 HD
DOCKED: ENDBRANCH  14  16
DOCKED: ENDBRANCH  10  13
DOCKED: ENDBRANCH   4  11
DOCKED: ENDBRANCH   3   7
DOCKED: ENDBRANCH   1   3
DOCKED: BRANCH   1  18
DOCKED: ATOM     18  C   UNL     1      30.458 -15.135   0.727 -0.13 -0.00    +0.000 C 
DOCKED: BRANCH  18  19
DOCKED: ATOM     19  C   UNL     1      30.691 -14.293   1.991 -0.14 -0.00    +0.000 C 
DOCKED: BRANCH  19  20
DOCKED: ATOM     20  O   UNL     1      30.290 -14.985   3.144 -0.26 -0.00    +0.000 OA
DOCKED: ATOM     21  H   UNL     1      29.359 -15.242   3.058 -1.82 -0.00    +0.000 HD
DOCKED: ENDBRANCH  19  20
DOCKED: ENDBRANCH  18  19
DOCKED: ENDBRANCH   1  18
DOCKED: BRANCH   1  22
DOCKED: ATOM     22  C   UNL     1      28.276 -13.946   0.514 -0.20 -0.00    +0.000 C 
DOCKED: BRANCH  22  23
DOCKED: ATOM     23  C   UNL     1      27.110 -14.013   1.519 -0.22 -0.00    +0.000 C 
DOCKED: BRANCH  23  24
DOCKED: ATOM     24  C   UNL     1      27.203 -12.882   2.499 -0.29 -0.00    +0.000 A 
DOCKED: ATOM     25  C   UNL     1      26.927 -11.541   2.251 -0.29 +0.00    +0.000 A 
DOCKED: ATOM     26  N   UNL     1      27.196 -10.794   3.345 -0.31 +0.00    +0.000 N 
DOCKED: ATOM     27  C   UNL     1      27.653 -11.649   4.276 -0.25 +0.00    +0.000 A 
DOCKED: ATOM     28  C   UNL     1      27.678 -12.933   3.795 -0.34 -0.00    +0.000 A 
DOCKED: ATOM     29  C   UNL     1      28.140 -13.999   4.566 -0.50 -0.00    +0.000 A 
DOCKED: ATOM     30  C   UNL     1      28.578 -13.720   5.873 -0.37 -0.00    +0.000 A 
DOCKED: ATOM     31  C   UNL     1      28.547 -12.398   6.373 -0.37 -0.00    +0.000 A 
DOCKED: ATOM     32  C   UNL     1      28.082 -11.343   5.567 -0.35 +0.00    +0.000 A 
DOCKED: ATOM     33  H   UNL     1      27.080  -9.821   3.440 -0.02 +0.00    +0.000 HD
DOCKED: ENDBRANCH  23  24
DOCKED: ENDBRANCH  22  23
DOCKED: ENDBRANCH   1  22
DOCKED: TORSDOF 11
DOCKED: TER
DOCKED: ENDMDL
________________________________________________________________________________


	BEGINNING GENETIC ALGORITHM DOCKING 68 of 100
Run: 68 Seed: 869716596 109301171 [ Run 68 of 100 GA/GALS ]
Beginning LAMARCKIAN GENETIC ALGORITHM (LGA), with a maximum of 2500000 energy evaluations.

Final-Value: -17.572


	FINAL GENETIC ALGORITHM DOCKED STATE
	_______________________________________________


Detailed state:  trans 26.662 -15.771 -1.274 quatxyzw -0.203248 0.014603 -0.979002 -0.005697 center 0.459 0.118 0.005 ntor 11 -2.3068 93.2674 -1.7853 144.1603 97.8845 120.0212 169.5222 -141.1167 -169.0171 88.8319 32.8429
State:	 26.662 -15.771  -1.274  -0.203  0.015 -0.979 -179.347     -2.31   93.27   -1.79  144.16   97.88  120.02  169.52 -141.12 -169.02   88.83   32.84

DOCKED: MODEL       68
DOCKED: USER    Run = 68
DOCKED: USER    DPF = ligand_dock.biased.dpf
DOCKED: USER  
DOCKED: USER    Estimated Free Energy of Binding    =  -11.52 kcal/mol  [=(1)+(2)+(3)-(4)]
DOCKED: USER    Estimated Inhibition Constant, Ki   =    3.61 nM (nanomolar)  [Temperature = 298.15 K]
DOCKED: USER    
DOCKED: USER    (1) Final Intermolecular Energy     =  -14.80 kcal/mol
DOCKED: USER        vdW + Hbond + desolv Energy     =  -14.80 kcal/mol
DOCKED: USER        Electrostatic Energy            =   +0.00 kcal/mol
DOCKED: USER    (2) Final Total Internal Energy     =   -2.77 kcal/mol
DOCKED: USER    (3) Torsional Free Energy           =   +3.28 kcal/mol
DOCKED: USER    (4) Unbound System's Energy  [=(2)] =   -2.77 kcal/mol
DOCKED: USER    
DOCKED: USER    
DOCKED: USER    NEWDPF move ligand.pdbqt
DOCKED: USER    NEWDPF about 0.459000 0.118000 0.005000
DOCKED: USER    NEWDPF tran0 26.661886 -15.771451 -1.274170
DOCKED: USER    NEWDPF quaternion0 -0.203248 0.014603 -0.979002 -0.005697
DOCKED: USER    NEWDPF axisangle0 -0.203251 0.014603 -0.979018 -179.347153
DOCKED: USER    NEWDPF quat0 -0.203251 0.014603 -0.979018 -179.347153
DOCKED: USER    NEWDPF dihe0 -2.31 93.27 -1.79 144.16 97.88 120.02 169.52 -141.12 -169.02 88.83 32.84 
DOCKED: USER  keepresnum = 1 
DOCKED: USER  
DOCKED: REMARK  Name = 
DOCKED: REMARK  11 active torsions:
DOCKED: REMARK  status: ('A' for Active; 'I' for Inactive)
DOCKED: REMARK    1  A    between atoms: C_2  and  C_5
DOCKED: REMARK    2  A    between atoms: N_3  and  O_4
DOCKED: REMARK    3  A    between atoms: C_6  and  C_7
DOCKED: REMARK    4  A    between atoms: C_10  and  C_11
DOCKED: REMARK    5  A    between atoms: C_11  and  N_12
DOCKED: REMARK    6  A    between atoms: N_12  and  C_13
DOCKED: REMARK    7  A    between atoms: N_12  and  C_16
DOCKED: REMARK    8  A    between atoms: C_13  and  C_14
DOCKED: REMARK    9  A    between atoms: C_14  and  O_15
DOCKED: REMARK   10  A    between atoms: C_16  and  C_17
DOCKED: REMARK   11  A    between atoms: C_17  and  C_18
DOCKED: REMARK                            x       y       z     vdW  Elec       q    Type
DOCKED: REMARK                         _______ _______ _______ _____ _____    ______ ____
DOCKED: USER                              x       y       z     vdW  Elec       q    Type
DOCKED: USER                           _______ _______ _______ _____ _____    ______ ____
DOCKED: ROOT
DOCKED: ATOM      1  N   UNL     1      27.508 -14.537  -1.593 -0.20 -0.00    +0.000 N 
DOCKED: ATOM      2  H   UNL     1      26.640 -14.636  -2.120 -0.00 -0.00    +0.000 HD
DOCKED: ENDROOT
DOCKED: BRANCH   1   3
DOCKED: ATOM      3  C   UNL     1      27.568 -15.626  -0.594 -0.33 -0.00    +0.000 C 
DOCKED: BRANCH   3   7
DOCKED: ATOM      4  C   UNL     1      24.029 -18.100  -0.872 -0.71 -0.00    +0.000 A 
DOCKED: ATOM      5  C   UNL     1      24.014 -16.779  -1.350 -0.52 -0.00    +0.000 A 
DOCKED: ATOM      6  C   UNL     1      25.152 -15.973  -1.254 -0.44 -0.00    +0.000 A 
DOCKED: ATOM      7  C   UNL     1      26.331 -16.479  -0.685 -0.44 -0.00    +0.000 A 
DOCKED: ATOM      8  C   UNL     1      26.359 -17.803  -0.226 -0.55 -0.00    +0.000 A 
DOCKED: ATOM      9  C   UNL     1      25.221 -18.609  -0.320 -0.53 -0.00    +0.000 A 
DOCKED: BRANCH   4  11
DOCKED: ATOM     10  C   UNL     1      21.563 -18.429  -0.849 -0.82 -0.00    +0.000 C 
DOCKED: ATOM     11  C   UNL     1      22.801 -18.920  -1.008 -0.82 -0.00    +0.000 C 
DOCKED: BRANCH  10  13
DOCKED: ATOM     12  O   UNL     1      20.090 -19.743  -2.134 -1.88 -0.00    +0.000 OA
DOCKED: ATOM     13  C   UNL     1      20.343 -19.247  -1.004 -0.89 -0.00    +0.000 C 
DOCKED: ATOM     14  N   UNL     1      19.427 -19.464   0.078 -0.75 -0.00    +0.000 N 
DOCKED: ATOM     15  H   UNL     1      19.557 -18.993   0.932 -0.23 -0.00    +0.000 HD
DOCKED: BRANCH  14  16
DOCKED: ATOM     16  O   UNL     1      18.384 -20.314  -0.072 -0.83 -0.00    +0.000 OA
DOCKED: ATOM     17  H   UNL     1      18.379 -20.665  -0.977 -0.36 -0.00    +0.000 HD
DOCKED: ENDBRANCH  14  16
DOCKED: ENDBRANCH  10  13
DOCKED: ENDBRANCH   4  11
DOCKED: ENDBRANCH   3   7
DOCKED: ENDBRANCH   1   3
DOCKED: BRANCH   1  18
DOCKED: ATOM     18  C   UNL     1      27.423 -13.207  -0.942 -0.18 -0.00    +0.000 C 
DOCKED: BRANCH  18  19
DOCKED: ATOM     19  C   UNL     1      26.912 -13.298   0.504 -0.30 -0.00    +0.000 C 
DOCKED: BRANCH  19  20
DOCKED: ATOM     20  O   UNL     1      25.511 -13.284   0.550 -0.43 -0.00    +0.000 OA
DOCKED: ATOM     21  H   UNL     1      25.157 -13.718  -0.243 -0.02 -0.00    +0.000 HD
DOCKED: ENDBRANCH  19  20
DOCKED: ENDBRANCH  18  19
DOCKED: ENDBRANCH   1  18
DOCKED: BRANCH   1  22
DOCKED: ATOM     22  C   UNL     1      28.582 -14.655  -2.609 -0.16 -0.00    +0.000 C 
DOCKED: BRANCH  22  23
DOCKED: ATOM     23  C   UNL     1      28.074 -14.703  -4.063 -0.28 -0.00    +0.000 C 
DOCKED: BRANCH  23  24
DOCKED: ATOM     24  C   UNL     1      26.803 -13.920  -4.195 -0.33 -0.00    +0.000 A 
DOCKED: ATOM     25  C   UNL     1      25.507 -14.427  -4.178 -0.47 -0.00    +0.000 A 
DOCKED: ATOM     26  N   UNL     1      24.611 -13.440  -4.403 -0.37 -0.00    +0.000 N 
DOCKED: ATOM     27  C   UNL     1      25.329 -12.317  -4.574 -0.25 -0.00    +0.000 A 
DOCKED: ATOM     28  C   UNL     1      26.672 -12.571  -4.461 -0.26 -0.00    +0.000 A 
DOCKED: ATOM     29  C   UNL     1      27.627 -11.568  -4.628 -0.13 -0.00    +0.000 A 
DOCKED: ATOM     30  C   UNL     1      27.170 -10.268  -4.909 -0.10 -0.00    +0.000 A 
DOCKED: ATOM     31  C   UNL     1      25.786 -10.004  -5.020 -0.22 -0.00    +0.000 A 
DOCKED: ATOM     32  C   UNL     1      24.847 -11.039  -4.855 -0.37 -0.00    +0.000 A 
DOCKED: ATOM     33  H   UNL     1      23.630 -13.526  -4.433 -0.61 -0.00    +0.000 HD
DOCKED: ENDBRANCH  23  24
DOCKED: ENDBRANCH  22  23
DOCKED: ENDBRANCH   1  22
DOCKED: TORSDOF 11
DOCKED: TER
DOCKED: ENDMDL
________________________________________________________________________________


	BEGINNING GENETIC ALGORITHM DOCKING 69 of 100
Run: 69 Seed: 2106902574 1200687998 [ Run 69 of 100 GA/GALS ]
Beginning LAMARCKIAN GENETIC ALGORITHM (LGA), with a maximum of 2500000 energy evaluations.

Final-Value: -17.393


	FINAL GENETIC ALGORITHM DOCKED STATE
	_______________________________________________


Detailed state:  trans 27.667 -16.054 -0.235 quatxyzw 0.722118 -0.646838 0.015155 0.244781 center 0.459 0.118 0.005 ntor 11 -0.5341 156.3781 8.4292 113.9456 64.9985 -53.5480 165.3760 -60.5035 -174.0221 63.6859 54.0929
State:	 27.667 -16.054  -0.235   0.745 -0.667  0.016 151.662     -0.53  156.38    8.43  113.95   65.00  -53.55  165.38  -60.50 -174.02   63.69   54.09

DOCKED: MODEL       69
DOCKED: USER    Run = 69
DOCKED: USER    DPF = ligand_dock.biased.dpf
DOCKED: USER  
DOCKED: USER    Estimated Free Energy of Binding    =  -11.85 kcal/mol  [=(1)+(2)+(3)-(4)]
DOCKED: USER    Estimated Inhibition Constant, Ki   =    2.07 nM (nanomolar)  [Temperature = 298.15 K]
DOCKED: USER    
DOCKED: USER    (1) Final Intermolecular Energy     =  -15.13 kcal/mol
DOCKED: USER        vdW + Hbond + desolv Energy     =  -15.13 kcal/mol
DOCKED: USER        Electrostatic Energy            =   +0.00 kcal/mol
DOCKED: USER    (2) Final Total Internal Energy     =   -2.27 kcal/mol
DOCKED: USER    (3) Torsional Free Energy           =   +3.28 kcal/mol
DOCKED: USER    (4) Unbound System's Energy  [=(2)] =   -2.27 kcal/mol
DOCKED: USER    
DOCKED: USER    
DOCKED: USER    NEWDPF move ligand.pdbqt
DOCKED: USER    NEWDPF about 0.459000 0.118000 0.005000
DOCKED: USER    NEWDPF tran0 27.666916 -16.054426 -0.234790
DOCKED: USER    NEWDPF quaternion0 0.722118 -0.646838 0.015155 0.244781
DOCKED: USER    NEWDPF axisangle0 0.744775 -0.667133 0.015630 151.662249
DOCKED: USER    NEWDPF quat0 0.744775 -0.667133 0.015630 151.662249
DOCKED: USER    NEWDPF dihe0 -0.53 156.38 8.43 113.95 65.00 -53.55 165.38 -60.50 -174.02 63.69 54.09 
DOCKED: USER  keepresnum = 1 
DOCKED: USER  
DOCKED: REMARK  Name = 
DOCKED: REMARK  11 active torsions:
DOCKED: REMARK  status: ('A' for Active; 'I' for Inactive)
DOCKED: REMARK    1  A    between atoms: C_2  and  C_5
DOCKED: REMARK    2  A    between atoms: N_3  and  O_4
DOCKED: REMARK    3  A    between atoms: C_6  and  C_7
DOCKED: REMARK    4  A    between atoms: C_10  and  C_11
DOCKED: REMARK    5  A    between atoms: C_11  and  N_12
DOCKED: REMARK    6  A    between atoms: N_12  and  C_13
DOCKED: REMARK    7  A    between atoms: N_12  and  C_16
DOCKED: REMARK    8  A    between atoms: C_13  and  C_14
DOCKED: REMARK    9  A    between atoms: C_14  and  O_15
DOCKED: REMARK   10  A    between atoms: C_16  and  C_17
DOCKED: REMARK   11  A    between atoms: C_17  and  C_18
DOCKED: REMARK                            x       y       z     vdW  Elec       q    Type
DOCKED: REMARK                         _______ _______ _______ _____ _____    ______ ____
DOCKED: USER                              x       y       z     vdW  Elec       q    Type
DOCKED: USER                           _______ _______ _______ _____ _____    ______ ____
DOCKED: ROOT
DOCKED: ATOM      1  N   UNL     1      28.651 -15.127   0.482 -0.21 -0.00    +0.000 N 
DOCKED: ATOM      2  H   UNL     1      28.364 -15.962   0.994 -0.64 -0.00    +0.000 HD
DOCKED: ENDROOT
DOCKED: BRANCH   1   3
DOCKED: ATOM      3  C   UNL     1      28.058 -15.190  -0.871 -0.24 -0.00    +0.000 C 
DOCKED: BRANCH   3   7
DOCKED: ATOM      4  C   UNL     1      24.671 -17.883  -0.876 -0.66 -0.00    +0.000 A 
DOCKED: ATOM      5  C   UNL     1      25.886 -18.269  -0.287 -0.59 -0.00    +0.000 A 
DOCKED: ATOM      6  C   UNL     1      26.986 -17.405  -0.291 -0.47 -0.00    +0.000 A 
DOCKED: ATOM      7  C   UNL     1      26.885 -16.135  -0.878 -0.38 -0.00    +0.000 A 
DOCKED: ATOM      8  C   UNL     1      25.669 -15.736  -1.448 -0.43 -0.00    +0.000 A 
DOCKED: ATOM      9  C   UNL     1      24.569 -16.598  -1.446 -0.53 -0.00    +0.000 A 
DOCKED: BRANCH   4  11
DOCKED: ATOM     10  C   UNL     1      22.247 -18.437  -0.780 -0.84 -0.00    +0.000 C 
DOCKED: ATOM     11  C   UNL     1      23.529 -18.828  -0.835 -0.81 -0.00    +0.000 C 
DOCKED: BRANCH  10  13
DOCKED: ATOM     12  O   UNL     1      20.530 -19.648  -1.843 -1.65 -0.00    +0.000 OA
DOCKED: ATOM     13  C   UNL     1      21.113 -19.382  -0.758 -0.86 -0.00    +0.000 C 
DOCKED: ATOM     14  N   UNL     1      20.638 -19.978   0.457 -0.67 -0.00    +0.000 N 
DOCKED: ATOM     15  H   UNL     1      21.014 -19.695   1.321 -0.48 -0.00    +0.000 HD
DOCKED: BRANCH  14  16
DOCKED: ATOM     16  O   UNL     1      19.673 -20.928   0.419 -0.77 -0.00    +0.000 OA
DOCKED: ATOM     17  H   UNL     1      19.408 -21.084  -0.502 -0.42 -0.00    +0.000 HD
DOCKED: ENDBRANCH  14  16
DOCKED: ENDBRANCH  10  13
DOCKED: ENDBRANCH   4  11
DOCKED: ENDBRANCH   3   7
DOCKED: ENDBRANCH   1   3
DOCKED: BRANCH   1  18
DOCKED: ATOM     18  C   UNL     1      30.131 -15.188   0.429 -0.14 -0.00    +0.000 C 
DOCKED: BRANCH  18  19
DOCKED: ATOM     19  C   UNL     1      30.636 -16.370  -0.414 -0.15 -0.00    +0.000 C 
DOCKED: BRANCH  19  20
DOCKED: ATOM     20  O   UNL     1      30.512 -17.581   0.283 -0.10 -0.00    +0.000 OA
DOCKED: ATOM     21  H   UNL     1      29.681 -18.015   0.031 -0.56 -0.00    +0.000 HD
DOCKED: ENDBRANCH  19  20
DOCKED: ENDBRANCH  18  19
DOCKED: ENDBRANCH   1  18
DOCKED: BRANCH   1  22
DOCKED: ATOM     22  C   UNL     1      28.112 -13.995   1.274 -0.25 -0.00    +0.000 C 
DOCKED: BRANCH  22  23
DOCKED: ATOM     23  C   UNL     1      27.383 -14.417   2.564 -0.06 -0.00    +0.000 C 
DOCKED: BRANCH  23  24
DOCKED: ATOM     24  C   UNL     1      28.173 -13.999   3.768 -0.42 -0.00    +0.000 A 
DOCKED: ATOM     25  C   UNL     1      28.978 -14.813   4.558 -0.40 -0.00    +0.000 A 
DOCKED: ATOM     26  N   UNL     1      29.473 -14.114   5.604 -0.38 -0.00    +0.000 N 
DOCKED: ATOM     27  C   UNL     1      28.976 -12.871   5.489 -0.33 -0.00    +0.000 A 
DOCKED: ATOM     28  C   UNL     1      28.172 -12.762   4.384 -0.34 -0.00    +0.000 A 
DOCKED: ATOM     29  C   UNL     1      27.515 -11.575   4.065 -0.22 +0.00    +0.000 A 
DOCKED: ATOM     30  C   UNL     1      27.710 -10.470   4.913 -0.32 +0.00    +0.000 A 
DOCKED: ATOM     31  C   UNL     1      28.543 -10.578   6.050 -0.30 +0.00    +0.000 A 
DOCKED: ATOM     32  C   UNL     1      29.186 -11.793   6.350 -0.28 -0.00    +0.000 A 
DOCKED: ATOM     33  H   UNL     1      30.077 -14.448   6.307 -0.23 -0.00    +0.000 HD
DOCKED: ENDBRANCH  23  24
DOCKED: ENDBRANCH  22  23
DOCKED: ENDBRANCH   1  22
DOCKED: TORSDOF 11
DOCKED: TER
DOCKED: ENDMDL
________________________________________________________________________________


	BEGINNING GENETIC ALGORITHM DOCKING 70 of 100
Run: 70 Seed: 205295249 492982862 [ Run 70 of 100 GA/GALS ]
Beginning LAMARCKIAN GENETIC ALGORITHM (LGA), with a maximum of 2500000 energy evaluations.

Final-Value: -15.361


	FINAL GENETIC ALGORITHM DOCKED STATE
	_______________________________________________


Detailed state:  trans 29.593 -14.817 -2.088 quatxyzw 0.230056 -0.159546 0.275567 -0.919610 center 0.459 0.118 0.005 ntor 11 41.6724 180.0000 109.5885 3.1777 -157.9092 21.3015 -157.4291 92.9866 177.3700 -152.9511 -180.0000
State:	 29.593 -14.817  -2.088   0.586 -0.406  0.701 -46.262     41.67  180.00  109.59    3.18 -157.91   21.30 -157.43   92.99  177.37 -152.95 -180.00

DOCKED: MODEL       70
DOCKED: USER    Run = 70
DOCKED: USER    DPF = ligand_dock.biased.dpf
DOCKED: USER  
DOCKED: USER    Estimated Free Energy of Binding    =   -9.40 kcal/mol  [=(1)+(2)+(3)-(4)]
DOCKED: USER    Estimated Inhibition Constant, Ki   =  127.96 nM (nanomolar)  [Temperature = 298.15 K]
DOCKED: USER    
DOCKED: USER    (1) Final Intermolecular Energy     =  -12.68 kcal/mol
DOCKED: USER        vdW + Hbond + desolv Energy     =  -12.68 kcal/mol
DOCKED: USER        Electrostatic Energy            =   +0.00 kcal/mol
DOCKED: USER    (2) Final Total Internal Energy     =   -2.68 kcal/mol
DOCKED: USER    (3) Torsional Free Energy           =   +3.28 kcal/mol
DOCKED: USER    (4) Unbound System's Energy  [=(2)] =   -2.68 kcal/mol
DOCKED: USER    
DOCKED: USER    
DOCKED: USER    NEWDPF move ligand.pdbqt
DOCKED: USER    NEWDPF about 0.459000 0.118000 0.005000
DOCKED: USER    NEWDPF tran0 29.593378 -14.817010 -2.088271
DOCKED: USER    NEWDPF quaternion0 0.230056 -0.159546 0.275567 -0.919610
DOCKED: USER    NEWDPF axisangle0 0.585633 -0.406143 0.701486 -46.261788
DOCKED: USER    NEWDPF quat0 0.585633 -0.406143 0.701486 -46.261788
DOCKED: USER    NEWDPF dihe0 41.67 180.00 109.59 3.18 -157.91 21.30 -157.43 92.99 177.37 -152.95 -180.00 
DOCKED: USER  keepresnum = 1 
DOCKED: USER  
DOCKED: REMARK  Name = 
DOCKED: REMARK  11 active torsions:
DOCKED: REMARK  status: ('A' for Active; 'I' for Inactive)
DOCKED: REMARK    1  A    between atoms: C_2  and  C_5
DOCKED: REMARK    2  A    between atoms: N_3  and  O_4
DOCKED: REMARK    3  A    between atoms: C_6  and  C_7
DOCKED: REMARK    4  A    between atoms: C_10  and  C_11
DOCKED: REMARK    5  A    between atoms: C_11  and  N_12
DOCKED: REMARK    6  A    between atoms: N_12  and  C_13
DOCKED: REMARK    7  A    between atoms: N_12  and  C_16
DOCKED: REMARK    8  A    between atoms: C_13  and  C_14
DOCKED: REMARK    9  A    between atoms: C_14  and  O_15
DOCKED: REMARK   10  A    between atoms: C_16  and  C_17
DOCKED: REMARK   11  A    between atoms: C_17  and  C_18
DOCKED: REMARK                            x       y       z     vdW  Elec       q    Type
DOCKED: REMARK                         _______ _______ _______ _____ _____    ______ ____
DOCKED: USER                              x       y       z     vdW  Elec       q    Type
DOCKED: USER                           _______ _______ _______ _____ _____    ______ ____
DOCKED: ROOT
DOCKED: ATOM      1  N   UNL     1      29.563 -16.129  -2.875 -0.18 -0.00    +0.000 N 
DOCKED: ATOM      2  H   UNL     1      30.105 -15.370  -3.288 +0.00 -0.00    +0.000 HD
DOCKED: ENDROOT
DOCKED: BRANCH   1   3
DOCKED: ATOM      3  C   UNL     1      29.075 -15.683  -1.552 -0.19 -0.00    +0.000 C 
DOCKED: BRANCH   3   7
DOCKED: ATOM      4  C   UNL     1      25.179 -17.376  -0.732 -0.60 -0.00    +0.000 A 
DOCKED: ATOM      5  C   UNL     1      26.341 -17.993  -0.240 -0.56 -0.00    +0.000 A 
DOCKED: ATOM      6  C   UNL     1      27.603 -17.454  -0.510 -0.36 -0.00    +0.000 A 
DOCKED: ATOM      7  C   UNL     1      27.722 -16.282  -1.271 -0.32 -0.00    +0.000 A 
DOCKED: ATOM      8  C   UNL     1      26.565 -15.650  -1.747 -0.36 -0.00    +0.000 A 
DOCKED: ATOM      9  C   UNL     1      25.304 -16.188  -1.478 -0.49 -0.00    +0.000 A 
DOCKED: BRANCH   4  11
DOCKED: ATOM     10  C   UNL     1      22.875 -18.123  -1.305 -0.70 -0.00    +0.000 C 
DOCKED: ATOM     11  C   UNL     1      23.862 -17.978  -0.408 -0.77 -0.00    +0.000 C 
DOCKED: BRANCH  10  13
DOCKED: ATOM     12  O   UNL     1      21.036 -18.466   0.124 -1.33 -0.00    +0.000 OA
DOCKED: ATOM     13  C   UNL     1      21.573 -18.739  -0.982 -0.83 -0.00    +0.000 C 
DOCKED: ATOM     14  N   UNL     1      20.922 -19.659  -1.869 -0.67 -0.00    +0.000 N 
DOCKED: ATOM     15  H   UNL     1      21.383 -19.963  -2.684 -0.47 -0.00    +0.000 HD
DOCKED: BRANCH  14  16
DOCKED: ATOM     16  O   UNL     1      19.676 -20.110  -1.590 -1.48 -0.00    +0.000 OA
DOCKED: ATOM     17  H   UNL     1      19.132 -19.377  -1.261 -0.40 -0.00    +0.000 HD
DOCKED: ENDBRANCH  14  16
DOCKED: ENDBRANCH  10  13
DOCKED: ENDBRANCH   4  11
DOCKED: ENDBRANCH   3   7
DOCKED: ENDBRANCH   1   3
DOCKED: BRANCH   1  18
DOCKED: ATOM     18  C   UNL     1      30.508 -17.264  -2.750 -0.19 -0.00    +0.000 C 
DOCKED: BRANCH  18  19
DOCKED: ATOM     19  C   UNL     1      31.357 -17.457  -4.016 -0.15 -0.00    +0.000 C 
DOCKED: BRANCH  19  20
DOCKED: ATOM     20  O   UNL     1      31.476 -16.259  -4.736 -0.10 -0.00    +0.000 OA
DOCKED: ATOM     21  H   UNL     1      32.411 -16.008  -4.793 +0.00 -0.00    +0.000 HD
DOCKED: ENDBRANCH  19  20
DOCKED: ENDBRANCH  18  19
DOCKED: ENDBRANCH   1  18
DOCKED: BRANCH   1  22
DOCKED: ATOM     22  C   UNL     1      28.450 -16.360  -3.829 -0.08 -0.00    +0.000 C 
DOCKED: BRANCH  22  23
DOCKED: ATOM     23  C   UNL     1      28.378 -15.333  -4.976 -0.38 -0.00    +0.000 C 
DOCKED: BRANCH  23  24
DOCKED: ATOM     24  C   UNL     1      27.414 -14.238  -4.633 -0.32 -0.00    +0.000 A 
DOCKED: ATOM     25  C   UNL     1      26.040 -14.367  -4.448 -0.44 -0.00    +0.000 A 
DOCKED: ATOM     26  N   UNL     1      25.478 -13.157  -4.229 -0.43 -0.00    +0.000 N 
DOCKED: ATOM     27  C   UNL     1      26.482 -12.265  -4.287 -0.25 -0.00    +0.000 A 
DOCKED: ATOM     28  C   UNL     1      27.678 -12.885  -4.539 -0.18 -0.00    +0.000 A 
DOCKED: ATOM     29  C   UNL     1      28.866 -12.168  -4.673 -0.08 -0.00    +0.000 A 
DOCKED: ATOM     30  C   UNL     1      28.806 -10.769  -4.532 -0.04 -0.00    +0.000 A 
DOCKED: ATOM     31  C   UNL     1      27.574 -10.129  -4.267 -0.07 -0.00    +0.000 A 
DOCKED: ATOM     32  C   UNL     1      26.392 -10.880  -4.144 -0.19 -0.00    +0.000 A 
DOCKED: ATOM     33  H   UNL     1      24.527 -12.968  -4.059 -0.08 -0.00    +0.000 HD
DOCKED: ENDBRANCH  23  24
DOCKED: ENDBRANCH  22  23
DOCKED: ENDBRANCH   1  22
DOCKED: TORSDOF 11
DOCKED: TER
DOCKED: ENDMDL
________________________________________________________________________________


	BEGINNING GENETIC ALGORITHM DOCKING 71 of 100
Run: 71 Seed: 1770661372 1716671391 [ Run 71 of 100 GA/GALS ]
Beginning LAMARCKIAN GENETIC ALGORITHM (LGA), with a maximum of 2500000 energy evaluations.

Final-Value: -16.566


	FINAL GENETIC ALGORITHM DOCKED STATE
	_______________________________________________


Detailed state:  trans 29.190 -14.646 -0.786 quatxyzw -0.905589 0.026077 0.073525 0.416920 center 0.459 0.118 0.005 ntor 11 27.2356 135.9166 62.6355 34.6631 75.0883 18.1542 -148.8587 140.2837 179.5141 176.5853 179.0353
State:	 29.190 -14.646  -0.786  -0.996  0.029  0.081 130.719     27.24  135.92   62.64   34.66   75.09   18.15 -148.86  140.28  179.51  176.59  179.04

DOCKED: MODEL       71
DOCKED: USER    Run = 71
DOCKED: USER    DPF = ligand_dock.biased.dpf
DOCKED: USER  
DOCKED: USER    Estimated Free Energy of Binding    =  -10.12 kcal/mol  [=(1)+(2)+(3)-(4)]
DOCKED: USER    Estimated Inhibition Constant, Ki   =   38.21 nM (nanomolar)  [Temperature = 298.15 K]
DOCKED: USER    
DOCKED: USER    (1) Final Intermolecular Energy     =  -13.40 kcal/mol
DOCKED: USER        vdW + Hbond + desolv Energy     =  -13.40 kcal/mol
DOCKED: USER        Electrostatic Energy            =   +0.00 kcal/mol
DOCKED: USER    (2) Final Total Internal Energy     =   -3.16 kcal/mol
DOCKED: USER    (3) Torsional Free Energy           =   +3.28 kcal/mol
DOCKED: USER    (4) Unbound System's Energy  [=(2)] =   -3.16 kcal/mol
DOCKED: USER    
DOCKED: USER    
DOCKED: USER    NEWDPF move ligand.pdbqt
DOCKED: USER    NEWDPF about 0.459000 0.118000 0.005000
DOCKED: USER    NEWDPF tran0 29.189640 -14.645606 -0.785671
DOCKED: USER    NEWDPF quaternion0 -0.905589 0.026077 0.073525 0.416920
DOCKED: USER    NEWDPF axisangle0 -0.996310 0.028689 0.080891 130.719459
DOCKED: USER    NEWDPF quat0 -0.996310 0.028689 0.080891 130.719459
DOCKED: USER    NEWDPF dihe0 27.24 135.92 62.64 34.66 75.09 18.15 -148.86 140.28 179.51 176.59 179.04 
DOCKED: USER  keepresnum = 1 
DOCKED: USER  
DOCKED: REMARK  Name = 
DOCKED: REMARK  11 active torsions:
DOCKED: REMARK  status: ('A' for Active; 'I' for Inactive)
DOCKED: REMARK    1  A    between atoms: C_2  and  C_5
DOCKED: REMARK    2  A    between atoms: N_3  and  O_4
DOCKED: REMARK    3  A    between atoms: C_6  and  C_7
DOCKED: REMARK    4  A    between atoms: C_10  and  C_11
DOCKED: REMARK    5  A    between atoms: C_11  and  N_12
DOCKED: REMARK    6  A    between atoms: N_12  and  C_13
DOCKED: REMARK    7  A    between atoms: N_12  and  C_16
DOCKED: REMARK    8  A    between atoms: C_13  and  C_14
DOCKED: REMARK    9  A    between atoms: C_14  and  O_15
DOCKED: REMARK   10  A    between atoms: C_16  and  C_17
DOCKED: REMARK   11  A    between atoms: C_17  and  C_18
DOCKED: REMARK                            x       y       z     vdW  Elec       q    Type
DOCKED: REMARK                         _______ _______ _______ _____ _____    ______ ____
DOCKED: USER                              x       y       z     vdW  Elec       q    Type
DOCKED: USER                           _______ _______ _______ _____ _____    ______ ____
DOCKED: ROOT
DOCKED: ATOM      1  N   UNL     1      28.258 -13.760  -1.616 -0.11 -0.00    +0.000 N 
DOCKED: ATOM      2  H   UNL     1      28.968 -13.276  -1.068 +0.00 -0.00    +0.000 HD
DOCKED: ENDROOT
DOCKED: BRANCH   1   3
DOCKED: ATOM      3  C   UNL     1      28.479 -15.216  -1.475 -0.20 -0.00    +0.000 C 
DOCKED: BRANCH   3   7
DOCKED: ATOM      4  C   UNL     1      24.703 -17.328  -1.477 -0.61 -0.00    +0.000 A 
DOCKED: ATOM      5  C   UNL     1      25.135 -16.641  -2.624 -0.42 -0.00    +0.000 A 
DOCKED: ATOM      6  C   UNL     1      26.351 -15.950  -2.625 -0.42 -0.00    +0.000 A 
DOCKED: ATOM      7  C   UNL     1      27.160 -15.942  -1.479 -0.33 -0.00    +0.000 A 
DOCKED: ATOM      8  C   UNL     1      26.744 -16.642  -0.338 -0.42 -0.00    +0.000 A 
DOCKED: ATOM      9  C   UNL     1      25.529 -17.332  -0.336 -0.52 -0.00    +0.000 A 
DOCKED: BRANCH   4  11
DOCKED: ATOM     10  C   UNL     1      22.530 -18.071  -0.519 -0.83 -0.00    +0.000 C 
DOCKED: ATOM     11  C   UNL     1      23.412 -18.057  -1.529 -0.68 -0.00    +0.000 C 
DOCKED: BRANCH  10  13
DOCKED: ATOM     12  O   UNL     1      20.246 -18.188  -1.080 -2.09 -0.00    +0.000 OA
DOCKED: ATOM     13  C   UNL     1      21.239 -18.783  -0.582 -0.85 -0.00    +0.000 C 
DOCKED: ATOM     14  N   UNL     1      21.073 -20.112  -0.068 -0.60 -0.00    +0.000 N 
DOCKED: ATOM     15  H   UNL     1      21.811 -20.544   0.419 -0.60 -0.00    +0.000 HD
DOCKED: BRANCH  14  16
DOCKED: ATOM     16  O   UNL     1      19.905 -20.773  -0.251 -0.75 -0.00    +0.000 OA
DOCKED: ATOM     17  H   UNL     1      19.472 -20.449  -1.057 -0.53 -0.00    +0.000 HD
DOCKED: ENDBRANCH  14  16
DOCKED: ENDBRANCH  10  13
DOCKED: ENDBRANCH   4  11
DOCKED: ENDBRANCH   3   7
DOCKED: ENDBRANCH   1   3
DOCKED: BRANCH   1  18
DOCKED: ATOM     18  C   UNL     1      28.467 -13.313  -3.014 -0.12 -0.00    +0.000 C 
DOCKED: BRANCH  18  19
DOCKED: ATOM     19  C   UNL     1      29.397 -12.092  -3.102 -0.04 -0.00    +0.000 C 
DOCKED: BRANCH  19  20
DOCKED: ATOM     20  O   UNL     1      29.436 -11.395  -1.886 -0.03 -0.00    +0.000 OA
DOCKED: ATOM     21  H   UNL     1      29.975 -11.888  -1.247 +0.00 -0.00    +0.000 HD
DOCKED: ENDBRANCH  19  20
DOCKED: ENDBRANCH  18  19
DOCKED: ENDBRANCH   1  18
DOCKED: BRANCH   1  22
DOCKED: ATOM     22  C   UNL     1      26.967 -13.334  -1.023 -0.21 -0.00    +0.000 C 
DOCKED: BRANCH  22  23
DOCKED: ATOM     23  C   UNL     1      27.110 -12.442   0.226 -0.22 -0.00    +0.000 C 
DOCKED: BRANCH  23  24
DOCKED: ATOM     24  C   UNL     1      28.092 -13.044   1.184 -0.17 -0.00    +0.000 A 
DOCKED: ATOM     25  C   UNL     1      28.039 -14.320   1.737 -0.24 -0.00    +0.000 A 
DOCKED: ATOM     26  N   UNL     1      29.048 -14.493   2.621 -0.22 -0.00    +0.000 N 
DOCKED: ATOM     27  C   UNL     1      29.728 -13.334   2.641 -0.14 -0.00    +0.000 A 
DOCKED: ATOM     28  C   UNL     1      29.171 -12.422   1.782 -0.09 -0.00    +0.000 A 
DOCKED: ATOM     29  C   UNL     1      29.682 -11.131   1.646 -0.03 -0.00    +0.000 A 
DOCKED: ATOM     30  C   UNL     1      30.806 -10.787   2.417 -0.01 -0.00    +0.000 A 
DOCKED: ATOM     31  C   UNL     1      31.385 -11.728   3.299 -0.03 -0.00    +0.000 A 
DOCKED: ATOM     32  C   UNL     1      30.842 -13.020   3.420 -0.10 -0.00    +0.000 A 
DOCKED: ATOM     33  H   UNL     1      29.245 -15.304   3.143 -1.79 -0.00    +0.000 HD
DOCKED: ENDBRANCH  23  24
DOCKED: ENDBRANCH  22  23
DOCKED: ENDBRANCH   1  22
DOCKED: TORSDOF 11
DOCKED: TER
DOCKED: ENDMDL
________________________________________________________________________________


	BEGINNING GENETIC ALGORITHM DOCKING 72 of 100
Run: 72 Seed: 1875203625 124156687 [ Run 72 of 100 GA/GALS ]
Beginning LAMARCKIAN GENETIC ALGORITHM (LGA), with a maximum of 2500000 energy evaluations.

Final-Value: -17.691


	FINAL GENETIC ALGORITHM DOCKED STATE
	_______________________________________________


Detailed state:  trans 28.835 -15.623 -1.916 quatxyzw -0.275580 0.959493 0.010270 0.057653 center 0.459 0.118 0.005 ntor 11 -142.0175 170.2064 67.1248 38.2308 121.7715 79.8743 -38.7663 -116.0982 117.2103 127.0172 6.8189
State:	 28.835 -15.623  -1.916  -0.276  0.961  0.010 173.390   -142.02  170.21   67.12   38.23  121.77   79.87  -38.77 -116.10  117.21  127.02    6.82

DOCKED: MODEL       72
DOCKED: USER    Run = 72
DOCKED: USER    DPF = ligand_dock.biased.dpf
DOCKED: USER  
DOCKED: USER    Estimated Free Energy of Binding    =  -10.75 kcal/mol  [=(1)+(2)+(3)-(4)]
DOCKED: USER    Estimated Inhibition Constant, Ki   =   13.09 nM (nanomolar)  [Temperature = 298.15 K]
DOCKED: USER    
DOCKED: USER    (1) Final Intermolecular Energy     =  -14.04 kcal/mol
DOCKED: USER        vdW + Hbond + desolv Energy     =  -14.04 kcal/mol
DOCKED: USER        Electrostatic Energy            =   +0.00 kcal/mol
DOCKED: USER    (2) Final Total Internal Energy     =   -3.65 kcal/mol
DOCKED: USER    (3) Torsional Free Energy           =   +3.28 kcal/mol
DOCKED: USER    (4) Unbound System's Energy  [=(2)] =   -3.65 kcal/mol
DOCKED: USER    
DOCKED: USER    
DOCKED: USER    NEWDPF move ligand.pdbqt
DOCKED: USER    NEWDPF about 0.459000 0.118000 0.005000
DOCKED: USER    NEWDPF tran0 28.835035 -15.622993 -1.915625
DOCKED: USER    NEWDPF quaternion0 -0.275580 0.959493 0.010270 0.057653
DOCKED: USER    NEWDPF axisangle0 -0.276039 0.961091 0.010287 173.389806
DOCKED: USER    NEWDPF quat0 -0.276039 0.961091 0.010287 173.389806
DOCKED: USER    NEWDPF dihe0 -142.02 170.21 67.12 38.23 121.77 79.87 -38.77 -116.10 117.21 127.02 6.82 
DOCKED: USER  keepresnum = 1 
DOCKED: USER  
DOCKED: REMARK  Name = 
DOCKED: REMARK  11 active torsions:
DOCKED: REMARK  status: ('A' for Active; 'I' for Inactive)
DOCKED: REMARK    1  A    between atoms: C_2  and  C_5
DOCKED: REMARK    2  A    between atoms: N_3  and  O_4
DOCKED: REMARK    3  A    between atoms: C_6  and  C_7
DOCKED: REMARK    4  A    between atoms: C_10  and  C_11
DOCKED: REMARK    5  A    between atoms: C_11  and  N_12
DOCKED: REMARK    6  A    between atoms: N_12  and  C_13
DOCKED: REMARK    7  A    between atoms: N_12  and  C_16
DOCKED: REMARK    8  A    between atoms: C_13  and  C_14
DOCKED: REMARK    9  A    between atoms: C_14  and  O_15
DOCKED: REMARK   10  A    between atoms: C_16  and  C_17
DOCKED: REMARK   11  A    between atoms: C_17  and  C_18
DOCKED: REMARK                            x       y       z     vdW  Elec       q    Type
DOCKED: REMARK                         _______ _______ _______ _____ _____    ______ ____
DOCKED: USER                              x       y       z     vdW  Elec       q    Type
DOCKED: USER                           _______ _______ _______ _____ _____    ______ ____
DOCKED: ROOT
DOCKED: ATOM      1  N   UNL     1      30.255 -16.168  -2.087 -0.12 -0.00    +0.000 N 
DOCKED: ATOM      2  H   UNL     1      29.798 -16.375  -1.200 -0.00 -0.00    +0.000 HD
DOCKED: ENDROOT
DOCKED: BRANCH   1   3
DOCKED: ATOM      3  C   UNL     1      29.280 -15.474  -2.957 -0.18 -0.00    +0.000 C 
DOCKED: BRANCH   3   7
DOCKED: ATOM      4  C   UNL     1      25.240 -16.589  -1.882 -0.53 -0.00    +0.000 A 
DOCKED: ATOM      5  C   UNL     1      26.307 -16.850  -1.007 -0.48 -0.00    +0.000 A 
DOCKED: ATOM      6  C   UNL     1      27.616 -16.499  -1.354 -0.34 -0.00    +0.000 A 
DOCKED: ATOM      7  C   UNL     1      27.877 -15.872  -2.582 -0.26 -0.00    +0.000 A 
DOCKED: ATOM      8  C   UNL     1      26.814 -15.590  -3.450 -0.38 -0.00    +0.000 A 
DOCKED: ATOM      9  C   UNL     1      25.506 -15.941  -3.104 -0.48 -0.00    +0.000 A 
DOCKED: BRANCH   4  11
DOCKED: ATOM     10  C   UNL     1      23.402 -18.224  -1.509 -0.73 -0.00    +0.000 C 
DOCKED: ATOM     11  C   UNL     1      23.868 -16.968  -1.464 -0.59 -0.00    +0.000 C 
DOCKED: BRANCH  10  13
DOCKED: ATOM     12  O   UNL     1      21.567 -18.052  -0.043 -1.33 -0.00    +0.000 OA
DOCKED: ATOM     13  C   UNL     1      22.042 -18.599  -1.075 -0.82 -0.00    +0.000 C 
DOCKED: ATOM     14  N   UNL     1      21.261 -19.582  -1.768 -0.59 -0.00    +0.000 N 
DOCKED: ATOM     15  H   UNL     1      21.662 -20.093  -2.507 -0.60 -0.00    +0.000 HD
DOCKED: BRANCH  14  16
DOCKED: ATOM     16  O   UNL     1      19.976 -19.811  -1.408 -1.63 -0.00    +0.000 OA
DOCKED: ATOM     17  H   UNL     1      19.786 -20.761  -1.471 -0.61 -0.00    +0.000 HD
DOCKED: ENDBRANCH  14  16
DOCKED: ENDBRANCH  10  13
DOCKED: ENDBRANCH   4  11
DOCKED: ENDBRANCH   3   7
DOCKED: ENDBRANCH   1   3
DOCKED: BRANCH   1  18
DOCKED: ATOM     18  C   UNL     1      30.641 -17.484  -2.648 -0.18 -0.00    +0.000 C 
DOCKED: BRANCH  18  19
DOCKED: ATOM     19  C   UNL     1      30.452 -18.627  -1.638 -0.08 -0.00    +0.000 C 
DOCKED: BRANCH  19  20
DOCKED: ATOM     20  O   UNL     1      30.340 -18.133  -0.329 -0.22 -0.00    +0.000 OA
DOCKED: ATOM     21  H   UNL     1      29.427 -18.246  -0.019 -0.59 -0.00    +0.000 HD
DOCKED: ENDBRANCH  19  20
DOCKED: ENDBRANCH  18  19
DOCKED: ENDBRANCH   1  18
DOCKED: BRANCH   1  22
DOCKED: ATOM     22  C   UNL     1      31.399 -15.295  -1.728 -0.04 -0.00    +0.000 C 
DOCKED: BRANCH  22  23
DOCKED: ATOM     23  C   UNL     1      30.991 -13.913  -1.181 -0.03 -0.00    +0.000 C 
DOCKED: BRANCH  23  24
DOCKED: ATOM     24  C   UNL     1      30.075 -14.069  -0.005 -0.07 -0.00    +0.000 A 
DOCKED: ATOM     25  C   UNL     1      30.316 -14.817   1.143 -0.11 -0.00    +0.000 A 
DOCKED: ATOM     26  N   UNL     1      29.237 -14.793   1.957 -0.02 -0.00    +0.000 N 
DOCKED: ATOM     27  C   UNL     1      28.312 -14.049   1.326 -0.21 -0.00    +0.000 A 
DOCKED: ATOM     28  C   UNL     1      28.784 -13.595   0.122 -0.11 -0.00    +0.000 A 
DOCKED: ATOM     29  C   UNL     1      27.998 -12.823  -0.733 -0.11 -0.00    +0.000 A 
DOCKED: ATOM     30  C   UNL     1      26.692 -12.509  -0.317 -0.10 -0.00    +0.000 A 
DOCKED: ATOM     31  C   UNL     1      26.205 -12.972   0.926 -0.31 -0.00    +0.000 A 
DOCKED: ATOM     32  C   UNL     1      27.020 -13.756   1.763 -0.23 -0.00    +0.000 A 
DOCKED: ATOM     33  H   UNL     1      29.146 -15.231   2.834 -1.96 -0.00    +0.000 HD
DOCKED: ENDBRANCH  23  24
DOCKED: ENDBRANCH  22  23
DOCKED: ENDBRANCH   1  22
DOCKED: TORSDOF 11
DOCKED: TER
DOCKED: ENDMDL
________________________________________________________________________________


	BEGINNING GENETIC ALGORITHM DOCKING 73 of 100
Run: 73 Seed: 1675216950 811545910 [ Run 73 of 100 GA/GALS ]
Beginning LAMARCKIAN GENETIC ALGORITHM (LGA), with a maximum of 2500000 energy evaluations.

Final-Value: -16.780


	FINAL GENETIC ALGORITHM DOCKED STATE
	_______________________________________________


Detailed state:  trans 29.965 -15.440 -0.605 quatxyzw 0.058690 -0.547339 0.129570 -0.824735 center 0.459 0.118 0.005 ntor 11 -11.4046 116.4369 116.6304 61.8966 25.9441 -137.7643 -168.3556 -64.9892 -137.5917 -171.6774 -146.7673
State:	 29.965 -15.440  -0.605   0.104 -0.968  0.229 -68.877    -11.40  116.44  116.63   61.90   25.94 -137.76 -168.36  -64.99 -137.59 -171.68 -146.77

DOCKED: MODEL       73
DOCKED: USER    Run = 73
DOCKED: USER    DPF = ligand_dock.biased.dpf
DOCKED: USER  
DOCKED: USER    Estimated Free Energy of Binding    =  -10.88 kcal/mol  [=(1)+(2)+(3)-(4)]
DOCKED: USER    Estimated Inhibition Constant, Ki   =   10.65 nM (nanomolar)  [Temperature = 298.15 K]
DOCKED: USER    
DOCKED: USER    (1) Final Intermolecular Energy     =  -14.16 kcal/mol
DOCKED: USER        vdW + Hbond + desolv Energy     =  -14.16 kcal/mol
DOCKED: USER        Electrostatic Energy            =   +0.00 kcal/mol
DOCKED: USER    (2) Final Total Internal Energy     =   -2.62 kcal/mol
DOCKED: USER    (3) Torsional Free Energy           =   +3.28 kcal/mol
DOCKED: USER    (4) Unbound System's Energy  [=(2)] =   -2.62 kcal/mol
DOCKED: USER    
DOCKED: USER    
DOCKED: USER    NEWDPF move ligand.pdbqt
DOCKED: USER    NEWDPF about 0.459000 0.118000 0.005000
DOCKED: USER    NEWDPF tran0 29.965431 -15.439645 -0.604698
DOCKED: USER    NEWDPF quaternion0 0.058690 -0.547339 0.129570 -0.824735
DOCKED: USER    NEWDPF axisangle0 0.103780 -0.967851 0.229117 -68.876799
DOCKED: USER    NEWDPF quat0 0.103780 -0.967851 0.229117 -68.876799
DOCKED: USER    NEWDPF dihe0 -11.40 116.44 116.63 61.90 25.94 -137.76 -168.36 -64.99 -137.59 -171.68 -146.77 
DOCKED: USER  keepresnum = 1 
DOCKED: USER  
DOCKED: REMARK  Name = 
DOCKED: REMARK  11 active torsions:
DOCKED: REMARK  status: ('A' for Active; 'I' for Inactive)
DOCKED: REMARK    1  A    between atoms: C_2  and  C_5
DOCKED: REMARK    2  A    between atoms: N_3  and  O_4
DOCKED: REMARK    3  A    between atoms: C_6  and  C_7
DOCKED: REMARK    4  A    between atoms: C_10  and  C_11
DOCKED: REMARK    5  A    between atoms: C_11  and  N_12
DOCKED: REMARK    6  A    between atoms: N_12  and  C_13
DOCKED: REMARK    7  A    between atoms: N_12  and  C_16
DOCKED: REMARK    8  A    between atoms: C_13  and  C_14
DOCKED: REMARK    9  A    between atoms: C_14  and  O_15
DOCKED: REMARK   10  A    between atoms: C_16  and  C_17
DOCKED: REMARK   11  A    between atoms: C_17  and  C_18
DOCKED: REMARK                            x       y       z     vdW  Elec       q    Type
DOCKED: REMARK                         _______ _______ _______ _____ _____    ______ ____
DOCKED: USER                              x       y       z     vdW  Elec       q    Type
DOCKED: USER                           _______ _______ _______ _____ _____    ______ ____
DOCKED: ROOT
DOCKED: ATOM      1  N   UNL     1      29.955 -16.751  -1.393 -0.19 -0.00    +0.000 N 
DOCKED: ATOM      2  H   UNL     1      30.873 -16.360  -1.184 +0.00 -0.00    +0.000 HD
DOCKED: ENDROOT
DOCKED: BRANCH   1   3
DOCKED: ATOM      3  C   UNL     1      28.933 -15.913  -0.728 -0.23 -0.00    +0.000 C 
DOCKED: BRANCH   3   7
DOCKED: ATOM      4  C   UNL     1      24.964 -17.421  -1.563 -0.59 -0.00    +0.000 A 
DOCKED: ATOM      5  C   UNL     1      25.782 -18.058  -0.615 -0.59 -0.00    +0.000 A 
DOCKED: ATOM      6  C   UNL     1      27.069 -17.579  -0.349 -0.46 -0.00    +0.000 A 
DOCKED: ATOM      7  C   UNL     1      27.556 -16.448  -1.021 -0.35 -0.00    +0.000 A 
DOCKED: ATOM      8  C   UNL     1      26.736 -15.796  -1.952 -0.35 -0.00    +0.000 A 
DOCKED: ATOM      9  C   UNL     1      25.451 -16.273  -2.220 -0.50 -0.00    +0.000 A 
DOCKED: BRANCH   4  11
DOCKED: ATOM     10  C   UNL     1      22.637 -17.965  -0.871 -0.80 -0.00    +0.000 C 
DOCKED: ATOM     11  C   UNL     1      23.602 -17.958  -1.802 -0.55 -0.00    +0.000 C 
DOCKED: BRANCH  10  13
DOCKED: ATOM     12  O   UNL     1      20.292 -17.814  -0.708 -2.08 +0.00    +0.000 OA
DOCKED: ATOM     13  C   UNL     1      21.277 -18.483  -1.120 -0.68 -0.00    +0.000 C 
DOCKED: ATOM     14  N   UNL     1      21.045 -19.734  -1.784 -0.66 -0.00    +0.000 N 
DOCKED: ATOM     15  H   UNL     1      21.806 -20.315  -2.012 -0.49 -0.00    +0.000 HD
DOCKED: BRANCH  14  16
DOCKED: ATOM     16  O   UNL     1      19.785 -20.117  -2.097 -1.64 -0.00    +0.000 OA
DOCKED: ATOM     17  H   UNL     1      19.149 -19.533  -1.653 -0.45 -0.00    +0.000 HD
DOCKED: ENDBRANCH  14  16
DOCKED: ENDBRANCH  10  13
DOCKED: ENDBRANCH   4  11
DOCKED: ENDBRANCH   3   7
DOCKED: ENDBRANCH   1   3
DOCKED: BRANCH   1  18
DOCKED: ATOM     18  C   UNL     1      29.976 -18.125  -0.836 -0.13 -0.00    +0.000 C 
DOCKED: BRANCH  18  19
DOCKED: ATOM     19  C   UNL     1      31.159 -18.348   0.119 -0.06 -0.00    +0.000 C 
DOCKED: BRANCH  19  20
DOCKED: ATOM     20  O   UNL     1      31.490 -17.168   0.802 -0.19 -0.00    +0.000 OA
DOCKED: ATOM     21  H   UNL     1      30.705 -16.833   1.265 -0.37 -0.00    +0.000 HD
DOCKED: ENDBRANCH  19  20
DOCKED: ENDBRANCH  18  19
DOCKED: ENDBRANCH   1  18
DOCKED: BRANCH   1  22
DOCKED: ATOM     22  C   UNL     1      29.846 -16.690  -2.872 -0.21 -0.00    +0.000 C 
DOCKED: BRANCH  22  23
DOCKED: ATOM     23  C   UNL     1      31.157 -17.014  -3.614 -0.14 -0.00    +0.000 C 
DOCKED: BRANCH  23  24
DOCKED: ATOM     24  C   UNL     1      31.075 -18.371  -4.246 -0.19 -0.00    +0.000 A 
DOCKED: ATOM     25  C   UNL     1      31.172 -19.598  -3.597 -0.10 -0.00    +0.000 A 
DOCKED: ATOM     26  N   UNL     1      31.132 -20.610  -4.492 -0.24 -0.00    +0.000 N 
DOCKED: ATOM     27  C   UNL     1      31.025 -20.033  -5.701 -0.31 -0.00    +0.000 A 
DOCKED: ATOM     28  C   UNL     1      30.993 -18.666  -5.593 -0.27 -0.00    +0.000 A 
DOCKED: ATOM     29  C   UNL     1      30.914 -17.840  -6.714 -0.30 -0.00    +0.000 A 
DOCKED: ATOM     30  C   UNL     1      30.856 -18.455  -7.977 -0.32 -0.00    +0.000 A 
DOCKED: ATOM     31  C   UNL     1      30.883 -19.864  -8.091 -0.35 -0.00    +0.000 A 
DOCKED: ATOM     32  C   UNL     1      30.971 -20.670  -6.941 -0.33 -0.00    +0.000 A 
DOCKED: ATOM     33  H   UNL     1      31.173 -21.575  -4.298 -0.01 -0.00    +0.000 HD
DOCKED: ENDBRANCH  23  24
DOCKED: ENDBRANCH  22  23
DOCKED: ENDBRANCH   1  22
DOCKED: TORSDOF 11
DOCKED: TER
DOCKED: ENDMDL
________________________________________________________________________________


	BEGINNING GENETIC ALGORITHM DOCKING 74 of 100
Run: 74 Seed: 1071394045 101052703 [ Run 74 of 100 GA/GALS ]
Beginning LAMARCKIAN GENETIC ALGORITHM (LGA), with a maximum of 2500000 energy evaluations.

Final-Value: -17.368


	FINAL GENETIC ALGORITHM DOCKED STATE
	_______________________________________________


Detailed state:  trans 27.340 -16.438 -0.376 quatxyzw -0.576448 0.805269 -0.009962 -0.138388 center 0.459 0.118 0.005 ntor 11 -9.1632 25.1037 157.5960 -73.0029 -32.2589 20.0096 123.4806 -55.3365 150.7537 87.9769 38.7609
State:	 27.340 -16.438  -0.376  -0.582  0.813 -0.010 -164.091     -9.16   25.10  157.60  -73.00  -32.26   20.01  123.48  -55.34  150.75   87.98   38.76

DOCKED: MODEL       74
DOCKED: USER    Run = 74
DOCKED: USER    DPF = ligand_dock.biased.dpf
DOCKED: USER  
DOCKED: USER    Estimated Free Energy of Binding    =  -11.84 kcal/mol  [=(1)+(2)+(3)-(4)]
DOCKED: USER    Estimated Inhibition Constant, Ki   =    2.08 nM (nanomolar)  [Temperature = 298.15 K]
DOCKED: USER    
DOCKED: USER    (1) Final Intermolecular Energy     =  -15.12 kcal/mol
DOCKED: USER        vdW + Hbond + desolv Energy     =  -15.12 kcal/mol
DOCKED: USER        Electrostatic Energy            =   +0.00 kcal/mol
DOCKED: USER    (2) Final Total Internal Energy     =   -2.24 kcal/mol
DOCKED: USER    (3) Torsional Free Energy           =   +3.28 kcal/mol
DOCKED: USER    (4) Unbound System's Energy  [=(2)] =   -2.24 kcal/mol
DOCKED: USER    
DOCKED: USER    
DOCKED: USER    NEWDPF move ligand.pdbqt
DOCKED: USER    NEWDPF about 0.459000 0.118000 0.005000
DOCKED: USER    NEWDPF tran0 27.340012 -16.438455 -0.375530
DOCKED: USER    NEWDPF quaternion0 -0.576448 0.805269 -0.009962 -0.138388
DOCKED: USER    NEWDPF axisangle0 -0.582048 0.813092 -0.010059 -164.090844
DOCKED: USER    NEWDPF quat0 -0.582048 0.813092 -0.010059 -164.090844
DOCKED: USER    NEWDPF dihe0 -9.16 25.10 157.60 -73.00 -32.26 20.01 123.48 -55.34 150.75 87.98 38.76 
DOCKED: USER  keepresnum = 1 
DOCKED: USER  
DOCKED: REMARK  Name = 
DOCKED: REMARK  11 active torsions:
DOCKED: REMARK  status: ('A' for Active; 'I' for Inactive)
DOCKED: REMARK    1  A    between atoms: C_2  and  C_5
DOCKED: REMARK    2  A    between atoms: N_3  and  O_4
DOCKED: REMARK    3  A    between atoms: C_6  and  C_7
DOCKED: REMARK    4  A    between atoms: C_10  and  C_11
DOCKED: REMARK    5  A    between atoms: C_11  and  N_12
DOCKED: REMARK    6  A    between atoms: N_12  and  C_13
DOCKED: REMARK    7  A    between atoms: N_12  and  C_16
DOCKED: REMARK    8  A    between atoms: C_13  and  C_14
DOCKED: REMARK    9  A    between atoms: C_14  and  O_15
DOCKED: REMARK   10  A    between atoms: C_16  and  C_17
DOCKED: REMARK   11  A    between atoms: C_17  and  C_18
DOCKED: REMARK                            x       y       z     vdW  Elec       q    Type
DOCKED: REMARK                         _______ _______ _______ _____ _____    ______ ____
DOCKED: USER                              x       y       z     vdW  Elec       q    Type
DOCKED: USER                           _______ _______ _______ _____ _____    ______ ____
DOCKED: ROOT
DOCKED: ATOM      1  N   UNL     1      28.747 -15.985   0.022 -0.23 -0.00    +0.000 N 
DOCKED: ATOM      2  H   UNL     1      28.276 -16.614   0.673 -0.49 -0.00    +0.000 HD
DOCKED: ENDROOT
DOCKED: BRANCH   1   3
DOCKED: ATOM      3  C   UNL     1      27.887 -15.828  -1.171 -0.31 -0.00    +0.000 C 
DOCKED: BRANCH   3   7
DOCKED: ATOM      4  C   UNL     1      24.111 -17.852  -0.565 -0.68 -0.00    +0.000 A 
DOCKED: ATOM      5  C   UNL     1      25.250 -18.237   0.162 -0.52 -0.00    +0.000 A 
DOCKED: ATOM      6  C   UNL     1      26.474 -17.591  -0.037 -0.50 -0.00    +0.000 A 
DOCKED: ATOM      7  C   UNL     1      26.578 -16.542  -0.963 -0.43 -0.00    +0.000 A 
DOCKED: ATOM      8  C   UNL     1      25.440 -16.139  -1.676 -0.49 -0.00    +0.000 A 
DOCKED: ATOM      9  C   UNL     1      24.216 -16.784  -1.478 -0.54 -0.00    +0.000 A 
DOCKED: BRANCH   4  11
DOCKED: ATOM     10  C   UNL     1      21.990 -18.937  -1.283 -0.74 -0.00    +0.000 C 
DOCKED: ATOM     11  C   UNL     1      22.832 -18.557  -0.310 -0.83 -0.00    +0.000 C 
DOCKED: BRANCH  10  13
DOCKED: ATOM     12  O   UNL     1      19.880 -19.739  -1.954 -1.89 -0.00    +0.000 OA
DOCKED: ATOM     13  C   UNL     1      20.726 -19.655  -1.024 -0.84 -0.00    +0.000 C 
DOCKED: ATOM     14  N   UNL     1      20.421 -20.228   0.254 -0.69 -0.00    +0.000 N 
DOCKED: ATOM     15  H   UNL     1      21.025 -20.075   1.016 -0.53 -0.00    +0.000 HD
DOCKED: BRANCH  14  16
DOCKED: ATOM     16  O   UNL     1      19.306 -20.979   0.417 -0.77 -0.00    +0.000 OA
DOCKED: ATOM     17  H   UNL     1      18.753 -20.914  -0.378 -0.33 -0.00    +0.000 HD
DOCKED: ENDBRANCH  14  16
DOCKED: ENDBRANCH  10  13
DOCKED: ENDBRANCH   4  11
DOCKED: ENDBRANCH   3   7
DOCKED: ENDBRANCH   1   3
DOCKED: BRANCH   1  18
DOCKED: ATOM     18  C   UNL     1      30.026 -16.654  -0.315 -0.19 -0.00    +0.000 C 
DOCKED: BRANCH  18  19
DOCKED: ATOM     19  C   UNL     1      31.247 -15.796   0.052 -0.12 -0.00    +0.000 C 
DOCKED: BRANCH  19  20
DOCKED: ATOM     20  O   UNL     1      31.446 -15.764   1.441 -0.17 -0.00    +0.000 OA
DOCKED: ATOM     21  H   UNL     1      30.586 -15.764   1.890 -0.58 -0.00    +0.000 HD
DOCKED: ENDBRANCH  19  20
DOCKED: ENDBRANCH  18  19
DOCKED: ENDBRANCH   1  18
DOCKED: BRANCH   1  22
DOCKED: ATOM     22  C   UNL     1      28.898 -14.713   0.770 -0.20 -0.00    +0.000 C 
DOCKED: BRANCH  22  23
DOCKED: ATOM     23  C   UNL     1      27.750 -14.419   1.756 -0.29 -0.00    +0.000 C 
DOCKED: BRANCH  23  24
DOCKED: ATOM     24  C   UNL     1      28.267 -14.398   3.163 -0.32 -0.00    +0.000 A 
DOCKED: ATOM     25  C   UNL     1      27.605 -14.854   4.299 -0.43 -0.00    +0.000 A 
DOCKED: ATOM     26  N   UNL     1      28.340 -14.603   5.406 -0.42 -0.00    +0.000 N 
DOCKED: ATOM     27  C   UNL     1      29.453 -13.980   4.980 -0.36 -0.00    +0.000 A 
DOCKED: ATOM     28  C   UNL     1      29.442 -13.830   3.617 -0.26 -0.00    +0.000 A 
DOCKED: ATOM     29  C   UNL     1      30.476 -13.186   2.938 -0.11 -0.00    +0.000 A 
DOCKED: ATOM     30  C   UNL     1      31.552 -12.696   3.699 -0.08 -0.00    +0.000 A 
DOCKED: ATOM     31  C   UNL     1      31.568 -12.855   5.103 -0.14 -0.00    +0.000 A 
DOCKED: ATOM     32  C   UNL     1      30.506 -13.502   5.759 -0.24 -0.00    +0.000 A 
DOCKED: ATOM     33  H   UNL     1      28.108 -14.831   6.335 -0.43 -0.00    +0.000 HD
DOCKED: ENDBRANCH  23  24
DOCKED: ENDBRANCH  22  23
DOCKED: ENDBRANCH   1  22
DOCKED: TORSDOF 11
DOCKED: TER
DOCKED: ENDMDL
________________________________________________________________________________


	BEGINNING GENETIC ALGORITHM DOCKING 75 of 100
Run: 75 Seed: 1736551207 2051880470 [ Run 75 of 100 GA/GALS ]
Beginning LAMARCKIAN GENETIC ALGORITHM (LGA), with a maximum of 2500000 energy evaluations.

Final-Value: -17.782


	FINAL GENETIC ALGORITHM DOCKED STATE
	_______________________________________________


Detailed state:  trans 26.964 -15.569 -0.804 quatxyzw -0.370786 0.229597 -0.895987 0.083727 center 0.459 0.118 0.005 ntor 11 19.4447 -143.7112 -13.4561 -178.7768 179.2445 39.5960 129.8595 31.2390 161.4579 111.6778 48.6999
State:	 26.964 -15.569  -0.804  -0.372  0.230 -0.899 170.394     19.44 -143.71  -13.46 -178.78  179.24   39.60  129.86   31.24  161.46  111.68   48.70

DOCKED: MODEL       75
DOCKED: USER    Run = 75
DOCKED: USER    DPF = ligand_dock.biased.dpf
DOCKED: USER  
DOCKED: USER    Estimated Free Energy of Binding    =  -12.45 kcal/mol  [=(1)+(2)+(3)-(4)]
DOCKED: USER    Estimated Inhibition Constant, Ki   =  751.90 pM (picomolar)  [Temperature = 298.15 K]
DOCKED: USER    
DOCKED: USER    (1) Final Intermolecular Energy     =  -15.73 kcal/mol
DOCKED: USER        vdW + Hbond + desolv Energy     =  -15.73 kcal/mol
DOCKED: USER        Electrostatic Energy            =   +0.00 kcal/mol
DOCKED: USER    (2) Final Total Internal Energy     =   -2.05 kcal/mol
DOCKED: USER    (3) Torsional Free Energy           =   +3.28 kcal/mol
DOCKED: USER    (4) Unbound System's Energy  [=(2)] =   -2.05 kcal/mol
DOCKED: USER    
DOCKED: USER    
DOCKED: USER    NEWDPF move ligand.pdbqt
DOCKED: USER    NEWDPF about 0.459000 0.118000 0.005000
DOCKED: USER    NEWDPF tran0 26.964161 -15.569225 -0.804190
DOCKED: USER    NEWDPF quaternion0 -0.370786 0.229597 -0.895987 0.083727
DOCKED: USER    NEWDPF axisangle0 -0.372092 0.230406 -0.899144 170.394299
DOCKED: USER    NEWDPF quat0 -0.372092 0.230406 -0.899144 170.394299
DOCKED: USER    NEWDPF dihe0 19.44 -143.71 -13.46 -178.78 179.24 39.60 129.86 31.24 161.46 111.68 48.70 
DOCKED: USER  keepresnum = 1 
DOCKED: USER  
DOCKED: REMARK  Name = 
DOCKED: REMARK  11 active torsions:
DOCKED: REMARK  status: ('A' for Active; 'I' for Inactive)
DOCKED: REMARK    1  A    between atoms: C_2  and  C_5
DOCKED: REMARK    2  A    between atoms: N_3  and  O_4
DOCKED: REMARK    3  A    between atoms: C_6  and  C_7
DOCKED: REMARK    4  A    between atoms: C_10  and  C_11
DOCKED: REMARK    5  A    between atoms: C_11  and  N_12
DOCKED: REMARK    6  A    between atoms: N_12  and  C_13
DOCKED: REMARK    7  A    between atoms: N_12  and  C_16
DOCKED: REMARK    8  A    between atoms: C_13  and  C_14
DOCKED: REMARK    9  A    between atoms: C_14  and  O_15
DOCKED: REMARK   10  A    between atoms: C_16  and  C_17
DOCKED: REMARK   11  A    between atoms: C_17  and  C_18
DOCKED: REMARK                            x       y       z     vdW  Elec       q    Type
DOCKED: REMARK                         _______ _______ _______ _____ _____    ______ ____
DOCKED: USER                              x       y       z     vdW  Elec       q    Type
DOCKED: USER                           _______ _______ _______ _____ _____    ______ ____
DOCKED: ROOT
DOCKED: ATOM      1  N   UNL     1      28.019 -14.482  -1.020 -0.16 -0.00    +0.000 N 
DOCKED: ATOM      2  H   UNL     1      27.049 -14.200  -1.157 +0.00 -0.00    +0.000 HD
DOCKED: ENDROOT
DOCKED: BRANCH   1   3
DOCKED: ATOM      3  C   UNL     1      28.030 -15.880  -0.535 -0.31 -0.00    +0.000 C 
DOCKED: BRANCH   3   7
DOCKED: ATOM      4  C   UNL     1      24.172 -17.724  -1.189 -0.67 -0.00    +0.000 A 
DOCKED: ATOM      5  C   UNL     1      24.400 -16.395  -1.579 -0.43 -0.00    +0.000 A 
DOCKED: ATOM      6  C   UNL     1      25.643 -15.792  -1.362 -0.44 -0.00    +0.000 A 
DOCKED: ATOM      7  C   UNL     1      26.683 -16.514  -0.757 -0.43 -0.00    +0.000 A 
DOCKED: ATOM      8  C   UNL     1      26.467 -17.847  -0.384 -0.54 -0.00    +0.000 A 
DOCKED: ATOM      9  C   UNL     1      25.225 -18.451  -0.600 -0.58 -0.00    +0.000 A 
DOCKED: BRANCH   4  11
DOCKED: ATOM     10  C   UNL     1      22.024 -18.765  -0.483 -0.84 -0.00    +0.000 C 
DOCKED: ATOM     11  C   UNL     1      22.841 -18.325  -1.452 -0.69 -0.00    +0.000 C 
DOCKED: BRANCH  10  13
DOCKED: ATOM     12  O   UNL     1      20.433 -19.746  -1.916 -1.75 -0.00    +0.000 OA
DOCKED: ATOM     13  C   UNL     1      20.693 -19.345  -0.750 -0.90 -0.00    +0.000 C 
DOCKED: ATOM     14  N   UNL     1      19.681 -19.435   0.263 -0.73 -0.00    +0.000 N 
DOCKED: ATOM     15  H   UNL     1      19.835 -19.026   1.145 -0.22 -0.00    +0.000 HD
DOCKED: BRANCH  14  16
DOCKED: ATOM     16  O   UNL     1      18.518 -20.079   0.010 -0.84 -0.00    +0.000 OA
DOCKED: ATOM     17  H   UNL     1      18.633 -20.671  -0.750 -0.38 -0.00    +0.000 HD
DOCKED: ENDBRANCH  14  16
DOCKED: ENDBRANCH  10  13
DOCKED: ENDBRANCH   4  11
DOCKED: ENDBRANCH   3   7
DOCKED: ENDBRANCH   1   3
DOCKED: BRANCH   1  18
DOCKED: ATOM     18  C   UNL     1      28.559 -13.550  -0.001 -0.13 -0.00    +0.000 C 
DOCKED: BRANCH  18  19
DOCKED: ATOM     19  C   UNL     1      29.342 -14.282   1.101 -0.17 -0.00    +0.000 C 
DOCKED: BRANCH  19  20
DOCKED: ATOM     20  O   UNL     1      28.545 -14.491   2.236 -0.31 -0.00    +0.000 OA
DOCKED: ATOM     21  H   UNL     1      28.887 -15.250   2.735 -1.96 -0.00    +0.000 HD
DOCKED: ENDBRANCH  19  20
DOCKED: ENDBRANCH  18  19
DOCKED: ENDBRANCH   1  18
DOCKED: BRANCH   1  22
DOCKED: ATOM     22  C   UNL     1      28.643 -14.353  -2.360 -0.14 -0.00    +0.000 C 
DOCKED: BRANCH  22  23
DOCKED: ATOM     23  C   UNL     1      27.641 -14.407  -3.530 -0.27 -0.00    +0.000 C 
DOCKED: BRANCH  23  24
DOCKED: ATOM     24  C   UNL     1      28.337 -14.824  -4.791 -0.29 -0.00    +0.000 A 
DOCKED: ATOM     25  C   UNL     1      28.161 -14.278  -6.058 -0.31 -0.00    +0.000 A 
DOCKED: ATOM     26  N   UNL     1      28.894 -14.955  -6.970 -0.30 -0.00    +0.000 N 
DOCKED: ATOM     27  C   UNL     1      29.520 -15.932  -6.292 -0.30 -0.00    +0.000 A 
DOCKED: ATOM     28  C   UNL     1      29.201 -15.889  -4.959 -0.29 -0.00    +0.000 A 
DOCKED: ATOM     29  C   UNL     1      29.704 -16.819  -4.051 -0.23 -0.00    +0.000 A 
DOCKED: ATOM     30  C   UNL     1      30.570 -17.813  -4.543 -0.24 -0.00    +0.000 A 
DOCKED: ATOM     31  C   UNL     1      30.905 -17.855  -5.916 -0.27 -0.00    +0.000 A 
DOCKED: ATOM     32  C   UNL     1      30.374 -16.907  -6.808 -0.30 -0.00    +0.000 A 
DOCKED: ATOM     33  H   UNL     1      28.957 -14.769  -7.935 -0.35 -0.00    +0.000 HD
DOCKED: ENDBRANCH  23  24
DOCKED: ENDBRANCH  22  23
DOCKED: ENDBRANCH   1  22
DOCKED: TORSDOF 11
DOCKED: TER
DOCKED: ENDMDL
________________________________________________________________________________


	BEGINNING GENETIC ALGORITHM DOCKING 76 of 100
Run: 76 Seed: 290127001 1441305036 [ Run 76 of 100 GA/GALS ]
Beginning LAMARCKIAN GENETIC ALGORITHM (LGA), with a maximum of 2500000 energy evaluations.

Final-Value: -16.281


	FINAL GENETIC ALGORITHM DOCKED STATE
	_______________________________________________


Detailed state:  trans 28.997 -16.182 -1.464 quatxyzw -0.268262 -0.101810 0.920821 0.264121 center 0.459 0.118 0.005 ntor 11 12.2306 166.7641 124.6493 26.7963 -2.3720 -142.3506 -179.9109 -180.0000 161.1541 -24.7807 -33.5407
State:	 28.997 -16.182  -1.464  -0.278 -0.106  0.955 149.371     12.23  166.76  124.65   26.80   -2.37 -142.35 -179.91 -180.00  161.15  -24.78  -33.54

DOCKED: MODEL       76
DOCKED: USER    Run = 76
DOCKED: USER    DPF = ligand_dock.biased.dpf
DOCKED: USER  
DOCKED: USER    Estimated Free Energy of Binding    =   -9.40 kcal/mol  [=(1)+(2)+(3)-(4)]
DOCKED: USER    Estimated Inhibition Constant, Ki   =  129.38 nM (nanomolar)  [Temperature = 298.15 K]
DOCKED: USER    
DOCKED: USER    (1) Final Intermolecular Energy     =  -12.68 kcal/mol
DOCKED: USER        vdW + Hbond + desolv Energy     =  -12.68 kcal/mol
DOCKED: USER        Electrostatic Energy            =   +0.00 kcal/mol
DOCKED: USER    (2) Final Total Internal Energy     =   -3.60 kcal/mol
DOCKED: USER    (3) Torsional Free Energy           =   +3.28 kcal/mol
DOCKED: USER    (4) Unbound System's Energy  [=(2)] =   -3.60 kcal/mol
DOCKED: USER    
DOCKED: USER    
DOCKED: USER    NEWDPF move ligand.pdbqt
DOCKED: USER    NEWDPF about 0.459000 0.118000 0.005000
DOCKED: USER    NEWDPF tran0 28.996688 -16.181564 -1.463861
DOCKED: USER    NEWDPF quaternion0 -0.268262 -0.101810 0.920821 0.264121
DOCKED: USER    NEWDPF axisangle0 -0.278139 -0.105559 0.954723 149.370575
DOCKED: USER    NEWDPF quat0 -0.278139 -0.105559 0.954723 149.370575
DOCKED: USER    NEWDPF dihe0 12.23 166.76 124.65 26.80 -2.37 -142.35 -179.91 -180.00 161.15 -24.78 -33.54 
DOCKED: USER  keepresnum = 1 
DOCKED: USER  
DOCKED: REMARK  Name = 
DOCKED: REMARK  11 active torsions:
DOCKED: REMARK  status: ('A' for Active; 'I' for Inactive)
DOCKED: REMARK    1  A    between atoms: C_2  and  C_5
DOCKED: REMARK    2  A    between atoms: N_3  and  O_4
DOCKED: REMARK    3  A    between atoms: C_6  and  C_7
DOCKED: REMARK    4  A    between atoms: C_10  and  C_11
DOCKED: REMARK    5  A    between atoms: C_11  and  N_12
DOCKED: REMARK    6  A    between atoms: N_12  and  C_13
DOCKED: REMARK    7  A    between atoms: N_12  and  C_16
DOCKED: REMARK    8  A    between atoms: C_13  and  C_14
DOCKED: REMARK    9  A    between atoms: C_14  and  O_15
DOCKED: REMARK   10  A    between atoms: C_16  and  C_17
DOCKED: REMARK   11  A    between atoms: C_17  and  C_18
DOCKED: REMARK                            x       y       z     vdW  Elec       q    Type
DOCKED: REMARK                         _______ _______ _______ _____ _____    ______ ____
DOCKED: USER                              x       y       z     vdW  Elec       q    Type
DOCKED: USER                           _______ _______ _______ _____ _____    ______ ____
DOCKED: ROOT
DOCKED: ATOM      1  N   UNL     1      28.993 -14.762  -0.892 -0.12 -0.00    +0.000 N 
DOCKED: ATOM      2  H   UNL     1      28.996 -14.837  -1.909 +0.01 -0.00    +0.000 HD
DOCKED: ENDROOT
DOCKED: BRANCH   1   3
DOCKED: ATOM      3  C   UNL     1      28.881 -16.125  -0.329 -0.24 -0.00    +0.000 C 
DOCKED: BRANCH   3   7
DOCKED: ATOM      4  C   UNL     1      24.984 -17.763  -1.253 -0.61 -0.00    +0.000 A 
DOCKED: ATOM      5  C   UNL     1      25.529 -17.906   0.033 -0.55 -0.00    +0.000 A 
DOCKED: ATOM      6  C   UNL     1      26.791 -17.386   0.334 -0.24 -0.00    +0.000 A 
DOCKED: ATOM      7  C   UNL     1      27.528 -16.705  -0.647 -0.37 -0.00    +0.000 A 
DOCKED: ATOM      8  C   UNL     1      26.981 -16.542  -1.927 -0.36 -0.00    +0.000 A 
DOCKED: ATOM      9  C   UNL     1      25.719 -17.062  -2.229 -0.39 -0.00    +0.000 A 
DOCKED: BRANCH   4  11
DOCKED: ATOM     10  C   UNL     1      22.533 -17.937  -0.860 -0.79 -0.00    +0.000 C 
DOCKED: ATOM     11  C   UNL     1      23.635 -18.321  -1.521 -0.75 -0.00    +0.000 C 
DOCKED: BRANCH  10  13
DOCKED: ATOM     12  O   UNL     1      20.184 -17.862  -0.707 -2.14 +0.00    +0.000 OA
DOCKED: ATOM     13  C   UNL     1      21.190 -18.482  -1.144 -0.63 -0.00    +0.000 C 
DOCKED: ATOM     14  N   UNL     1      20.999 -19.704  -1.868 -0.65 -0.00    +0.000 N 
DOCKED: ATOM     15  H   UNL     1      21.777 -20.252  -2.119 -0.53 -0.00    +0.000 HD
DOCKED: BRANCH  14  16
DOCKED: ATOM     16  O   UNL     1      19.751 -20.108  -2.208 -1.64 -0.00    +0.000 OA
DOCKED: ATOM     17  H   UNL     1      19.125 -19.380  -2.066 -0.51 -0.00    +0.000 HD
DOCKED: ENDBRANCH  14  16
DOCKED: ENDBRANCH  10  13
DOCKED: ENDBRANCH   4  11
DOCKED: ENDBRANCH   3   7
DOCKED: ENDBRANCH   1   3
DOCKED: BRANCH   1  18
DOCKED: ATOM     18  C   UNL     1      27.806 -13.939  -0.561 -0.19 -0.00    +0.000 C 
DOCKED: BRANCH  18  19
DOCKED: ATOM     19  C   UNL     1      27.335 -13.090  -1.752 -0.17 -0.00    +0.000 C 
DOCKED: BRANCH  19  20
DOCKED: ATOM     20  O   UNL     1      27.414 -13.811  -2.953 -0.21 -0.00    +0.000 OA
DOCKED: ATOM     21  H   UNL     1      26.521 -14.066  -3.235 -0.00 -0.00    +0.000 HD
DOCKED: ENDBRANCH  19  20
DOCKED: ENDBRANCH  18  19
DOCKED: ENDBRANCH   1  18
DOCKED: BRANCH   1  22
DOCKED: ATOM     22  C   UNL     1      30.292 -14.128  -0.557 -0.06 -0.00    +0.000 C 
DOCKED: BRANCH  22  23
DOCKED: ATOM     23  C   UNL     1      31.377 -14.303  -1.638 -0.02 -0.00    +0.000 C 
DOCKED: BRANCH  23  24
DOCKED: ATOM     24  C   UNL     1      30.908 -15.258  -2.694 -0.05 -0.00    +0.000 A 
DOCKED: ATOM     25  C   UNL     1      31.036 -16.643  -2.678 -0.10 -0.00    +0.000 A 
DOCKED: ATOM     26  N   UNL     1      30.571 -17.173  -3.832 -0.19 -0.00    +0.000 N 
DOCKED: ATOM     27  C   UNL     1      30.165 -16.133  -4.581 -0.20 -0.00    +0.000 A 
DOCKED: ATOM     28  C   UNL     1      30.360 -14.946  -3.923 -0.08 -0.00    +0.000 A 
DOCKED: ATOM     29  C   UNL     1      30.043 -13.720  -4.506 -0.06 -0.00    +0.000 A 
DOCKED: ATOM     30  C   UNL     1      29.499 -13.733  -5.803 -0.17 -0.00    +0.000 A 
DOCKED: ATOM     31  C   UNL     1      29.291 -14.956  -6.481 -0.32 -0.00    +0.000 A 
DOCKED: ATOM     32  C   UNL     1      29.629 -16.176  -5.868 -0.31 -0.00    +0.000 A 
DOCKED: ATOM     33  H   UNL     1      30.537 -18.127  -4.074 -0.02 -0.00    +0.000 HD
DOCKED: ENDBRANCH  23  24
DOCKED: ENDBRANCH  22  23
DOCKED: ENDBRANCH   1  22
DOCKED: TORSDOF 11
DOCKED: TER
DOCKED: ENDMDL
________________________________________________________________________________


	BEGINNING GENETIC ALGORITHM DOCKING 77 of 100
Run: 77 Seed: 1083456336 1830542291 [ Run 77 of 100 GA/GALS ]
Beginning LAMARCKIAN GENETIC ALGORITHM (LGA), with a maximum of 2500000 energy evaluations.

Final-Value: -18.049


	FINAL GENETIC ALGORITHM DOCKED STATE
	_______________________________________________


Detailed state:  trans 28.236 -15.367 0.231 quatxyzw -0.687367 0.619170 -0.357664 -0.127403 center 0.459 0.118 0.005 ntor 11 15.5838 11.9389 165.3747 9.3152 -114.1353 177.5828 -174.0185 -126.5459 -179.7678 -163.8068 49.6384
State:	 28.236 -15.367   0.231  -0.693  0.624 -0.361 -165.361     15.58   11.94  165.37    9.32 -114.14  177.58 -174.02 -126.55 -179.77 -163.81   49.64

DOCKED: MODEL       77
DOCKED: USER    Run = 77
DOCKED: USER    DPF = ligand_dock.biased.dpf
DOCKED: USER  
DOCKED: USER    Estimated Free Energy of Binding    =  -11.94 kcal/mol  [=(1)+(2)+(3)-(4)]
DOCKED: USER    Estimated Inhibition Constant, Ki   =    1.77 nM (nanomolar)  [Temperature = 298.15 K]
DOCKED: USER    
DOCKED: USER    (1) Final Intermolecular Energy     =  -15.22 kcal/mol
DOCKED: USER        vdW + Hbond + desolv Energy     =  -15.22 kcal/mol
DOCKED: USER        Electrostatic Energy            =   +0.00 kcal/mol
DOCKED: USER    (2) Final Total Internal Energy     =   -2.83 kcal/mol
DOCKED: USER    (3) Torsional Free Energy           =   +3.28 kcal/mol
DOCKED: USER    (4) Unbound System's Energy  [=(2)] =   -2.83 kcal/mol
DOCKED: USER    
DOCKED: USER    
DOCKED: USER    NEWDPF move ligand.pdbqt
DOCKED: USER    NEWDPF about 0.459000 0.118000 0.005000
DOCKED: USER    NEWDPF tran0 28.236236 -15.366867 0.230711
DOCKED: USER    NEWDPF quaternion0 -0.687367 0.619170 -0.357664 -0.127403
DOCKED: USER    NEWDPF axisangle0 -0.693015 0.624257 -0.360602 -165.360877
DOCKED: USER    NEWDPF quat0 -0.693015 0.624257 -0.360602 -165.360877
DOCKED: USER    NEWDPF dihe0 15.58 11.94 165.37 9.32 -114.14 177.58 -174.02 -126.55 -179.77 -163.81 49.64 
DOCKED: USER  keepresnum = 1 
DOCKED: USER  
DOCKED: REMARK  Name = 
DOCKED: REMARK  11 active torsions:
DOCKED: REMARK  status: ('A' for Active; 'I' for Inactive)
DOCKED: REMARK    1  A    between atoms: C_2  and  C_5
DOCKED: REMARK    2  A    between atoms: N_3  and  O_4
DOCKED: REMARK    3  A    between atoms: C_6  and  C_7
DOCKED: REMARK    4  A    between atoms: C_10  and  C_11
DOCKED: REMARK    5  A    between atoms: C_11  and  N_12
DOCKED: REMARK    6  A    between atoms: N_12  and  C_13
DOCKED: REMARK    7  A    between atoms: N_12  and  C_16
DOCKED: REMARK    8  A    between atoms: C_13  and  C_14
DOCKED: REMARK    9  A    between atoms: C_14  and  O_15
DOCKED: REMARK   10  A    between atoms: C_16  and  C_17
DOCKED: REMARK   11  A    between atoms: C_17  and  C_18
DOCKED: REMARK                            x       y       z     vdW  Elec       q    Type
DOCKED: REMARK                         _______ _______ _______ _____ _____    ______ ____
DOCKED: USER                              x       y       z     vdW  Elec       q    Type
DOCKED: USER                           _______ _______ _______ _____ _____    ______ ____
DOCKED: ROOT
DOCKED: ATOM      1  N   UNL     1      29.192 -14.254   0.668 -0.14 -0.00    +0.000 N 
DOCKED: ATOM      2  H   UNL     1      28.558 -14.610   1.383 -0.39 -0.00    +0.000 HD
DOCKED: ENDROOT
DOCKED: BRANCH   1   3
DOCKED: ATOM      3  C   UNL     1      29.009 -15.066  -0.555 -0.17 -0.00    +0.000 C 
DOCKED: BRANCH   3   7
DOCKED: ATOM      4  C   UNL     1      25.334 -17.338  -0.323 -0.51 -0.00    +0.000 A 
DOCKED: ATOM      5  C   UNL     1      25.323 -16.012  -0.785 -0.38 -0.00    +0.000 A 
DOCKED: ATOM      6  C   UNL     1      26.507 -15.271  -0.853 -0.33 -0.00    +0.000 A 
DOCKED: ATOM      7  C   UNL     1      27.726 -15.849  -0.468 -0.29 -0.00    +0.000 A 
DOCKED: ATOM      8  C   UNL     1      27.746 -17.179  -0.026 -0.11 -0.00    +0.000 A 
DOCKED: ATOM      9  C   UNL     1      26.564 -17.920   0.043 -0.52 -0.00    +0.000 A 
DOCKED: BRANCH   4  11
DOCKED: ATOM     10  C   UNL     1      22.971 -17.742  -0.992 -0.76 -0.00    +0.000 C 
DOCKED: ATOM     11  C   UNL     1      24.055 -18.088  -0.281 -0.75 -0.00    +0.000 C 
DOCKED: BRANCH  10  13
DOCKED: ATOM     12  O   UNL     1      20.882 -18.262  -0.037 -1.45 -0.00    +0.000 OA
DOCKED: ATOM     13  C   UNL     1      21.706 -18.502  -0.960 -0.81 -0.00    +0.000 C 
DOCKED: ATOM     14  N   UNL     1      21.403 -19.522  -1.921 -0.39 -0.00    +0.000 N 
DOCKED: ATOM     15  H   UNL     1      22.084 -19.792  -2.579 -0.55 -0.00    +0.000 HD
DOCKED: BRANCH  14  16
DOCKED: ATOM     16  O   UNL     1      20.185 -20.113  -1.928 -1.79 -0.00    +0.000 OA
DOCKED: ATOM     17  H   UNL     1      19.564 -19.582  -1.405 -0.15 -0.00    +0.000 HD
DOCKED: ENDBRANCH  14  16
DOCKED: ENDBRANCH  10  13
DOCKED: ENDBRANCH   4  11
DOCKED: ENDBRANCH   3   7
DOCKED: ENDBRANCH   1   3
DOCKED: BRANCH   1  18
DOCKED: ATOM     18  C   UNL     1      30.553 -14.421   1.230 -0.12 -0.00    +0.000 C 
DOCKED: BRANCH  18  19
DOCKED: ATOM     19  C   UNL     1      30.604 -14.112   2.735 -0.18 -0.00    +0.000 C 
DOCKED: BRANCH  19  20
DOCKED: ATOM     20  O   UNL     1      30.158 -15.206   3.493 -0.26 -0.00    +0.000 OA
DOCKED: ATOM     21  H   UNL     1      29.316 -15.526   3.133 -1.72 -0.00    +0.000 HD
DOCKED: ENDBRANCH  19  20
DOCKED: ENDBRANCH  18  19
DOCKED: ENDBRANCH   1  18
DOCKED: BRANCH   1  22
DOCKED: ATOM     22  C   UNL     1      28.780 -12.843   0.465 -0.10 -0.00    +0.000 C 
DOCKED: BRANCH  22  23
DOCKED: ATOM     23  C   UNL     1      27.543 -12.424   1.282 -0.23 -0.00    +0.000 C 
DOCKED: BRANCH  23  24
DOCKED: ATOM     24  C   UNL     1      27.661 -12.915   2.693 -0.27 -0.00    +0.000 A 
DOCKED: ATOM     25  C   UNL     1      27.371 -14.196   3.154 -0.25 -0.00    +0.000 A 
DOCKED: ATOM     26  N   UNL     1      27.517 -14.258   4.497 -0.59 -0.00    +0.000 N 
DOCKED: ATOM     27  C   UNL     1      27.883 -13.025   4.888 -0.42 -0.00    +0.000 A 
DOCKED: ATOM     28  C   UNL     1      27.976 -12.175   3.816 -0.27 +0.00    +0.000 A 
DOCKED: ATOM     29  C   UNL     1      28.312 -10.831   3.969 -0.22 +0.00    +0.000 A 
DOCKED: ATOM     30  C   UNL     1      28.569 -10.364   5.270 -0.26 +0.00    +0.000 A 
DOCKED: ATOM     31  C   UNL     1      28.480 -11.239   6.376 -0.33 +0.00    +0.000 A 
DOCKED: ATOM     32  C   UNL     1      28.130 -12.589   6.190 -0.38 +0.00    +0.000 A 
DOCKED: ATOM     33  H   UNL     1      27.384 -15.046   5.072 -0.09 -0.00    +0.000 HD
DOCKED: ENDBRANCH  23  24
DOCKED: ENDBRANCH  22  23
DOCKED: ENDBRANCH   1  22
DOCKED: TORSDOF 11
DOCKED: TER
DOCKED: ENDMDL
________________________________________________________________________________


	BEGINNING GENETIC ALGORITHM DOCKING 78 of 100
Run: 78 Seed: 108988117 303553966 [ Run 78 of 100 GA/GALS ]
Beginning LAMARCKIAN GENETIC ALGORITHM (LGA), with a maximum of 2500000 energy evaluations.

Final-Value: -18.829


	FINAL GENETIC ALGORITHM DOCKED STATE
	_______________________________________________


Detailed state:  trans 28.073 -16.286 0.210 quatxyzw -0.801323 0.473963 -0.364293 -0.023056 center 0.459 0.118 0.005 ntor 11 24.6793 136.6968 -6.9573 91.2061 128.3313 -8.1891 3.0645 -86.8951 170.0405 -157.0270 88.5985
State:	 28.073 -16.286   0.210  -0.802  0.474 -0.364 -177.358     24.68  136.70   -6.96   91.21  128.33   -8.19    3.06  -86.90  170.04 -157.03   88.60

DOCKED: MODEL       78
DOCKED: USER    Run = 78
DOCKED: USER    DPF = ligand_dock.biased.dpf
DOCKED: USER  
DOCKED: USER    Estimated Free Energy of Binding    =  -12.93 kcal/mol  [=(1)+(2)+(3)-(4)]
DOCKED: USER    Estimated Inhibition Constant, Ki   =  330.29 pM (picomolar)  [Temperature = 298.15 K]
DOCKED: USER    
DOCKED: USER    (1) Final Intermolecular Energy     =  -16.22 kcal/mol
DOCKED: USER        vdW + Hbond + desolv Energy     =  -16.22 kcal/mol
DOCKED: USER        Electrostatic Energy            =   +0.00 kcal/mol
DOCKED: USER    (2) Final Total Internal Energy     =   -2.61 kcal/mol
DOCKED: USER    (3) Torsional Free Energy           =   +3.28 kcal/mol
DOCKED: USER    (4) Unbound System's Energy  [=(2)] =   -2.61 kcal/mol
DOCKED: USER    
DOCKED: USER    
DOCKED: USER    NEWDPF move ligand.pdbqt
DOCKED: USER    NEWDPF about 0.459000 0.118000 0.005000
DOCKED: USER    NEWDPF tran0 28.072770 -16.286193 0.209660
DOCKED: USER    NEWDPF quaternion0 -0.801323 0.473963 -0.364293 -0.023056
DOCKED: USER    NEWDPF axisangle0 -0.801536 0.474089 -0.364389 -177.357697
DOCKED: USER    NEWDPF quat0 -0.801536 0.474089 -0.364389 -177.357697
DOCKED: USER    NEWDPF dihe0 24.68 136.70 -6.96 91.21 128.33 -8.19 3.06 -86.90 170.04 -157.03 88.60 
DOCKED: USER  keepresnum = 1 
DOCKED: USER  
DOCKED: REMARK  Name = 
DOCKED: REMARK  11 active torsions:
DOCKED: REMARK  status: ('A' for Active; 'I' for Inactive)
DOCKED: REMARK    1  A    between atoms: C_2  and  C_5
DOCKED: REMARK    2  A    between atoms: N_3  and  O_4
DOCKED: REMARK    3  A    between atoms: C_6  and  C_7
DOCKED: REMARK    4  A    between atoms: C_10  and  C_11
DOCKED: REMARK    5  A    between atoms: C_11  and  N_12
DOCKED: REMARK    6  A    between atoms: N_12  and  C_13
DOCKED: REMARK    7  A    between atoms: N_12  and  C_16
DOCKED: REMARK    8  A    between atoms: C_13  and  C_14
DOCKED: REMARK    9  A    between atoms: C_14  and  O_15
DOCKED: REMARK   10  A    between atoms: C_16  and  C_17
DOCKED: REMARK   11  A    between atoms: C_17  and  C_18
DOCKED: REMARK                            x       y       z     vdW  Elec       q    Type
DOCKED: REMARK                         _______ _______ _______ _____ _____    ______ ____
DOCKED: USER                              x       y       z     vdW  Elec       q    Type
DOCKED: USER                           _______ _______ _______ _____ _____    ______ ____
DOCKED: ROOT
DOCKED: ATOM      1  N   UNL     1      28.723 -14.902   0.148 -0.19 -0.00    +0.000 N 
DOCKED: ATOM      2  H   UNL     1      28.308 -15.165   1.042 -0.36 -0.00    +0.000 HD
DOCKED: ENDROOT
DOCKED: BRANCH   1   3
DOCKED: ATOM      3  C   UNL     1      28.627 -16.063  -0.764 -0.27 -0.00    +0.000 C 
DOCKED: BRANCH   3   7
DOCKED: ATOM      4  C   UNL     1      24.528 -17.418  -1.054 -0.64 -0.00    +0.000 A 
DOCKED: ATOM      5  C   UNL     1      25.032 -16.475  -1.965 -0.52 -0.00    +0.000 A 
DOCKED: ATOM      6  C   UNL     1      26.353 -16.028  -1.870 -0.41 -0.00    +0.000 A 
DOCKED: ATOM      7  C   UNL     1      27.197 -16.524  -0.864 -0.39 -0.00    +0.000 A 
DOCKED: ATOM      8  C   UNL     1      26.706 -17.480   0.035 -0.47 -0.00    +0.000 A 
DOCKED: ATOM      9  C   UNL     1      25.385 -17.928  -0.058 -0.57 -0.00    +0.000 A 
DOCKED: BRANCH   4  11
DOCKED: ATOM     10  C   UNL     1      22.460 -18.546  -0.252 -0.82 -0.00    +0.000 C 
DOCKED: ATOM     11  C   UNL     1      23.123 -17.872  -1.203 -0.73 -0.00    +0.000 C 
DOCKED: BRANCH  10  13
DOCKED: ATOM     12  O   UNL     1      20.268 -18.255  -1.063 -2.08 -0.00    +0.000 OA
DOCKED: ATOM     13  C   UNL     1      21.056 -18.980  -0.398 -0.86 -0.00    +0.000 C 
DOCKED: ATOM     14  N   UNL     1      20.558 -20.176   0.215 -0.69 -0.00    +0.000 N 
DOCKED: ATOM     15  H   UNL     1      21.135 -20.691   0.824 -0.59 -0.00    +0.000 HD
DOCKED: BRANCH  14  16
DOCKED: ATOM     16  O   UNL     1      19.297 -20.599  -0.040 -0.78 -0.00    +0.000 OA
DOCKED: ATOM     17  H   UNL     1      19.007 -20.256  -0.900 -0.32 -0.00    +0.000 HD
DOCKED: ENDBRANCH  14  16
DOCKED: ENDBRANCH  10  13
DOCKED: ENDBRANCH   4  11
DOCKED: ENDBRANCH   3   7
DOCKED: ENDBRANCH   1   3
DOCKED: BRANCH   1  18
DOCKED: ATOM     18  C   UNL     1      30.134 -14.567   0.453 -0.12 -0.00    +0.000 C 
DOCKED: BRANCH  18  19
DOCKED: ATOM     19  C   UNL     1      30.777 -15.576   1.417 +0.02 -0.00    +0.000 C 
DOCKED: BRANCH  19  20
DOCKED: ATOM     20  O   UNL     1      30.627 -15.171   2.751 -0.22 -0.00    +0.000 OA
DOCKED: ATOM     21  H   UNL     1      29.715 -15.339   3.038 -1.57 -0.00    +0.000 HD
DOCKED: ENDBRANCH  19  20
DOCKED: ENDBRANCH  18  19
DOCKED: ENDBRANCH   1  18
DOCKED: BRANCH   1  22
DOCKED: ATOM     22  C   UNL     1      27.908 -13.755  -0.324 -0.18 -0.00    +0.000 C 
DOCKED: BRANCH  22  23
DOCKED: ATOM     23  C   UNL     1      26.583 -13.566   0.439 -0.32 -0.00    +0.000 C 
DOCKED: BRANCH  23  24
DOCKED: ATOM     24  C   UNL     1      26.811 -12.768   1.687 -0.30 -0.00    +0.000 A 
DOCKED: ATOM     25  C   UNL     1      26.637 -11.396   1.840 -0.31 +0.00    +0.000 A 
DOCKED: ATOM     26  N   UNL     1      27.014 -11.008   3.080 -0.31 +0.00    +0.000 N 
DOCKED: ATOM     27  C   UNL     1      27.437 -12.120   3.705 -0.23 +0.00    +0.000 A 
DOCKED: ATOM     28  C   UNL     1      27.335 -13.214   2.885 -0.32 -0.00    +0.000 A 
DOCKED: ATOM     29  C   UNL     1      27.741 -14.483   3.297 -0.34 -0.00    +0.000 A 
DOCKED: ATOM     30  C   UNL     1      28.255 -14.616   4.599 -0.52 -0.00    +0.000 A 
DOCKED: ATOM     31  C   UNL     1      28.355 -13.490   5.448 -0.43 -0.00    +0.000 A 
DOCKED: ATOM     32  C   UNL     1      27.946 -12.221   5.000 -0.35 +0.00    +0.000 A 
DOCKED: ATOM     33  H   UNL     1      26.983 -10.096   3.450 -0.03 +0.00    +0.000 HD
DOCKED: ENDBRANCH  23  24
DOCKED: ENDBRANCH  22  23
DOCKED: ENDBRANCH   1  22
DOCKED: TORSDOF 11
DOCKED: TER
DOCKED: ENDMDL
________________________________________________________________________________


	BEGINNING GENETIC ALGORITHM DOCKING 79 of 100
Run: 79 Seed: 468972584 1943430488 [ Run 79 of 100 GA/GALS ]
Beginning LAMARCKIAN GENETIC ALGORITHM (LGA), with a maximum of 2500000 energy evaluations.

Final-Value: -16.769


	FINAL GENETIC ALGORITHM DOCKED STATE
	_______________________________________________


Detailed state:  trans 28.727 -16.681 -0.757 quatxyzw -0.555606 0.811291 -0.112752 -0.142813 center 0.459 0.118 0.005 ntor 11 -141.0737 95.5544 20.3701 129.2616 165.2563 59.9669 54.2428 80.4471 -148.8571 81.2762 51.5972
State:	 28.727 -16.681  -0.757  -0.561  0.820 -0.114 -163.579   -141.07   95.55   20.37  129.26  165.26   59.97   54.24   80.45 -148.86   81.28   51.60

DOCKED: MODEL       79
DOCKED: USER    Run = 79
DOCKED: USER    DPF = ligand_dock.biased.dpf
DOCKED: USER  
DOCKED: USER    Estimated Free Energy of Binding    =  -11.26 kcal/mol  [=(1)+(2)+(3)-(4)]
DOCKED: USER    Estimated Inhibition Constant, Ki   =    5.59 nM (nanomolar)  [Temperature = 298.15 K]
DOCKED: USER    
DOCKED: USER    (1) Final Intermolecular Energy     =  -14.54 kcal/mol
DOCKED: USER        vdW + Hbond + desolv Energy     =  -14.54 kcal/mol
DOCKED: USER        Electrostatic Energy            =   +0.00 kcal/mol
DOCKED: USER    (2) Final Total Internal Energy     =   -2.23 kcal/mol
DOCKED: USER    (3) Torsional Free Energy           =   +3.28 kcal/mol
DOCKED: USER    (4) Unbound System's Energy  [=(2)] =   -2.23 kcal/mol
DOCKED: USER    
DOCKED: USER    
DOCKED: USER    NEWDPF move ligand.pdbqt
DOCKED: USER    NEWDPF about 0.459000 0.118000 0.005000
DOCKED: USER    NEWDPF tran0 28.727433 -16.680594 -0.756868
DOCKED: USER    NEWDPF quaternion0 -0.555606 0.811291 -0.112752 -0.142813
DOCKED: USER    NEWDPF axisangle0 -0.561360 0.819693 -0.113920 -163.578706
DOCKED: USER    NEWDPF quat0 -0.561360 0.819693 -0.113920 -163.578706
DOCKED: USER    NEWDPF dihe0 -141.07 95.55 20.37 129.26 165.26 59.97 54.24 80.45 -148.86 81.28 51.60 
DOCKED: USER  keepresnum = 1 
DOCKED: USER  
DOCKED: REMARK  Name = 
DOCKED: REMARK  11 active torsions:
DOCKED: REMARK  status: ('A' for Active; 'I' for Inactive)
DOCKED: REMARK    1  A    between atoms: C_2  and  C_5
DOCKED: REMARK    2  A    between atoms: N_3  and  O_4
DOCKED: REMARK    3  A    between atoms: C_6  and  C_7
DOCKED: REMARK    4  A    between atoms: C_10  and  C_11
DOCKED: REMARK    5  A    between atoms: C_11  and  N_12
DOCKED: REMARK    6  A    between atoms: N_12  and  C_13
DOCKED: REMARK    7  A    between atoms: N_12  and  C_16
DOCKED: REMARK    8  A    between atoms: C_13  and  C_14
DOCKED: REMARK    9  A    between atoms: C_14  and  O_15
DOCKED: REMARK   10  A    between atoms: C_16  and  C_17
DOCKED: REMARK   11  A    between atoms: C_17  and  C_18
DOCKED: REMARK                            x       y       z     vdW  Elec       q    Type
DOCKED: REMARK                         _______ _______ _______ _____ _____    ______ ____
DOCKED: USER                              x       y       z     vdW  Elec       q    Type
DOCKED: USER                           _______ _______ _______ _____ _____    ______ ____
DOCKED: ROOT
DOCKED: ATOM      1  N   UNL     1      30.108 -16.254  -0.253 -0.17 -0.00    +0.000 N 
DOCKED: ATOM      2  H   UNL     1      29.516 -16.743   0.418 -0.46 -0.00    +0.000 HD
DOCKED: ENDROOT
DOCKED: BRANCH   1   3
DOCKED: ATOM      3  C   UNL     1      29.411 -16.237  -1.558 -0.21 -0.00    +0.000 C 
DOCKED: BRANCH   3   7
DOCKED: ATOM      4  C   UNL     1      25.198 -17.051  -1.001 -0.57 -0.00    +0.000 A 
DOCKED: ATOM      5  C   UNL     1      26.150 -17.595  -0.124 -0.52 -0.00    +0.000 A 
DOCKED: ATOM      6  C   UNL     1      27.513 -17.342  -0.305 -0.35 -0.00    +0.000 A 
DOCKED: ATOM      7  C   UNL     1      27.947 -16.531  -1.365 -0.32 -0.00    +0.000 A 
DOCKED: ATOM      8  C   UNL     1      27.000 -15.968  -2.231 -0.33 -0.00    +0.000 A 
DOCKED: ATOM      9  C   UNL     1      25.637 -16.220  -2.052 -0.49 -0.00    +0.000 A 
DOCKED: BRANCH   4  11
DOCKED: ATOM     10  C   UNL     1      23.083 -18.299  -1.402 -0.74 -0.00    +0.000 C 
DOCKED: ATOM     11  C   UNL     1      23.762 -17.337  -0.761 -0.73 -0.00    +0.000 C 
DOCKED: BRANCH  10  13
DOCKED: ATOM     12  O   UNL     1      21.030 -17.860  -0.336 -1.93 +0.00    +0.000 OA
DOCKED: ATOM     13  C   UNL     1      21.659 -18.592  -1.146 -0.72 -0.00    +0.000 C 
DOCKED: ATOM     14  N   UNL     1      20.983 -19.696  -1.762 -0.70 -0.00    +0.000 N 
DOCKED: ATOM     15  H   UNL     1      21.490 -20.337  -2.310 -0.54 -0.00    +0.000 HD
DOCKED: BRANCH  14  16
DOCKED: ATOM     16  O   UNL     1      19.649 -19.860  -1.592 -1.60 -0.00    +0.000 OA
DOCKED: ATOM     17  H   UNL     1      19.449 -20.804  -1.490 -0.62 -0.00    +0.000 HD
DOCKED: ENDBRANCH  14  16
DOCKED: ENDBRANCH  10  13
DOCKED: ENDBRANCH   4  11
DOCKED: ENDBRANCH   3   7
DOCKED: ENDBRANCH   1   3
DOCKED: BRANCH   1  18
DOCKED: ATOM     18  C   UNL     1      31.362 -17.042  -0.318 -0.15 -0.00    +0.000 C 
DOCKED: BRANCH  18  19
DOCKED: ATOM     19  C   UNL     1      31.235 -18.263  -1.243 -0.18 -0.00    +0.000 C 
DOCKED: BRANCH  19  20
DOCKED: ATOM     20  O   UNL     1      30.290 -19.175  -0.752 -0.26 -0.00    +0.000 OA
DOCKED: ATOM     21  H   UNL     1      29.568 -18.692  -0.321 -0.61 -0.00    +0.000 HD
DOCKED: ENDBRANCH  19  20
DOCKED: ENDBRANCH  18  19
DOCKED: ENDBRANCH   1  18
DOCKED: BRANCH   1  22
DOCKED: ATOM     22  C   UNL     1      30.269 -14.890   0.310 -0.13 -0.00    +0.000 C 
DOCKED: BRANCH  22  23
DOCKED: ATOM     23  C   UNL     1      30.145 -14.822   1.844 -0.04 -0.00    +0.000 C 
DOCKED: BRANCH  23  24
DOCKED: ATOM     24  C   UNL     1      28.853 -14.169   2.232 -0.20 -0.00    +0.000 A 
DOCKED: ATOM     25  C   UNL     1      28.080 -14.455   3.353 -0.37 -0.00    +0.000 A 
DOCKED: ATOM     26  N   UNL     1      26.941 -13.726   3.340 -0.42 -0.00    +0.000 N 
DOCKED: ATOM     27  C   UNL     1      26.982 -12.994   2.214 -0.31 -0.00    +0.000 A 
DOCKED: ATOM     28  C   UNL     1      28.131 -13.241   1.507 -0.19 -0.00    +0.000 A 
DOCKED: ATOM     29  C   UNL     1      28.392 -12.621   0.286 -0.10 -0.00    +0.000 A 
DOCKED: ATOM     30  C   UNL     1      27.436 -11.714  -0.206 -0.13 -0.00    +0.000 A 
DOCKED: ATOM     31  C   UNL     1      26.254 -11.453   0.524 -0.21 +0.00    +0.000 A 
DOCKED: ATOM     32  C   UNL     1      26.016 -12.101   1.750 -0.21 +0.00    +0.000 A 
DOCKED: ATOM     33  H   UNL     1      26.227 -13.731   4.018 -0.04 -0.00    +0.000 HD
DOCKED: ENDBRANCH  23  24
DOCKED: ENDBRANCH  22  23
DOCKED: ENDBRANCH   1  22
DOCKED: TORSDOF 11
DOCKED: TER
DOCKED: ENDMDL
________________________________________________________________________________


	BEGINNING GENETIC ALGORITHM DOCKING 80 of 100
Run: 80 Seed: 1897495014 736783241 [ Run 80 of 100 GA/GALS ]
Beginning LAMARCKIAN GENETIC ALGORITHM (LGA), with a maximum of 2500000 energy evaluations.

Final-Value: -17.409


	FINAL GENETIC ALGORITHM DOCKED STATE
	_______________________________________________


Detailed state:  trans 27.843 -15.787 -2.949 quatxyzw 0.022803 0.455968 0.862775 -0.217237 center 0.459 0.118 0.005 ntor 11 -0.3890 -72.4523 80.6394 52.4988 -0.8926 96.6212 -123.9313 -79.4697 -174.0572 55.7537 51.2908
State:	 27.843 -15.787  -2.949   0.023  0.467  0.884 -154.906     -0.39  -72.45   80.64   52.50   -0.89   96.62 -123.93  -79.47 -174.06   55.75   51.29

DOCKED: MODEL       80
DOCKED: USER    Run = 80
DOCKED: USER    DPF = ligand_dock.biased.dpf
DOCKED: USER  
DOCKED: USER    Estimated Free Energy of Binding    =  -11.13 kcal/mol  [=(1)+(2)+(3)-(4)]
DOCKED: USER    Estimated Inhibition Constant, Ki   =    6.95 nM (nanomolar)  [Temperature = 298.15 K]
DOCKED: USER    
DOCKED: USER    (1) Final Intermolecular Energy     =  -14.41 kcal/mol
DOCKED: USER        vdW + Hbond + desolv Energy     =  -14.41 kcal/mol
DOCKED: USER        Electrostatic Energy            =   +0.00 kcal/mol
DOCKED: USER    (2) Final Total Internal Energy     =   -3.00 kcal/mol
DOCKED: USER    (3) Torsional Free Energy           =   +3.28 kcal/mol
DOCKED: USER    (4) Unbound System's Energy  [=(2)] =   -3.00 kcal/mol
DOCKED: USER    
DOCKED: USER    
DOCKED: USER    NEWDPF move ligand.pdbqt
DOCKED: USER    NEWDPF about 0.459000 0.118000 0.005000
DOCKED: USER    NEWDPF tran0 27.842967 -15.786601 -2.949027
DOCKED: USER    NEWDPF quaternion0 0.022803 0.455968 0.862775 -0.217237
DOCKED: USER    NEWDPF axisangle0 0.023361 0.467124 0.883883 -154.906434
DOCKED: USER    NEWDPF quat0 0.023361 0.467124 0.883883 -154.906434
DOCKED: USER    NEWDPF dihe0 -0.39 -72.45 80.64 52.50 -0.89 96.62 -123.93 -79.47 -174.06 55.75 51.29 
DOCKED: USER  keepresnum = 1 
DOCKED: USER  
DOCKED: REMARK  Name = 
DOCKED: REMARK  11 active torsions:
DOCKED: REMARK  status: ('A' for Active; 'I' for Inactive)
DOCKED: REMARK    1  A    between atoms: C_2  and  C_5
DOCKED: REMARK    2  A    between atoms: N_3  and  O_4
DOCKED: REMARK    3  A    between atoms: C_6  and  C_7
DOCKED: REMARK    4  A    between atoms: C_10  and  C_11
DOCKED: REMARK    5  A    between atoms: C_11  and  N_12
DOCKED: REMARK    6  A    between atoms: N_12  and  C_13
DOCKED: REMARK    7  A    between atoms: N_12  and  C_16
DOCKED: REMARK    8  A    between atoms: C_13  and  C_14
DOCKED: REMARK    9  A    between atoms: C_14  and  O_15
DOCKED: REMARK   10  A    between atoms: C_16  and  C_17
DOCKED: REMARK   11  A    between atoms: C_17  and  C_18
DOCKED: REMARK                            x       y       z     vdW  Elec       q    Type
DOCKED: REMARK                         _______ _______ _______ _____ _____    ______ ____
DOCKED: USER                              x       y       z     vdW  Elec       q    Type
DOCKED: USER                           _______ _______ _______ _____ _____    ______ ____
DOCKED: ROOT
DOCKED: ATOM      1  N   UNL     1      29.114 -15.545  -3.767 -0.20 -0.00    +0.000 N 
DOCKED: ATOM      2  H   UNL     1      28.346 -16.009  -4.254 -0.02 -0.00    +0.000 HD
DOCKED: ENDROOT
DOCKED: BRANCH   1   3
DOCKED: ATOM      3  C   UNL     1      28.643 -15.168  -2.417 -0.19 -0.00    +0.000 C 
DOCKED: BRANCH   3   7
DOCKED: ATOM      4  C   UNL     1      25.090 -17.425  -1.412 -0.60 -0.00    +0.000 A 
DOCKED: ATOM      5  C   UNL     1      25.135 -16.652  -2.583 -0.45 -0.00    +0.000 A 
DOCKED: ATOM      6  C   UNL     1      26.277 -15.914  -2.908 -0.42 -0.00    +0.000 A 
DOCKED: ATOM      7  C   UNL     1      27.400 -15.944  -2.067 -0.30 -0.00    +0.000 A 
DOCKED: ATOM      8  C   UNL     1      27.370 -16.730  -0.908 -0.39 -0.00    +0.000 A 
DOCKED: ATOM      9  C   UNL     1      26.228 -17.468  -0.582 -0.54 -0.00    +0.000 A 
DOCKED: BRANCH   4  11
DOCKED: ATOM     10  C   UNL     1      22.658 -17.638  -0.933 -0.73 -0.00    +0.000 C 
DOCKED: ATOM     11  C   UNL     1      23.861 -18.201  -1.117 -0.79 -0.00    +0.000 C 
DOCKED: BRANCH  10  13
DOCKED: ATOM     12  O   UNL     1      20.316 -17.862  -0.830 -2.22 -0.00    +0.000 OA
DOCKED: ATOM     13  C   UNL     1      21.434 -18.416  -0.658 -0.84 -0.00    +0.000 C 
DOCKED: ATOM     14  N   UNL     1      21.479 -19.765  -0.174 -0.62 -0.00    +0.000 N 
DOCKED: ATOM     15  H   UNL     1      22.343 -20.170   0.067 -0.54 -0.00    +0.000 HD
DOCKED: BRANCH  14  16
DOCKED: ATOM     16  O   UNL     1      20.338 -20.483  -0.046 -0.82 -0.00    +0.000 OA
DOCKED: ATOM     17  H   UNL     1      19.581 -19.940  -0.319 -0.05 -0.00    +0.000 HD
DOCKED: ENDBRANCH  14  16
DOCKED: ENDBRANCH  10  13
DOCKED: ENDBRANCH   4  11
DOCKED: ENDBRANCH   3   7
DOCKED: ENDBRANCH   1   3
DOCKED: BRANCH   1  18
DOCKED: ATOM     18  C   UNL     1      29.433 -14.350  -4.584 -0.16 -0.00    +0.000 C 
DOCKED: BRANCH  18  19
DOCKED: ATOM     19  C   UNL     1      28.461 -14.172  -5.761 -0.34 -0.00    +0.000 C 
DOCKED: BRANCH  19  20
DOCKED: ATOM     20  O   UNL     1      27.550 -15.237  -5.833 -1.01 +0.00    +0.000 OA
DOCKED: ATOM     21  H   UNL     1      27.493 -15.552  -6.749 -0.06 +0.00    +0.000 HD
DOCKED: ENDBRANCH  19  20
DOCKED: ENDBRANCH  18  19
DOCKED: ENDBRANCH   1  18
DOCKED: BRANCH   1  22
DOCKED: ATOM     22  C   UNL     1      30.195 -16.560  -3.716 -0.20 -0.00    +0.000 C 
DOCKED: BRANCH  22  23
DOCKED: ATOM     23  C   UNL     1      29.850 -17.887  -4.417 -0.06 -0.00    +0.000 C 
DOCKED: BRANCH  23  24
DOCKED: ATOM     24  C   UNL     1      30.306 -17.854  -5.845 -0.31 -0.00    +0.000 A 
DOCKED: ATOM     25  C   UNL     1      30.384 -16.735  -6.667 -0.32 -0.00    +0.000 A 
DOCKED: ATOM     26  N   UNL     1      30.763 -17.092  -7.915 -0.34 -0.00    +0.000 N 
DOCKED: ATOM     27  C   UNL     1      30.910 -18.428  -7.891 -0.32 -0.00    +0.000 A 
DOCKED: ATOM     28  C   UNL     1      30.634 -18.931  -6.646 -0.36 -0.00    +0.000 A 
DOCKED: ATOM     29  C   UNL     1      30.689 -20.298  -6.375 -0.39 -0.00    +0.000 A 
DOCKED: ATOM     30  C   UNL     1      31.051 -21.159  -7.426 -0.28 -0.00    +0.000 A 
DOCKED: ATOM     31  C   UNL     1      31.342 -20.642  -8.709 -0.23 -0.00    +0.000 A 
DOCKED: ATOM     32  C   UNL     1      31.269 -19.258  -8.953 -0.32 -0.00    +0.000 A 
DOCKED: ATOM     33  H   UNL     1      30.902 -16.494  -8.685 -0.03 -0.00    +0.000 HD
DOCKED: ENDBRANCH  23  24
DOCKED: ENDBRANCH  22  23
DOCKED: ENDBRANCH   1  22
DOCKED: TORSDOF 11
DOCKED: TER
DOCKED: ENDMDL
________________________________________________________________________________


	BEGINNING GENETIC ALGORITHM DOCKING 81 of 100
Run: 81 Seed: 1109078904 696056892 [ Run 81 of 100 GA/GALS ]
Beginning LAMARCKIAN GENETIC ALGORITHM (LGA), with a maximum of 2500000 energy evaluations.

Final-Value: -15.970


	FINAL GENETIC ALGORITHM DOCKED STATE
	_______________________________________________


Detailed state:  trans 29.365 -15.399 -0.993 quatxyzw -0.060430 0.402536 -0.238384 0.881752 center 0.459 0.118 0.005 ntor 11 10.6531 151.2027 122.8461 77.1017 -172.5092 178.8648 -179.8940 94.5414 156.4949 180.0000 -166.2233
State:	 29.365 -15.399  -0.993  -0.128  0.853 -0.505 56.291     10.65  151.20  122.85   77.10 -172.51  178.86 -179.89   94.54  156.49  180.00 -166.22

DOCKED: MODEL       81
DOCKED: USER    Run = 81
DOCKED: USER    DPF = ligand_dock.biased.dpf
DOCKED: USER  
DOCKED: USER    Estimated Free Energy of Binding    =   -9.57 kcal/mol  [=(1)+(2)+(3)-(4)]
DOCKED: USER    Estimated Inhibition Constant, Ki   =   97.40 nM (nanomolar)  [Temperature = 298.15 K]
DOCKED: USER    
DOCKED: USER    (1) Final Intermolecular Energy     =  -12.85 kcal/mol
DOCKED: USER        vdW + Hbond + desolv Energy     =  -12.85 kcal/mol
DOCKED: USER        Electrostatic Energy            =   +0.00 kcal/mol
DOCKED: USER    (2) Final Total Internal Energy     =   -3.12 kcal/mol
DOCKED: USER    (3) Torsional Free Energy           =   +3.28 kcal/mol
DOCKED: USER    (4) Unbound System's Energy  [=(2)] =   -3.12 kcal/mol
DOCKED: USER    
DOCKED: USER    
DOCKED: USER    NEWDPF move ligand.pdbqt
DOCKED: USER    NEWDPF about 0.459000 0.118000 0.005000
DOCKED: USER    NEWDPF tran0 29.365041 -15.398967 -0.992840
DOCKED: USER    NEWDPF quaternion0 -0.060430 0.402536 -0.238384 0.881752
DOCKED: USER    NEWDPF axisangle0 -0.128108 0.853348 -0.505357 56.291161
DOCKED: USER    NEWDPF quat0 -0.128108 0.853348 -0.505357 56.291161
DOCKED: USER    NEWDPF dihe0 10.65 151.20 122.85 77.10 -172.51 178.86 -179.89 94.54 156.49 180.00 -166.22 
DOCKED: USER  keepresnum = 1 
DOCKED: USER  
DOCKED: REMARK  Name = 
DOCKED: REMARK  11 active torsions:
DOCKED: REMARK  status: ('A' for Active; 'I' for Inactive)
DOCKED: REMARK    1  A    between atoms: C_2  and  C_5
DOCKED: REMARK    2  A    between atoms: N_3  and  O_4
DOCKED: REMARK    3  A    between atoms: C_6  and  C_7
DOCKED: REMARK    4  A    between atoms: C_10  and  C_11
DOCKED: REMARK    5  A    between atoms: C_11  and  N_12
DOCKED: REMARK    6  A    between atoms: N_12  and  C_13
DOCKED: REMARK    7  A    between atoms: N_12  and  C_16
DOCKED: REMARK    8  A    between atoms: C_13  and  C_14
DOCKED: REMARK    9  A    between atoms: C_14  and  O_15
DOCKED: REMARK   10  A    between atoms: C_16  and  C_17
DOCKED: REMARK   11  A    between atoms: C_17  and  C_18
DOCKED: REMARK                            x       y       z     vdW  Elec       q    Type
DOCKED: REMARK                         _______ _______ _______ _____ _____    ______ ____
DOCKED: USER                              x       y       z     vdW  Elec       q    Type
DOCKED: USER                           _______ _______ _______ _____ _____    ______ ____
DOCKED: ROOT
DOCKED: ATOM      1  N   UNL     1      29.410 -16.818  -1.563 -0.23 -0.00    +0.000 N 
DOCKED: ATOM      2  H   UNL     1      30.251 -16.256  -1.691 +0.00 -0.00    +0.000 HD
DOCKED: ENDROOT
DOCKED: BRANCH   1   3
DOCKED: ATOM      3  C   UNL     1      28.456 -16.043  -0.739 -0.28 -0.00    +0.000 C 
DOCKED: BRANCH   3   7
DOCKED: ATOM      4  C   UNL     1      24.436 -17.561  -1.246 -0.65 -0.00    +0.000 A 
DOCKED: ATOM      5  C   UNL     1      25.408 -18.328  -0.582 -0.59 -0.00    +0.000 A 
DOCKED: ATOM      6  C   UNL     1      26.711 -17.845  -0.424 -0.51 -0.00    +0.000 A 
DOCKED: ATOM      7  C   UNL     1      27.061 -16.581  -0.921 -0.40 -0.00    +0.000 A 
DOCKED: ATOM      8  C   UNL     1      26.091 -15.802  -1.566 -0.42 -0.00    +0.000 A 
DOCKED: ATOM      9  C   UNL     1      24.789 -16.284  -1.725 -0.48 -0.00    +0.000 A 
DOCKED: BRANCH   4  11
DOCKED: ATOM     10  C   UNL     1      22.574 -19.073  -0.583 -0.80 -0.00    +0.000 C 
DOCKED: ATOM     11  C   UNL     1      23.065 -18.110  -1.378 -0.71 -0.00    +0.000 C 
DOCKED: BRANCH  10  13
DOCKED: ATOM     12  O   UNL     1      20.630 -19.536  -1.828 -1.55 -0.00    +0.000 OA
DOCKED: ATOM     13  C   UNL     1      21.201 -19.602  -0.707 -0.77 -0.00    +0.000 C 
DOCKED: ATOM     14  N   UNL     1      20.492 -20.156   0.409 -0.68 -0.00    +0.000 N 
DOCKED: ATOM     15  H   UNL     1      20.887 -20.114   1.310 -0.50 -0.00    +0.000 HD
DOCKED: BRANCH  14  16
DOCKED: ATOM     16  O   UNL     1      19.282 -20.738   0.229 -0.78 -0.00    +0.000 OA
DOCKED: ATOM     17  H   UNL     1      19.115 -20.850  -0.721 -0.48 -0.00    +0.000 HD
DOCKED: ENDBRANCH  14  16
DOCKED: ENDBRANCH  10  13
DOCKED: ENDBRANCH   4  11
DOCKED: ENDBRANCH   3   7
DOCKED: ENDBRANCH   1   3
DOCKED: BRANCH   1  18
DOCKED: ATOM     18  C   UNL     1      29.859 -18.045  -0.863 -0.13 -0.00    +0.000 C 
DOCKED: BRANCH  18  19
DOCKED: ATOM     19  C   UNL     1      31.088 -17.792   0.024 -0.14 -0.00    +0.000 C 
DOCKED: BRANCH  19  20
DOCKED: ATOM     20  O   UNL     1      31.007 -16.545   0.661 -0.18 -0.00    +0.000 OA
DOCKED: ATOM     21  H   UNL     1      30.563 -16.649   1.518 -0.46 -0.00    +0.000 HD
DOCKED: ENDBRANCH  19  20
DOCKED: ENDBRANCH  18  19
DOCKED: ENDBRANCH   1  18
DOCKED: BRANCH   1  22
DOCKED: ATOM     22  C   UNL     1      28.898 -17.049  -2.937 -0.10 -0.00    +0.000 C 
DOCKED: BRANCH  22  23
DOCKED: ATOM     23  C   UNL     1      29.276 -15.946  -3.944 -0.26 -0.00    +0.000 C 
DOCKED: BRANCH  23  24
DOCKED: ATOM     24  C   UNL     1      28.182 -14.924  -4.030 -0.25 -0.00    +0.000 A 
DOCKED: ATOM     25  C   UNL     1      27.066 -14.969  -4.859 -0.44 -0.00    +0.000 A 
DOCKED: ATOM     26  N   UNL     1      26.334 -13.840  -4.727 -0.37 -0.00    +0.000 N 
DOCKED: ATOM     27  C   UNL     1      26.986 -13.077  -3.833 -0.23 -0.00    +0.000 A 
DOCKED: ATOM     28  C   UNL     1      28.123 -13.702  -3.389 -0.14 -0.00    +0.000 A 
DOCKED: ATOM     29  C   UNL     1      28.987 -13.098  -2.476 -0.06 -0.00    +0.000 A 
DOCKED: ATOM     30  C   UNL     1      28.651 -11.816  -2.006 -0.05 -0.00    +0.000 A 
DOCKED: ATOM     31  C   UNL     1      27.476 -11.172  -2.457 -0.10 -0.00    +0.000 A 
DOCKED: ATOM     32  C   UNL     1      26.629 -11.804  -3.386 -0.11 -0.00    +0.000 A 
DOCKED: ATOM     33  H   UNL     1      25.493 -13.621  -5.190 -0.00 -0.00    +0.000 HD
DOCKED: ENDBRANCH  23  24
DOCKED: ENDBRANCH  22  23
DOCKED: ENDBRANCH   1  22
DOCKED: TORSDOF 11
DOCKED: TER
DOCKED: ENDMDL
________________________________________________________________________________


	BEGINNING GENETIC ALGORITHM DOCKING 82 of 100
Run: 82 Seed: 624851866 1031687882 [ Run 82 of 100 GA/GALS ]
Beginning LAMARCKIAN GENETIC ALGORITHM (LGA), with a maximum of 2500000 energy evaluations.

Final-Value: -17.075


	FINAL GENETIC ALGORITHM DOCKED STATE
	_______________________________________________


Detailed state:  trans 27.904 -15.465 -1.949 quatxyzw 0.146745 -0.626042 0.765177 -0.032259 center 0.459 0.118 0.005 ntor 11 6.4200 74.1919 -93.8759 46.9226 -160.2242 -80.1844 3.0465 121.1724 174.9376 -165.6022 -9.1226
State:	 27.904 -15.465  -1.949   0.147 -0.626  0.766 -176.303      6.42   74.19  -93.88   46.92 -160.22  -80.18    3.05  121.17  174.94 -165.60   -9.12

DOCKED: MODEL       82
DOCKED: USER    Run = 82
DOCKED: USER    DPF = ligand_dock.biased.dpf
DOCKED: USER  
DOCKED: USER    Estimated Free Energy of Binding    =  -11.22 kcal/mol  [=(1)+(2)+(3)-(4)]
DOCKED: USER    Estimated Inhibition Constant, Ki   =    6.00 nM (nanomolar)  [Temperature = 298.15 K]
DOCKED: USER    
DOCKED: USER    (1) Final Intermolecular Energy     =  -14.50 kcal/mol
DOCKED: USER        vdW + Hbond + desolv Energy     =  -14.50 kcal/mol
DOCKED: USER        Electrostatic Energy            =   +0.00 kcal/mol
DOCKED: USER    (2) Final Total Internal Energy     =   -2.58 kcal/mol
DOCKED: USER    (3) Torsional Free Energy           =   +3.28 kcal/mol
DOCKED: USER    (4) Unbound System's Energy  [=(2)] =   -2.58 kcal/mol
DOCKED: USER    
DOCKED: USER    
DOCKED: USER    NEWDPF move ligand.pdbqt
DOCKED: USER    NEWDPF about 0.459000 0.118000 0.005000
DOCKED: USER    NEWDPF tran0 27.903630 -15.465473 -1.948884
DOCKED: USER    NEWDPF quaternion0 0.146745 -0.626042 0.765177 -0.032259
DOCKED: USER    NEWDPF axisangle0 0.146821 -0.626368 0.765576 -176.302801
DOCKED: USER    NEWDPF quat0 0.146821 -0.626368 0.765576 -176.302801
DOCKED: USER    NEWDPF dihe0 6.42 74.19 -93.88 46.92 -160.22 -80.18 3.05 121.17 174.94 -165.60 -9.12 
DOCKED: USER  keepresnum = 1 
DOCKED: USER  
DOCKED: REMARK  Name = 
DOCKED: REMARK  11 active torsions:
DOCKED: REMARK  status: ('A' for Active; 'I' for Inactive)
DOCKED: REMARK    1  A    between atoms: C_2  and  C_5
DOCKED: REMARK    2  A    between atoms: N_3  and  O_4
DOCKED: REMARK    3  A    between atoms: C_6  and  C_7
DOCKED: REMARK    4  A    between atoms: C_10  and  C_11
DOCKED: REMARK    5  A    between atoms: C_11  and  N_12
DOCKED: REMARK    6  A    between atoms: N_12  and  C_13
DOCKED: REMARK    7  A    between atoms: N_12  and  C_16
DOCKED: REMARK    8  A    between atoms: C_13  and  C_14
DOCKED: REMARK    9  A    between atoms: C_14  and  O_15
DOCKED: REMARK   10  A    between atoms: C_16  and  C_17
DOCKED: REMARK   11  A    between atoms: C_17  and  C_18
DOCKED: REMARK                            x       y       z     vdW  Elec       q    Type
DOCKED: REMARK                         _______ _______ _______ _____ _____    ______ ____
DOCKED: USER                              x       y       z     vdW  Elec       q    Type
DOCKED: USER                           _______ _______ _______ _____ _____    ______ ____
DOCKED: ROOT
DOCKED: ATOM      1  N   UNL     1      29.073 -15.092  -1.034 -0.13 -0.00    +0.000 N 
DOCKED: ATOM      2  H   UNL     1      28.333 -14.395  -1.127 +0.01 -0.00    +0.000 HD
DOCKED: ENDROOT
DOCKED: BRANCH   1   3
DOCKED: ATOM      3  C   UNL     1      28.660 -16.304  -1.775 -0.28 -0.00    +0.000 C 
DOCKED: BRANCH   3   7
DOCKED: ATOM      4  C   UNL     1      24.495 -17.195  -1.011 -0.62 -0.00    +0.000 A 
DOCKED: ATOM      5  C   UNL     1      24.854 -16.254  -1.991 -0.47 -0.00    +0.000 A 
DOCKED: ATOM      6  C   UNL     1      26.198 -15.957  -2.235 -0.43 -0.00    +0.000 A 
DOCKED: ATOM      7  C   UNL     1      27.208 -16.604  -1.507 -0.37 -0.00    +0.000 A 
DOCKED: ATOM      8  C   UNL     1      26.857 -17.558  -0.543 -0.49 -0.00    +0.000 A 
DOCKED: ATOM      9  C   UNL     1      25.514 -17.855  -0.297 -0.61 -0.00    +0.000 A 
DOCKED: BRANCH   4  11
DOCKED: ATOM     10  C   UNL     1      22.525 -18.712  -0.913 -0.83 -0.00    +0.000 C 
DOCKED: ATOM     11  C   UNL     1      23.056 -17.486  -0.797 -0.76 -0.00    +0.000 C 
DOCKED: BRANCH  10  13
DOCKED: ATOM     12  O   UNL     1      20.242 -18.159  -1.070 -2.10 -0.00    +0.000 OA
DOCKED: ATOM     13  C   UNL     1      21.096 -19.000  -0.682 -0.88 -0.00    +0.000 C 
DOCKED: ATOM     14  N   UNL     1      20.655 -20.184  -0.004 -0.68 -0.00    +0.000 N 
DOCKED: ATOM     15  H   UNL     1      21.316 -20.793   0.399 -0.57 -0.00    +0.000 HD
DOCKED: BRANCH  14  16
DOCKED: ATOM     16  O   UNL     1      19.334 -20.468   0.085 -0.83 -0.00    +0.000 OA
DOCKED: ATOM     17  H   UNL     1      18.829 -19.831  -0.445 -0.13 -0.00    +0.000 HD
DOCKED: ENDBRANCH  14  16
DOCKED: ENDBRANCH  10  13
DOCKED: ENDBRANCH   4  11
DOCKED: ENDBRANCH   3   7
DOCKED: ENDBRANCH   1   3
DOCKED: BRANCH   1  18
DOCKED: ATOM     18  C   UNL     1      29.184 -15.356   0.420 -0.14 -0.00    +0.000 C 
DOCKED: BRANCH  18  19
DOCKED: ATOM     19  C   UNL     1      28.205 -14.505   1.244 -0.26 -0.00    +0.000 C 
DOCKED: BRANCH  19  20
DOCKED: ATOM     20  O   UNL     1      28.356 -14.745   2.618 -0.29 -0.00    +0.000 OA
DOCKED: ATOM     21  H   UNL     1      29.180 -15.233   2.772 -1.99 -0.00    +0.000 HD
DOCKED: ENDBRANCH  19  20
DOCKED: ENDBRANCH  18  19
DOCKED: ENDBRANCH   1  18
DOCKED: BRANCH   1  22
DOCKED: ATOM     22  C   UNL     1      30.269 -14.454  -1.636 -0.05 -0.00    +0.000 C 
DOCKED: BRANCH  22  23
DOCKED: ATOM     23  C   UNL     1      29.978 -13.128  -2.366 -0.03 -0.00    +0.000 C 
DOCKED: BRANCH  23  24
DOCKED: ATOM     24  C   UNL     1      29.146 -13.380  -3.587 -0.07 -0.00    +0.000 A 
DOCKED: ATOM     25  C   UNL     1      27.762 -13.280  -3.685 -0.16 -0.00    +0.000 A 
DOCKED: ATOM     26  N   UNL     1      27.347 -13.656  -4.915 -0.28 -0.00    +0.000 N 
DOCKED: ATOM     27  C   UNL     1      28.456 -14.006  -5.590 -0.27 -0.00    +0.000 A 
DOCKED: ATOM     28  C   UNL     1      29.574 -13.857  -4.810 -0.11 -0.00    +0.000 A 
DOCKED: ATOM     29  C   UNL     1      30.847 -14.183  -5.278 -0.07 -0.00    +0.000 A 
DOCKED: ATOM     30  C   UNL     1      30.957 -14.667  -6.594 -0.16 -0.00    +0.000 A 
DOCKED: ATOM     31  C   UNL     1      29.806 -14.816  -7.401 -0.19 -0.00    +0.000 A 
DOCKED: ATOM     32  C   UNL     1      28.535 -14.485  -6.898 -0.22 -0.00    +0.000 A 
DOCKED: ATOM     33  H   UNL     1      26.421 -13.671  -5.250 -0.02 -0.00    +0.000 HD
DOCKED: ENDBRANCH  23  24
DOCKED: ENDBRANCH  22  23
DOCKED: ENDBRANCH   1  22
DOCKED: TORSDOF 11
DOCKED: TER
DOCKED: ENDMDL
________________________________________________________________________________


	BEGINNING GENETIC ALGORITHM DOCKING 83 of 100
Run: 83 Seed: 708976857 197298959 [ Run 83 of 100 GA/GALS ]
Beginning LAMARCKIAN GENETIC ALGORITHM (LGA), with a maximum of 2500000 energy evaluations.

Final-Value: -16.230


	FINAL GENETIC ALGORITHM DOCKED STATE
	_______________________________________________


Detailed state:  trans 27.991 -15.727 -1.470 quatxyzw -0.210216 -0.113835 -0.933081 0.268719 center 0.459 0.118 0.005 ntor 11 58.6375 62.8025 -179.9836 -59.5714 12.9488 -49.5914 8.2255 -98.1853 176.1600 -129.1851 56.6443
State:	 27.991 -15.727  -1.470  -0.218 -0.118 -0.969 148.824     58.64   62.80 -179.98  -59.57   12.95  -49.59    8.23  -98.19  176.16 -129.19   56.64

DOCKED: MODEL       83
DOCKED: USER    Run = 83
DOCKED: USER    DPF = ligand_dock.biased.dpf
DOCKED: USER  
DOCKED: USER    Estimated Free Energy of Binding    =  -10.26 kcal/mol  [=(1)+(2)+(3)-(4)]
DOCKED: USER    Estimated Inhibition Constant, Ki   =   30.38 nM (nanomolar)  [Temperature = 298.15 K]
DOCKED: USER    
DOCKED: USER    (1) Final Intermolecular Energy     =  -13.54 kcal/mol
DOCKED: USER        vdW + Hbond + desolv Energy     =  -13.54 kcal/mol
DOCKED: USER        Electrostatic Energy            =   +0.00 kcal/mol
DOCKED: USER    (2) Final Total Internal Energy     =   -2.69 kcal/mol
DOCKED: USER    (3) Torsional Free Energy           =   +3.28 kcal/mol
DOCKED: USER    (4) Unbound System's Energy  [=(2)] =   -2.69 kcal/mol
DOCKED: USER    
DOCKED: USER    
DOCKED: USER    NEWDPF move ligand.pdbqt
DOCKED: USER    NEWDPF about 0.459000 0.118000 0.005000
DOCKED: USER    NEWDPF tran0 27.990566 -15.726954 -1.469686
DOCKED: USER    NEWDPF quaternion0 -0.210216 -0.113835 -0.933081 0.268719
DOCKED: USER    NEWDPF axisangle0 -0.218243 -0.118182 -0.968712 148.823877
DOCKED: USER    NEWDPF quat0 -0.218243 -0.118182 -0.968712 148.823877
DOCKED: USER    NEWDPF dihe0 58.64 62.80 -179.98 -59.57 12.95 -49.59 8.23 -98.19 176.16 -129.19 56.64 
DOCKED: USER  keepresnum = 1 
DOCKED: USER  
DOCKED: REMARK  Name = 
DOCKED: REMARK  11 active torsions:
DOCKED: REMARK  status: ('A' for Active; 'I' for Inactive)
DOCKED: REMARK    1  A    between atoms: C_2  and  C_5
DOCKED: REMARK    2  A    between atoms: N_3  and  O_4
DOCKED: REMARK    3  A    between atoms: C_6  and  C_7
DOCKED: REMARK    4  A    between atoms: C_10  and  C_11
DOCKED: REMARK    5  A    between atoms: C_11  and  N_12
DOCKED: REMARK    6  A    between atoms: N_12  and  C_13
DOCKED: REMARK    7  A    between atoms: N_12  and  C_16
DOCKED: REMARK    8  A    between atoms: C_13  and  C_14
DOCKED: REMARK    9  A    between atoms: C_14  and  O_15
DOCKED: REMARK   10  A    between atoms: C_16  and  C_17
DOCKED: REMARK   11  A    between atoms: C_17  and  C_18
DOCKED: REMARK                            x       y       z     vdW  Elec       q    Type
DOCKED: REMARK                         _______ _______ _______ _____ _____    ______ ____
DOCKED: USER                              x       y       z     vdW  Elec       q    Type
DOCKED: USER                           _______ _______ _______ _____ _____    ______ ____
DOCKED: ROOT
DOCKED: ATOM      1  N   UNL     1      29.258 -15.221  -2.162 -0.12 -0.00    +0.000 N 
DOCKED: ATOM      2  H   UNL     1      28.382 -15.072  -2.663 +0.01 -0.00    +0.000 HD
DOCKED: ENDROOT
DOCKED: BRANCH   1   3
DOCKED: ATOM      3  C   UNL     1      28.941 -15.804  -0.840 -0.22 -0.00    +0.000 C 
DOCKED: BRANCH   3   7
DOCKED: ATOM      4  C   UNL     1      25.068 -17.730  -0.944 -0.62 -0.00    +0.000 A 
DOCKED: ATOM      5  C   UNL     1      26.222 -18.469  -0.637 -0.46 -0.00    +0.000 A 
DOCKED: ATOM      6  C   UNL     1      27.476 -17.852  -0.611 -0.33 -0.00    +0.000 A 
DOCKED: ATOM      7  C   UNL     1      27.597 -16.482  -0.884 -0.35 -0.00    +0.000 A 
DOCKED: ATOM      8  C   UNL     1      26.446 -15.734  -1.171 -0.37 -0.00    +0.000 A 
DOCKED: ATOM      9  C   UNL     1      25.191 -16.349  -1.198 -0.51 -0.00    +0.000 A 
DOCKED: BRANCH   4  11
DOCKED: ATOM     10  C   UNL     1      22.593 -17.808  -0.697 -0.81 -0.00    +0.000 C 
DOCKED: ATOM     11  C   UNL     1      23.757 -18.425  -0.947 -0.81 -0.00    +0.000 C 
DOCKED: BRANCH  10  13
DOCKED: ATOM     12  O   UNL     1      20.268 -17.851  -1.070 -2.17 -0.00    +0.000 OA
DOCKED: ATOM     13  C   UNL     1      21.289 -18.501  -0.719 -0.84 -0.00    +0.000 C 
DOCKED: ATOM     14  N   UNL     1      21.146 -19.872  -0.325 -0.67 -0.00    +0.000 N 
DOCKED: ATOM     15  H   UNL     1      21.915 -20.356   0.053 -0.56 -0.00    +0.000 HD
DOCKED: BRANCH  14  16
DOCKED: ATOM     16  O   UNL     1      19.957 -20.503  -0.471 -0.89 -0.00    +0.000 OA
DOCKED: ATOM     17  H   UNL     1      19.693 -20.486  -1.405 -0.59 -0.00    +0.000 HD
DOCKED: ENDBRANCH  14  16
DOCKED: ENDBRANCH  10  13
DOCKED: ENDBRANCH   4  11
DOCKED: ENDBRANCH   3   7
DOCKED: ENDBRANCH   1   3
DOCKED: BRANCH   1  18
DOCKED: ATOM     18  C   UNL     1      29.869 -13.877  -2.029 -0.05 -0.00    +0.000 C 
DOCKED: BRANCH  18  19
DOCKED: ATOM     19  C   UNL     1      31.085 -13.696  -2.951 -0.02 -0.00    +0.000 C 
DOCKED: BRANCH  19  20
DOCKED: ATOM     20  O   UNL     1      30.723 -13.071  -4.153 -0.04 -0.00    +0.000 OA
DOCKED: ATOM     21  H   UNL     1      29.777 -12.856  -4.133 +0.00 -0.00    +0.000 HD
DOCKED: ENDBRANCH  19  20
DOCKED: ENDBRANCH  18  19
DOCKED: ENDBRANCH   1  18
DOCKED: BRANCH   1  22
DOCKED: ATOM     22  C   UNL     1      30.026 -16.162  -3.015 -0.17 -0.00    +0.000 C 
DOCKED: BRANCH  22  23
DOCKED: ATOM     23  C   UNL     1      29.227 -16.731  -4.204 -0.21 -0.00    +0.000 C 
DOCKED: BRANCH  23  24
DOCKED: ATOM     24  C   UNL     1      29.046 -15.681  -5.258 -0.31 -0.00    +0.000 A 
DOCKED: ATOM     25  C   UNL     1      29.772 -15.554  -6.438 -0.31 -0.00    +0.000 A 
DOCKED: ATOM     26  N   UNL     1      29.390 -14.445  -7.110 -0.34 -0.00    +0.000 N 
DOCKED: ATOM     27  C   UNL     1      28.440 -13.863  -6.358 -0.29 -0.00    +0.000 A 
DOCKED: ATOM     28  C   UNL     1      28.207 -14.585  -5.216 -0.32 -0.00    +0.000 A 
DOCKED: ATOM     29  C   UNL     1      27.283 -14.169  -4.258 -0.30 -0.00    +0.000 A 
DOCKED: ATOM     30  C   UNL     1      26.577 -12.977  -4.503 -0.28 -0.00    +0.000 A 
DOCKED: ATOM     31  C   UNL     1      26.812 -12.235  -5.683 -0.12 -0.00    +0.000 A 
DOCKED: ATOM     32  C   UNL     1      27.757 -12.677  -6.626 -0.11 -0.00    +0.000 A 
DOCKED: ATOM     33  H   UNL     1      29.737 -14.128  -7.976 -0.34 -0.00    +0.000 HD
DOCKED: ENDBRANCH  23  24
DOCKED: ENDBRANCH  22  23
DOCKED: ENDBRANCH   1  22
DOCKED: TORSDOF 11
DOCKED: TER
DOCKED: ENDMDL
________________________________________________________________________________


	BEGINNING GENETIC ALGORITHM DOCKING 84 of 100
Run: 84 Seed: 229925543 990876193 [ Run 84 of 100 GA/GALS ]
Beginning LAMARCKIAN GENETIC ALGORITHM (LGA), with a maximum of 2500000 energy evaluations.

Final-Value: -18.694


	FINAL GENETIC ALGORITHM DOCKED STATE
	_______________________________________________


Detailed state:  trans 26.912 -16.236 -1.031 quatxyzw -0.207307 0.121834 -0.965982 0.095176 center 0.459 0.118 0.005 ntor 11 14.9175 180.0000 -24.7965 -146.7947 157.7867 -117.5254 143.1047 -130.5693 163.7889 -88.9358 38.4977
State:	 26.912 -16.236  -1.031  -0.208  0.122 -0.970 169.077     14.92  180.00  -24.80 -146.79  157.79 -117.53  143.10 -130.57  163.79  -88.94   38.50

DOCKED: MODEL       84
DOCKED: USER    Run = 84
DOCKED: USER    DPF = ligand_dock.biased.dpf
DOCKED: USER  
DOCKED: USER    Estimated Free Energy of Binding    =  -12.78 kcal/mol  [=(1)+(2)+(3)-(4)]
DOCKED: USER    Estimated Inhibition Constant, Ki   =  427.03 pM (picomolar)  [Temperature = 298.15 K]
DOCKED: USER    
DOCKED: USER    (1) Final Intermolecular Energy     =  -16.06 kcal/mol
DOCKED: USER        vdW + Hbond + desolv Energy     =  -16.06 kcal/mol
DOCKED: USER        Electrostatic Energy            =   +0.00 kcal/mol
DOCKED: USER    (2) Final Total Internal Energy     =   -2.63 kcal/mol
DOCKED: USER    (3) Torsional Free Energy           =   +3.28 kcal/mol
DOCKED: USER    (4) Unbound System's Energy  [=(2)] =   -2.63 kcal/mol
DOCKED: USER    
DOCKED: USER    
DOCKED: USER    NEWDPF move ligand.pdbqt
DOCKED: USER    NEWDPF about 0.459000 0.118000 0.005000
DOCKED: USER    NEWDPF tran0 26.912154 -16.236359 -1.031323
DOCKED: USER    NEWDPF quaternion0 -0.207307 0.121834 -0.965982 0.095176
DOCKED: USER    NEWDPF axisangle0 -0.208252 0.122389 -0.970387 169.077141
DOCKED: USER    NEWDPF quat0 -0.208252 0.122389 -0.970387 169.077141
DOCKED: USER    NEWDPF dihe0 14.92 180.00 -24.80 -146.79 157.79 -117.53 143.10 -130.57 163.79 -88.94 38.50 
DOCKED: USER  keepresnum = 1 
DOCKED: USER  
DOCKED: REMARK  Name = 
DOCKED: REMARK  11 active torsions:
DOCKED: REMARK  status: ('A' for Active; 'I' for Inactive)
DOCKED: REMARK    1  A    between atoms: C_2  and  C_5
DOCKED: REMARK    2  A    between atoms: N_3  and  O_4
DOCKED: REMARK    3  A    between atoms: C_6  and  C_7
DOCKED: REMARK    4  A    between atoms: C_10  and  C_11
DOCKED: REMARK    5  A    between atoms: C_11  and  N_12
DOCKED: REMARK    6  A    between atoms: N_12  and  C_13
DOCKED: REMARK    7  A    between atoms: N_12  and  C_16
DOCKED: REMARK    8  A    between atoms: C_13  and  C_14
DOCKED: REMARK    9  A    between atoms: C_14  and  O_15
DOCKED: REMARK   10  A    between atoms: C_16  and  C_17
DOCKED: REMARK   11  A    between atoms: C_17  and  C_18
DOCKED: REMARK                            x       y       z     vdW  Elec       q    Type
DOCKED: REMARK                         _______ _______ _______ _____ _____    ______ ____
DOCKED: USER                              x       y       z     vdW  Elec       q    Type
DOCKED: USER                           _______ _______ _______ _____ _____    ______ ____
DOCKED: ROOT
DOCKED: ATOM      1  N   UNL     1      28.030 -15.201  -1.173 -0.19 -0.00    +0.000 N 
DOCKED: ATOM      2  H   UNL     1      27.166 -15.001  -1.676 +0.00 -0.00    +0.000 HD
DOCKED: ENDROOT
DOCKED: BRANCH   1   3
DOCKED: ATOM      3  C   UNL     1      27.825 -16.427  -0.371 -0.36 -0.00    +0.000 C 
DOCKED: BRANCH   3   7
DOCKED: ATOM      4  C   UNL     1      23.913 -18.087  -1.186 -0.70 -0.00    +0.000 A 
DOCKED: ATOM      5  C   UNL     1      24.922 -18.885  -0.623 -0.31 -0.00    +0.000 A 
DOCKED: ATOM      6  C   UNL     1      26.190 -18.355  -0.366 -0.56 -0.00    +0.000 A 
DOCKED: ATOM      7  C   UNL     1      26.468 -17.012  -0.661 -0.49 -0.00    +0.000 A 
DOCKED: ATOM      8  C   UNL     1      25.459 -16.205  -1.204 -0.48 -0.00    +0.000 A 
DOCKED: ATOM      9  C   UNL     1      24.192 -16.733  -1.462 -0.53 -0.00    +0.000 A 
DOCKED: BRANCH   4  11
DOCKED: ATOM     10  C   UNL     1      21.624 -18.772  -0.492 -0.85 -0.00    +0.000 C 
DOCKED: ATOM     11  C   UNL     1      22.580 -18.690  -1.429 -0.71 -0.00    +0.000 C 
DOCKED: BRANCH  10  13
DOCKED: ATOM     12  O   UNL     1      20.013 -19.737  -1.912 -1.88 -0.00    +0.000 OA
DOCKED: ATOM     13  C   UNL     1      20.292 -19.357  -0.744 -0.90 -0.00    +0.000 C 
DOCKED: ATOM     14  N   UNL     1      19.302 -19.475   0.287 -0.73 -0.00    +0.000 N 
DOCKED: ATOM     15  H   UNL     1      19.469 -19.083   1.174 -0.26 -0.00    +0.000 HD
DOCKED: BRANCH  14  16
DOCKED: ATOM     16  O   UNL     1      18.138 -20.123   0.044 -0.76 -0.00    +0.000 OA
DOCKED: ATOM     17  H   UNL     1      18.221 -20.643  -0.771 -0.29 -0.00    +0.000 HD
DOCKED: ENDBRANCH  14  16
DOCKED: ENDBRANCH  10  13
DOCKED: ENDBRANCH   4  11
DOCKED: ENDBRANCH   3   7
DOCKED: ENDBRANCH   1   3
DOCKED: BRANCH   1  18
DOCKED: ATOM     18  C   UNL     1      28.265 -14.020  -0.309 -0.17 -0.00    +0.000 C 
DOCKED: BRANCH  18  19
DOCKED: ATOM     19  C   UNL     1      29.316 -14.292   0.778 -0.16 -0.00    +0.000 C 
DOCKED: BRANCH  19  20
DOCKED: ATOM     20  O   UNL     1      28.726 -14.363   2.049 -0.28 -0.00    +0.000 OA
DOCKED: ATOM     21  H   UNL     1      28.884 -15.241   2.430 -1.93 -0.00    +0.000 HD
DOCKED: ENDBRANCH  19  20
DOCKED: ENDBRANCH  18  19
DOCKED: ENDBRANCH   1  18
DOCKED: BRANCH   1  22
DOCKED: ATOM     22  C   UNL     1      29.049 -15.396  -2.235 -0.17 -0.00    +0.000 C 
DOCKED: BRANCH  22  23
DOCKED: ATOM     23  C   UNL     1      28.461 -15.730  -3.620 -0.28 -0.00    +0.000 C 
DOCKED: BRANCH  23  24
DOCKED: ATOM     24  C   UNL     1      27.246 -14.892  -3.883 -0.34 -0.00    +0.000 A 
DOCKED: ATOM     25  C   UNL     1      25.973 -15.352  -4.206 -0.54 -0.00    +0.000 A 
DOCKED: ATOM     26  N   UNL     1      25.144 -14.312  -4.453 -0.47 -0.00    +0.000 N 
DOCKED: ATOM     27  C   UNL     1      25.887 -13.202  -4.303 -0.35 -0.00    +0.000 A 
DOCKED: ATOM     28  C   UNL     1      27.177 -13.515  -3.962 -0.25 -0.00    +0.000 A 
DOCKED: ATOM     29  C   UNL     1      28.150 -12.532  -3.778 -0.11 -0.00    +0.000 A 
DOCKED: ATOM     30  C   UNL     1      27.764 -11.190  -3.944 -0.09 -0.00    +0.000 A 
DOCKED: ATOM     31  C   UNL     1      26.432 -10.865  -4.290 -0.19 -0.00    +0.000 A 
DOCKED: ATOM     32  C   UNL     1      25.476 -11.880  -4.477 -0.29 -0.00    +0.000 A 
DOCKED: ATOM     33  H   UNL     1      24.191 -14.359  -4.693 -0.45 -0.00    +0.000 HD
DOCKED: ENDBRANCH  23  24
DOCKED: ENDBRANCH  22  23
DOCKED: ENDBRANCH   1  22
DOCKED: TORSDOF 11
DOCKED: TER
DOCKED: ENDMDL
________________________________________________________________________________


	BEGINNING GENETIC ALGORITHM DOCKING 85 of 100
Run: 85 Seed: 623067434 934838707 [ Run 85 of 100 GA/GALS ]
Beginning LAMARCKIAN GENETIC ALGORITHM (LGA), with a maximum of 2500000 energy evaluations.

Final-Value: -16.248


	FINAL GENETIC ALGORITHM DOCKED STATE
	_______________________________________________


Detailed state:  trans 29.200 -15.681 -1.277 quatxyzw -0.418475 0.671578 -0.611416 -0.005730 center 0.459 0.118 0.005 ntor 11 180.0000 -173.1650 126.6343 24.7200 -39.2926 128.6689 -4.7913 135.0269 -170.8834 36.1340 30.4083
State:	 29.200 -15.681  -1.277  -0.418  0.672 -0.611 -179.343    180.00 -173.16  126.63   24.72  -39.29  128.67   -4.79  135.03 -170.88   36.13   30.41

DOCKED: MODEL       85
DOCKED: USER    Run = 85
DOCKED: USER    DPF = ligand_dock.biased.dpf
DOCKED: USER  
DOCKED: USER    Estimated Free Energy of Binding    =   -9.40 kcal/mol  [=(1)+(2)+(3)-(4)]
DOCKED: USER    Estimated Inhibition Constant, Ki   =  127.83 nM (nanomolar)  [Temperature = 298.15 K]
DOCKED: USER    
DOCKED: USER    (1) Final Intermolecular Energy     =  -12.69 kcal/mol
DOCKED: USER        vdW + Hbond + desolv Energy     =  -12.69 kcal/mol
DOCKED: USER        Electrostatic Energy            =   +0.00 kcal/mol
DOCKED: USER    (2) Final Total Internal Energy     =   -3.56 kcal/mol
DOCKED: USER    (3) Torsional Free Energy           =   +3.28 kcal/mol
DOCKED: USER    (4) Unbound System's Energy  [=(2)] =   -3.56 kcal/mol
DOCKED: USER    
DOCKED: USER    
DOCKED: USER    NEWDPF move ligand.pdbqt
DOCKED: USER    NEWDPF about 0.459000 0.118000 0.005000
DOCKED: USER    NEWDPF tran0 29.200282 -15.680773 -1.276904
DOCKED: USER    NEWDPF quaternion0 -0.418475 0.671578 -0.611416 -0.005730
DOCKED: USER    NEWDPF axisangle0 -0.418482 0.671589 -0.611426 -179.343340
DOCKED: USER    NEWDPF quat0 -0.418482 0.671589 -0.611426 -179.343340
DOCKED: USER    NEWDPF dihe0 180.00 -173.16 126.63 24.72 -39.29 128.67 -4.79 135.03 -170.88 36.13 30.41 
DOCKED: USER  keepresnum = 1 
DOCKED: USER  
DOCKED: REMARK  Name = 
DOCKED: REMARK  11 active torsions:
DOCKED: REMARK  status: ('A' for Active; 'I' for Inactive)
DOCKED: REMARK    1  A    between atoms: C_2  and  C_5
DOCKED: REMARK    2  A    between atoms: N_3  and  O_4
DOCKED: REMARK    3  A    between atoms: C_6  and  C_7
DOCKED: REMARK    4  A    between atoms: C_10  and  C_11
DOCKED: REMARK    5  A    between atoms: C_11  and  N_12
DOCKED: REMARK    6  A    between atoms: N_12  and  C_13
DOCKED: REMARK    7  A    between atoms: N_12  and  C_16
DOCKED: REMARK    8  A    between atoms: C_13  and  C_14
DOCKED: REMARK    9  A    between atoms: C_14  and  O_15
DOCKED: REMARK   10  A    between atoms: C_16  and  C_17
DOCKED: REMARK   11  A    between atoms: C_17  and  C_18
DOCKED: REMARK                            x       y       z     vdW  Elec       q    Type
DOCKED: REMARK                         _______ _______ _______ _____ _____    ______ ____
DOCKED: USER                              x       y       z     vdW  Elec       q    Type
DOCKED: USER                           _______ _______ _______ _____ _____    ______ ____
DOCKED: ROOT
DOCKED: ATOM      1  N   UNL     1      30.484 -15.045  -0.738 -0.08 -0.00    +0.000 N 
DOCKED: ATOM      2  H   UNL     1      29.611 -14.716  -0.325 -0.00 -0.00    +0.000 HD
DOCKED: ENDROOT
DOCKED: BRANCH   1   3
DOCKED: ATOM      3  C   UNL     1      30.166 -16.145  -1.674 -0.15 -0.00    +0.000 C 
DOCKED: BRANCH   3   7
DOCKED: ATOM      4  C   UNL     1      25.924 -16.989  -1.553 -0.50 -0.00    +0.000 A 
DOCKED: ATOM      5  C   UNL     1      26.762 -17.406  -0.506 -0.49 -0.00    +0.000 A 
DOCKED: ATOM      6  C   UNL     1      28.135 -17.143  -0.546 -0.29 -0.00    +0.000 A 
DOCKED: ATOM      7  C   UNL     1      28.691 -16.450  -1.631 -0.25 -0.00    +0.000 A 
DOCKED: ATOM      8  C   UNL     1      27.856 -16.013  -2.668 -0.26 -0.00    +0.000 A 
DOCKED: ATOM      9  C   UNL     1      26.484 -16.276  -2.631 -0.35 -0.00    +0.000 A 
DOCKED: BRANCH   4  11
DOCKED: ATOM     10  C   UNL     1      23.970 -18.336  -0.803 -0.80 -0.00    +0.000 C 
DOCKED: ATOM     11  C   UNL     1      24.472 -17.280  -1.460 -0.70 -0.00    +0.000 C 
DOCKED: BRANCH  10  13
DOCKED: ATOM     12  O   UNL     1      22.150 -19.782  -0.428 -0.72 -0.00    +0.000 OA
DOCKED: ATOM     13  C   UNL     1      22.523 -18.610  -0.699 -0.84 -0.00    +0.000 C 
DOCKED: ATOM     14  N   UNL     1      21.534 -17.596  -0.926 -0.66 -0.00    +0.000 N 
DOCKED: ATOM     15  H   UNL     1      21.810 -16.706  -1.244 -0.04 -0.00    +0.000 HD
DOCKED: BRANCH  14  16
DOCKED: ATOM     16  O   UNL     1      20.224 -17.858  -0.706 -2.17 +0.00    +0.000 OA
DOCKED: ATOM     17  H   UNL     1      19.697 -17.069  -0.909 -0.57 +0.00    +0.000 HD
DOCKED: ENDBRANCH  14  16
DOCKED: ENDBRANCH  10  13
DOCKED: ENDBRANCH   4  11
DOCKED: ENDBRANCH   3   7
DOCKED: ENDBRANCH   1   3
DOCKED: BRANCH   1  18
DOCKED: ATOM     18  C   UNL     1      31.303 -15.523   0.401 -0.11 -0.00    +0.000 C 
DOCKED: BRANCH  18  19
DOCKED: ATOM     19  C   UNL     1      30.884 -14.878   1.732 -0.14 -0.00    +0.000 C 
DOCKED: BRANCH  19  20
DOCKED: ATOM     20  O   UNL     1      29.487 -14.814   1.847 -0.17 -0.00    +0.000 OA
DOCKED: ATOM     21  H   UNL     1      29.212 -15.232   2.677 -2.02 -0.00    +0.000 HD
DOCKED: ENDBRANCH  19  20
DOCKED: ENDBRANCH  18  19
DOCKED: ENDBRANCH   1  18
DOCKED: BRANCH   1  22
DOCKED: ATOM     22  C   UNL     1      31.040 -13.862  -1.439 -0.02 -0.00    +0.000 C 
DOCKED: BRANCH  22  23
DOCKED: ATOM     23  C   UNL     1      30.238 -12.564  -1.219 -0.02 -0.00    +0.000 C 
DOCKED: BRANCH  23  24
DOCKED: ATOM     24  C   UNL     1      28.794 -12.782  -1.560 -0.06 -0.00    +0.000 A 
DOCKED: ATOM     25  C   UNL     1      27.799 -13.244  -0.705 -0.14 -0.00    +0.000 A 
DOCKED: ATOM     26  N   UNL     1      26.633 -13.393  -1.374 -0.20 -0.00    +0.000 N 
DOCKED: ATOM     27  C   UNL     1      26.888 -13.043  -2.647 -0.15 -0.00    +0.000 A 
DOCKED: ATOM     28  C   UNL     1      28.199 -12.670  -2.801 -0.09 -0.00    +0.000 A 
DOCKED: ATOM     29  C   UNL     1      28.715 -12.289  -4.040 -0.08 -0.00    +0.000 A 
DOCKED: ATOM     30  C   UNL     1      27.840 -12.289  -5.141 -0.16 -0.00    +0.000 A 
DOCKED: ATOM     31  C   UNL     1      26.488 -12.667  -4.983 -0.20 -0.00    +0.000 A 
DOCKED: ATOM     32  C   UNL     1      25.999 -13.054  -3.722 -0.25 -0.00    +0.000 A 
DOCKED: ATOM     33  H   UNL     1      25.772 -13.696  -1.005 -0.01 -0.00    +0.000 HD
DOCKED: ENDBRANCH  23  24
DOCKED: ENDBRANCH  22  23
DOCKED: ENDBRANCH   1  22
DOCKED: TORSDOF 11
DOCKED: TER
DOCKED: ENDMDL
________________________________________________________________________________


	BEGINNING GENETIC ALGORITHM DOCKING 86 of 100
Run: 86 Seed: 948964930 1513312079 [ Run 86 of 100 GA/GALS ]
Beginning LAMARCKIAN GENETIC ALGORITHM (LGA), with a maximum of 2500000 energy evaluations.

Final-Value: -19.462


	FINAL GENETIC ALGORITHM DOCKED STATE
	_______________________________________________


Detailed state:  trans 28.483 -15.841 0.238 quatxyzw 0.668525 -0.670001 0.253096 0.200288 center 0.459 0.118 0.005 ntor 11 180.0000 14.4072 165.6908 -20.7771 -41.2372 158.2973 -180.0000 -96.6981 170.3544 -166.7671 51.4311
State:	 28.483 -15.841   0.238   0.682 -0.684  0.258 156.892    180.00   14.41  165.69  -20.78  -41.24  158.30 -180.00  -96.70  170.35 -166.77   51.43

DOCKED: MODEL       86
DOCKED: USER    Run = 86
DOCKED: USER    DPF = ligand_dock.biased.dpf
DOCKED: USER  
DOCKED: USER    Estimated Free Energy of Binding    =  -14.05 kcal/mol  [=(1)+(2)+(3)-(4)]
DOCKED: USER    Estimated Inhibition Constant, Ki   =   50.50 pM (picomolar)  [Temperature = 298.15 K]
DOCKED: USER    
DOCKED: USER    (1) Final Intermolecular Energy     =  -17.33 kcal/mol
DOCKED: USER        vdW + Hbond + desolv Energy     =  -17.33 kcal/mol
DOCKED: USER        Electrostatic Energy            =   +0.00 kcal/mol
DOCKED: USER    (2) Final Total Internal Energy     =   -2.13 kcal/mol
DOCKED: USER    (3) Torsional Free Energy           =   +3.28 kcal/mol
DOCKED: USER    (4) Unbound System's Energy  [=(2)] =   -2.13 kcal/mol
DOCKED: USER    
DOCKED: USER    
DOCKED: USER    NEWDPF move ligand.pdbqt
DOCKED: USER    NEWDPF about 0.459000 0.118000 0.005000
DOCKED: USER    NEWDPF tran0 28.482637 -15.840971 0.238218
DOCKED: USER    NEWDPF quaternion0 0.668525 -0.670001 0.253096 0.200288
DOCKED: USER    NEWDPF axisangle0 0.682352 -0.683858 0.258330 156.892362
DOCKED: USER    NEWDPF quat0 0.682352 -0.683858 0.258330 156.892362
DOCKED: USER    NEWDPF dihe0 180.00 14.41 165.69 -20.78 -41.24 158.30 -180.00 -96.70 170.35 -166.77 51.43 
DOCKED: USER  keepresnum = 1 
DOCKED: USER  
DOCKED: REMARK  Name = 
DOCKED: REMARK  11 active torsions:
DOCKED: REMARK  status: ('A' for Active; 'I' for Inactive)
DOCKED: REMARK    1  A    between atoms: C_2  and  C_5
DOCKED: REMARK    2  A    between atoms: N_3  and  O_4
DOCKED: REMARK    3  A    between atoms: C_6  and  C_7
DOCKED: REMARK    4  A    between atoms: C_10  and  C_11
DOCKED: REMARK    5  A    between atoms: C_11  and  N_12
DOCKED: REMARK    6  A    between atoms: N_12  and  C_13
DOCKED: REMARK    7  A    between atoms: N_12  and  C_16
DOCKED: REMARK    8  A    between atoms: C_13  and  C_14
DOCKED: REMARK    9  A    between atoms: C_14  and  O_15
DOCKED: REMARK   10  A    between atoms: C_16  and  C_17
DOCKED: REMARK   11  A    between atoms: C_17  and  C_18
DOCKED: REMARK                            x       y       z     vdW  Elec       q    Type
DOCKED: REMARK                         _______ _______ _______ _____ _____    ______ ____
DOCKED: USER                              x       y       z     vdW  Elec       q    Type
DOCKED: USER                           _______ _______ _______ _____ _____    ______ ____
DOCKED: ROOT
DOCKED: ATOM      1  N   UNL     1      29.483 -14.894   0.904 -0.16 -0.00    +0.000 N 
DOCKED: ATOM      2  H   UNL     1      28.878 -15.423   1.532 -1.18 -0.00    +0.000 HD
DOCKED: ENDROOT
DOCKED: BRANCH   1   3
DOCKED: ATOM      3  C   UNL     1      29.221 -15.346  -0.479 -0.18 -0.00    +0.000 C 
DOCKED: BRANCH   3   7
DOCKED: ATOM      4  C   UNL     1      25.452 -17.461  -0.689 -0.59 -0.00    +0.000 A 
DOCKED: ATOM      5  C   UNL     1      25.483 -16.057  -0.723 -0.40 -0.00    +0.000 A 
DOCKED: ATOM      6  C   UNL     1      26.699 -15.369  -0.646 -0.32 -0.00    +0.000 A 
DOCKED: ATOM      7  C   UNL     1      27.906 -16.076  -0.544 -0.29 -0.00    +0.000 A 
DOCKED: ATOM      8  C   UNL     1      27.883 -17.478  -0.531 -0.28 -0.00    +0.000 A 
DOCKED: ATOM      9  C   UNL     1      26.669 -18.166  -0.607 -0.47 -0.00    +0.000 A 
DOCKED: BRANCH   4  11
DOCKED: ATOM     10  C   UNL     1      22.974 -17.496  -0.915 -0.74 -0.00    +0.000 C 
DOCKED: ATOM     11  C   UNL     1      24.140 -18.146  -0.787 -0.79 -0.00    +0.000 C 
DOCKED: BRANCH  10  13
DOCKED: ATOM     12  O   UNL     1      20.629 -17.552  -0.717 -2.12 +0.00    +0.000 OA
DOCKED: ATOM     13  C   UNL     1      21.673 -18.183  -1.030 -0.71 -0.00    +0.000 C 
DOCKED: ATOM     14  N   UNL     1      21.565 -19.549  -1.454 -0.63 -0.00    +0.000 N 
DOCKED: ATOM     15  H   UNL     1      22.380 -20.083  -1.596 -0.39 -0.00    +0.000 HD
DOCKED: BRANCH  14  16
DOCKED: ATOM     16  O   UNL     1      20.348 -20.106  -1.659 -1.65 -0.00    +0.000 OA
DOCKED: ATOM     17  H   UNL     1      20.456 -21.029  -1.939 -0.45 -0.00    +0.000 HD
DOCKED: ENDBRANCH  14  16
DOCKED: ENDBRANCH  10  13
DOCKED: ENDBRANCH   4  11
DOCKED: ENDBRANCH   3   7
DOCKED: ENDBRANCH   1   3
DOCKED: BRANCH   1  18
DOCKED: ATOM     18  C   UNL     1      30.867 -15.215   1.327 -0.12 -0.00    +0.000 C 
DOCKED: BRANCH  18  19
DOCKED: ATOM     19  C   UNL     1      31.206 -14.629   2.707 -0.19 -0.00    +0.000 C 
DOCKED: BRANCH  19  20
DOCKED: ATOM     20  O   UNL     1      30.711 -15.440   3.739 -0.38 -0.00    +0.000 OA
DOCKED: ATOM     21  H   UNL     1      29.793 -15.687   3.543 -1.11 -0.00    +0.000 HD
DOCKED: ENDBRANCH  19  20
DOCKED: ENDBRANCH  18  19
DOCKED: ENDBRANCH   1  18
DOCKED: BRANCH   1  22
DOCKED: ATOM     22  C   UNL     1      29.092 -13.477   1.110 -0.14 -0.00    +0.000 C 
DOCKED: BRANCH  22  23
DOCKED: ATOM     23  C   UNL     1      27.768 -13.293   1.877 -0.28 -0.00    +0.000 C 
DOCKED: BRANCH  23  24
DOCKED: ATOM     24  C   UNL     1      27.970 -13.575   3.335 -0.34 -0.00    +0.000 A 
DOCKED: ATOM     25  C   UNL     1      27.884 -14.815   3.962 -0.41 -0.00    +0.000 A 
DOCKED: ATOM     26  N   UNL     1      28.046 -14.681   5.297 -0.52 -0.00    +0.000 N 
DOCKED: ATOM     27  C   UNL     1      28.220 -13.367   5.521 -0.42 -0.00    +0.000 A 
DOCKED: ATOM     28  C   UNL     1      28.173 -12.658   4.348 -0.33 -0.00    +0.000 A 
DOCKED: ATOM     29  C   UNL     1      28.299 -11.269   4.321 -0.25 +0.00    +0.000 A 
DOCKED: ATOM     30  C   UNL     1      28.488 -10.605   5.546 -0.29 +0.00    +0.000 A 
DOCKED: ATOM     31  C   UNL     1      28.543 -11.335   6.755 -0.33 +0.00    +0.000 A 
DOCKED: ATOM     32  C   UNL     1      28.404 -12.734   6.750 -0.32 -0.00    +0.000 A 
DOCKED: ATOM     33  H   UNL     1      28.040 -15.400   5.970 -0.52 -0.00    +0.000 HD
DOCKED: ENDBRANCH  23  24
DOCKED: ENDBRANCH  22  23
DOCKED: ENDBRANCH   1  22
DOCKED: TORSDOF 11
DOCKED: TER
DOCKED: ENDMDL
________________________________________________________________________________


	BEGINNING GENETIC ALGORITHM DOCKING 87 of 100
Run: 87 Seed: 1829572030 99151036 [ Run 87 of 100 GA/GALS ]
Beginning LAMARCKIAN GENETIC ALGORITHM (LGA), with a maximum of 2500000 energy evaluations.

Final-Value: -19.647


	FINAL GENETIC ALGORITHM DOCKED STATE
	_______________________________________________


Detailed state:  trans 28.486 -16.145 0.592 quatxyzw 0.799505 -0.497313 0.292836 0.166487 center 0.459 0.118 0.005 ntor 11 3.1657 21.5429 132.7865 11.2470 78.8480 72.2576 -26.4990 -61.9096 -169.5678 -178.8459 84.1095
State:	 28.486 -16.145   0.592   0.811 -0.504  0.297 160.833      3.17   21.54  132.79   11.25   78.85   72.26  -26.50  -61.91 -169.57 -178.85   84.11

DOCKED: MODEL       87
DOCKED: USER    Run = 87
DOCKED: USER    DPF = ligand_dock.biased.dpf
DOCKED: USER  
DOCKED: USER    Estimated Free Energy of Binding    =  -13.57 kcal/mol  [=(1)+(2)+(3)-(4)]
DOCKED: USER    Estimated Inhibition Constant, Ki   =  113.84 pM (picomolar)  [Temperature = 298.15 K]
DOCKED: USER    
DOCKED: USER    (1) Final Intermolecular Energy     =  -16.85 kcal/mol
DOCKED: USER        vdW + Hbond + desolv Energy     =  -16.85 kcal/mol
DOCKED: USER        Electrostatic Energy            =   +0.00 kcal/mol
DOCKED: USER    (2) Final Total Internal Energy     =   -2.80 kcal/mol
DOCKED: USER    (3) Torsional Free Energy           =   +3.28 kcal/mol
DOCKED: USER    (4) Unbound System's Energy  [=(2)] =   -2.80 kcal/mol
DOCKED: USER    
DOCKED: USER    
DOCKED: USER    NEWDPF move ligand.pdbqt
DOCKED: USER    NEWDPF about 0.459000 0.118000 0.005000
DOCKED: USER    NEWDPF tran0 28.485772 -16.144946 0.592397
DOCKED: USER    NEWDPF quaternion0 0.799505 -0.497313 0.292836 0.166487
DOCKED: USER    NEWDPF axisangle0 0.810822 -0.504352 0.296981 160.832686
DOCKED: USER    NEWDPF quat0 0.810822 -0.504352 0.296981 160.832686
DOCKED: USER    NEWDPF dihe0 3.17 21.54 132.79 11.25 78.85 72.26 -26.50 -61.91 -169.57 -178.85 84.11 
DOCKED: USER  keepresnum = 1 
DOCKED: USER  
DOCKED: REMARK  Name = 
DOCKED: REMARK  11 active torsions:
DOCKED: REMARK  status: ('A' for Active; 'I' for Inactive)
DOCKED: REMARK    1  A    between atoms: C_2  and  C_5
DOCKED: REMARK    2  A    between atoms: N_3  and  O_4
DOCKED: REMARK    3  A    between atoms: C_6  and  C_7
DOCKED: REMARK    4  A    between atoms: C_10  and  C_11
DOCKED: REMARK    5  A    between atoms: C_11  and  N_12
DOCKED: REMARK    6  A    between atoms: N_12  and  C_13
DOCKED: REMARK    7  A    between atoms: N_12  and  C_16
DOCKED: REMARK    8  A    between atoms: C_13  and  C_14
DOCKED: REMARK    9  A    between atoms: C_14  and  O_15
DOCKED: REMARK   10  A    between atoms: C_16  and  C_17
DOCKED: REMARK   11  A    between atoms: C_17  and  C_18
DOCKED: REMARK                            x       y       z     vdW  Elec       q    Type
DOCKED: REMARK                         _______ _______ _______ _____ _____    ______ ____
DOCKED: USER                              x       y       z     vdW  Elec       q    Type
DOCKED: USER                           _______ _______ _______ _____ _____    ______ ____
DOCKED: ROOT
DOCKED: ATOM      1  N   UNL     1      29.036 -14.771   0.984 -0.18 -0.00    +0.000 N 
DOCKED: ATOM      2  H   UNL     1      28.631 -15.326   1.738 -1.26 -0.00    +0.000 HD
DOCKED: ENDROOT
DOCKED: BRANCH   1   3
DOCKED: ATOM      3  C   UNL     1      29.033 -15.594  -0.246 -0.21 -0.00    +0.000 C 
DOCKED: BRANCH   3   7
DOCKED: ATOM      4  C   UNL     1      25.114 -17.304  -0.911 -0.59 -0.00    +0.000 A 
DOCKED: ATOM      5  C   UNL     1      25.325 -15.924  -1.069 -0.42 -0.00    +0.000 A 
DOCKED: ATOM      6  C   UNL     1      26.587 -15.366  -0.847 -0.33 -0.00    +0.000 A 
DOCKED: ATOM      7  C   UNL     1      27.665 -16.182  -0.470 -0.32 -0.00    +0.000 A 
DOCKED: ATOM      8  C   UNL     1      27.466 -17.562  -0.331 -0.34 -0.00    +0.000 A 
DOCKED: ATOM      9  C   UNL     1      26.204 -18.121  -0.552 -0.55 -0.00    +0.000 A 
DOCKED: BRANCH   4  11
DOCKED: ATOM     10  C   UNL     1      22.785 -17.880  -0.250 -0.78 -0.00    +0.000 C 
DOCKED: ATOM     11  C   UNL     1      23.760 -17.851  -1.171 -0.77 -0.00    +0.000 C 
DOCKED: BRANCH  10  13
DOCKED: ATOM     12  O   UNL     1      20.592 -17.656  -1.079 -2.16 -0.00    +0.000 OA
DOCKED: ATOM     13  C   UNL     1      21.434 -18.409  -0.519 -0.80 -0.00    +0.000 C 
DOCKED: ATOM     14  N   UNL     1      21.042 -19.735  -0.137 -0.72 -0.00    +0.000 N 
DOCKED: ATOM     15  H   UNL     1      21.654 -20.292   0.396 -0.57 -0.00    +0.000 HD
DOCKED: BRANCH  14  16
DOCKED: ATOM     16  O   UNL     1      19.834 -20.223  -0.507 -0.99 -0.00    +0.000 OA
DOCKED: ATOM     17  H   UNL     1      19.379 -19.572  -1.066 -0.16 -0.00    +0.000 HD
DOCKED: ENDBRANCH  14  16
DOCKED: ENDBRANCH  10  13
DOCKED: ENDBRANCH   4  11
DOCKED: ENDBRANCH   3   7
DOCKED: ENDBRANCH   1   3
DOCKED: BRANCH   1  18
DOCKED: ATOM     18  C   UNL     1      30.417 -14.458   1.422 -0.14 -0.00    +0.000 C 
DOCKED: BRANCH  18  19
DOCKED: ATOM     19  C   UNL     1      30.503 -14.201   2.935 -0.21 -0.00    +0.000 C 
DOCKED: BRANCH  19  20
DOCKED: ATOM     20  O   UNL     1      29.844 -15.206   3.659 -0.24 -0.00    +0.000 OA
DOCKED: ATOM     21  H   UNL     1      29.029 -15.455   3.196 -1.69 -0.00    +0.000 HD
DOCKED: ENDBRANCH  19  20
DOCKED: ENDBRANCH  18  19
DOCKED: ENDBRANCH   1  18
DOCKED: BRANCH   1  22
DOCKED: ATOM     22  C   UNL     1      28.147 -13.590   0.864 -0.21 -0.00    +0.000 C 
DOCKED: BRANCH  22  23
DOCKED: ATOM     23  C   UNL     1      27.066 -13.500   1.959 -0.32 -0.00    +0.000 C 
DOCKED: BRANCH  23  24
DOCKED: ATOM     24  C   UNL     1      27.367 -12.369   2.895 -0.28 +0.00    +0.000 A 
DOCKED: ATOM     25  C   UNL     1      27.359 -11.012   2.589 -0.25 +0.00    +0.000 A 
DOCKED: ATOM     26  N   UNL     1      27.757 -10.285   3.658 -0.25 +0.00    +0.000 N 
DOCKED: ATOM     27  C   UNL     1      28.029 -11.172   4.630 -0.31 +0.00    +0.000 A 
DOCKED: ATOM     28  C   UNL     1      27.809 -12.456   4.201 -0.32 -0.00    +0.000 A 
DOCKED: ATOM     29  C   UNL     1      28.047 -13.558   5.021 -0.47 -0.00    +0.000 A 
DOCKED: ATOM     30  C   UNL     1      28.517 -13.314   6.325 -0.34 -0.00    +0.000 A 
DOCKED: ATOM     31  C   UNL     1      28.738 -11.992   6.771 -0.34 +0.00    +0.000 A 
DOCKED: ATOM     32  C   UNL     1      28.496 -10.901   5.916 -0.31 +0.00    +0.000 A 
DOCKED: ATOM     33  H   UNL     1      27.831  -9.305   3.713 -0.02 +0.00    +0.000 HD
DOCKED: ENDBRANCH  23  24
DOCKED: ENDBRANCH  22  23
DOCKED: ENDBRANCH   1  22
DOCKED: TORSDOF 11
DOCKED: TER
DOCKED: ENDMDL
________________________________________________________________________________


	BEGINNING GENETIC ALGORITHM DOCKING 88 of 100
Run: 88 Seed: 1094705977 186679899 [ Run 88 of 100 GA/GALS ]
Beginning LAMARCKIAN GENETIC ALGORITHM (LGA), with a maximum of 2500000 energy evaluations.

Final-Value: -18.169


	FINAL GENETIC ALGORITHM DOCKED STATE
	_______________________________________________


Detailed state:  trans 26.648 -15.420 -1.136 quatxyzw 0.504122 -0.520928 0.678901 0.116570 center 0.459 0.118 0.005 ntor 11 -7.9758 52.8264 -115.7496 51.5952 41.3799 136.5583 45.3598 110.2296 135.9607 -179.5640 21.7955
State:	 26.648 -15.420  -1.136   0.508 -0.525  0.684 166.612     -7.98   52.83 -115.75   51.60   41.38  136.56   45.36  110.23  135.96 -179.56   21.80

DOCKED: MODEL       88
DOCKED: USER    Run = 88
DOCKED: USER    DPF = ligand_dock.biased.dpf
DOCKED: USER  
DOCKED: USER    Estimated Free Energy of Binding    =  -12.45 kcal/mol  [=(1)+(2)+(3)-(4)]
DOCKED: USER    Estimated Inhibition Constant, Ki   =  753.45 pM (picomolar)  [Temperature = 298.15 K]
DOCKED: USER    
DOCKED: USER    (1) Final Intermolecular Energy     =  -15.73 kcal/mol
DOCKED: USER        vdW + Hbond + desolv Energy     =  -15.73 kcal/mol
DOCKED: USER        Electrostatic Energy            =   +0.00 kcal/mol
DOCKED: USER    (2) Final Total Internal Energy     =   -2.44 kcal/mol
DOCKED: USER    (3) Torsional Free Energy           =   +3.28 kcal/mol
DOCKED: USER    (4) Unbound System's Energy  [=(2)] =   -2.44 kcal/mol
DOCKED: USER    
DOCKED: USER    
DOCKED: USER    NEWDPF move ligand.pdbqt
DOCKED: USER    NEWDPF about 0.459000 0.118000 0.005000
DOCKED: USER    NEWDPF tran0 26.648348 -15.420241 -1.136496
DOCKED: USER    NEWDPF quaternion0 0.504122 -0.520928 0.678901 0.116570
DOCKED: USER    NEWDPF axisangle0 0.507582 -0.524504 0.683561 166.611641
DOCKED: USER    NEWDPF quat0 0.507582 -0.524504 0.683561 166.611641
DOCKED: USER    NEWDPF dihe0 -7.98 52.83 -115.75 51.60 41.38 136.56 45.36 110.23 135.96 -179.56 21.80 
DOCKED: USER  keepresnum = 1 
DOCKED: USER  
DOCKED: REMARK  Name = 
DOCKED: REMARK  11 active torsions:
DOCKED: REMARK  status: ('A' for Active; 'I' for Inactive)
DOCKED: REMARK    1  A    between atoms: C_2  and  C_5
DOCKED: REMARK    2  A    between atoms: N_3  and  O_4
DOCKED: REMARK    3  A    between atoms: C_6  and  C_7
DOCKED: REMARK    4  A    between atoms: C_10  and  C_11
DOCKED: REMARK    5  A    between atoms: C_11  and  N_12
DOCKED: REMARK    6  A    between atoms: N_12  and  C_13
DOCKED: REMARK    7  A    between atoms: N_12  and  C_16
DOCKED: REMARK    8  A    between atoms: C_13  and  C_14
DOCKED: REMARK    9  A    between atoms: C_14  and  O_15
DOCKED: REMARK   10  A    between atoms: C_16  and  C_17
DOCKED: REMARK   11  A    between atoms: C_17  and  C_18
DOCKED: REMARK                            x       y       z     vdW  Elec       q    Type
DOCKED: REMARK                         _______ _______ _______ _____ _____    ______ ____
DOCKED: USER                              x       y       z     vdW  Elec       q    Type
DOCKED: USER                           _______ _______ _______ _____ _____    ______ ____
DOCKED: ROOT
DOCKED: ATOM      1  N   UNL     1      27.535 -14.271  -0.651 -0.20 -0.00    +0.000 N 
DOCKED: ATOM      2  H   UNL     1      26.555 -14.234  -0.369 -0.01 -0.00    +0.000 HD
DOCKED: ENDROOT
DOCKED: BRANCH   1   3
DOCKED: ATOM      3  C   UNL     1      27.760 -15.544  -1.370 -0.28 -0.00    +0.000 C 
DOCKED: BRANCH   3   7
DOCKED: ATOM      4  C   UNL     1      24.377 -18.192  -0.852 -0.69 -0.00    +0.000 A 
DOCKED: ATOM      5  C   UNL     1      24.255 -17.024  -1.623 -0.54 -0.00    +0.000 A 
DOCKED: ATOM      6  C   UNL     1      25.343 -16.161  -1.785 -0.50 -0.00    +0.000 A 
DOCKED: ATOM      7  C   UNL     1      26.577 -16.457  -1.186 -0.42 -0.00    +0.000 A 
DOCKED: ATOM      8  C   UNL     1      26.710 -17.632  -0.433 -0.51 -0.00    +0.000 A 
DOCKED: ATOM      9  C   UNL     1      25.623 -18.495  -0.269 -0.55 -0.00    +0.000 A 
DOCKED: BRANCH   4  11
DOCKED: ATOM     10  C   UNL     1      21.937 -18.676  -0.925 -0.83 -0.00    +0.000 C 
DOCKED: ATOM     11  C   UNL     1      23.198 -19.083  -0.719 -0.79 -0.00    +0.000 C 
DOCKED: BRANCH  10  13
DOCKED: ATOM     12  O   UNL     1      20.035 -19.738  -1.820 -1.86 -0.00    +0.000 OA
DOCKED: ATOM     13  C   UNL     1      20.769 -19.571  -0.809 -0.86 -0.00    +0.000 C 
DOCKED: ATOM     14  N   UNL     1      20.428 -20.228   0.419 -0.68 -0.00    +0.000 N 
DOCKED: ATOM     15  H   UNL     1      20.929 -20.020   1.240 -0.49 -0.00    +0.000 HD
DOCKED: BRANCH  14  16
DOCKED: ATOM     16  O   UNL     1      19.420 -21.131   0.453 -0.74 -0.00    +0.000 OA
DOCKED: ATOM     17  H   UNL     1      18.953 -21.128  -0.398 -0.35 -0.00    +0.000 HD
DOCKED: ENDBRANCH  14  16
DOCKED: ENDBRANCH  10  13
DOCKED: ENDBRANCH   4  11
DOCKED: ENDBRANCH   3   7
DOCKED: ENDBRANCH   1   3
DOCKED: BRANCH   1  18
DOCKED: ATOM     18  C   UNL     1      28.310 -14.217   0.612 -0.22 -0.00    +0.000 C 
DOCKED: BRANCH  18  19
DOCKED: ATOM     19  C   UNL     1      27.403 -14.219   1.852 -0.25 -0.00    +0.000 C 
DOCKED: BRANCH  19  20
DOCKED: ATOM     20  O   UNL     1      28.108 -14.622   2.996 -0.41 -0.00    +0.000 OA
DOCKED: ATOM     21  H   UNL     1      28.989 -14.935   2.738 -1.73 -0.00    +0.000 HD
DOCKED: ENDBRANCH  19  20
DOCKED: ENDBRANCH  18  19
DOCKED: ENDBRANCH   1  18
DOCKED: BRANCH   1  22
DOCKED: ATOM     22  C   UNL     1      27.719 -13.094  -1.535 -0.15 -0.00    +0.000 C 
DOCKED: BRANCH  22  23
DOCKED: ATOM     23  C   UNL     1      26.633 -12.941  -2.617 -0.10 -0.00    +0.000 C 
DOCKED: BRANCH  23  24
DOCKED: ATOM     24  C   UNL     1      26.888 -13.893  -3.747 -0.30 -0.00    +0.000 A 
DOCKED: ATOM     25  C   UNL     1      25.940 -14.655  -4.422 -0.49 -0.00    +0.000 A 
DOCKED: ATOM     26  N   UNL     1      26.540 -15.459  -5.329 -0.46 +0.00    +0.000 N 
DOCKED: ATOM     27  C   UNL     1      27.859 -15.221  -5.222 -0.39 -0.00    +0.000 A 
DOCKED: ATOM     28  C   UNL     1      28.112 -14.275  -4.261 -0.22 -0.00    +0.000 A 
DOCKED: ATOM     29  C   UNL     1      29.410 -13.877  -3.944 -0.08 -0.00    +0.000 A 
DOCKED: ATOM     30  C   UNL     1      30.469 -14.473  -4.652 -0.08 -0.00    +0.000 A 
DOCKED: ATOM     31  C   UNL     1      30.210 -15.443  -5.646 -0.22 -0.00    +0.000 A 
DOCKED: ATOM     32  C   UNL     1      28.889 -15.830  -5.938 -0.25 -0.00    +0.000 A 
DOCKED: ATOM     33  H   UNL     1      26.101 -16.090  -5.944 -0.07 +0.00    +0.000 HD
DOCKED: ENDBRANCH  23  24
DOCKED: ENDBRANCH  22  23
DOCKED: ENDBRANCH   1  22
DOCKED: TORSDOF 11
DOCKED: TER
DOCKED: ENDMDL
________________________________________________________________________________


	BEGINNING GENETIC ALGORITHM DOCKING 89 of 100
Run: 89 Seed: 2048610028 463541259 [ Run 89 of 100 GA/GALS ]
Beginning LAMARCKIAN GENETIC ALGORITHM (LGA), with a maximum of 2500000 energy evaluations.

Final-Value: -15.900


	FINAL GENETIC ALGORITHM DOCKED STATE
	_______________________________________________


Detailed state:  trans 28.330 -17.453 -1.809 quatxyzw 0.032276 -0.475123 -0.873027 -0.105071 center 0.459 0.118 0.005 ntor 11 -9.7530 19.1400 -137.9100 -7.6448 -176.3540 -43.5391 -2.2035 -40.7616 150.4377 32.6247 -11.8388
State:	 28.330 -17.453  -1.809   0.032 -0.478 -0.878 -167.937     -9.75   19.14 -137.91   -7.64 -176.35  -43.54   -2.20  -40.76  150.44   32.62  -11.84

DOCKED: MODEL       89
DOCKED: USER    Run = 89
DOCKED: USER    DPF = ligand_dock.biased.dpf
DOCKED: USER  
DOCKED: USER    Estimated Free Energy of Binding    =  -10.53 kcal/mol  [=(1)+(2)+(3)-(4)]
DOCKED: USER    Estimated Inhibition Constant, Ki   =   19.04 nM (nanomolar)  [Temperature = 298.15 K]
DOCKED: USER    
DOCKED: USER    (1) Final Intermolecular Energy     =  -13.81 kcal/mol
DOCKED: USER        vdW + Hbond + desolv Energy     =  -13.81 kcal/mol
DOCKED: USER        Electrostatic Energy            =   +0.00 kcal/mol
DOCKED: USER    (2) Final Total Internal Energy     =   -2.09 kcal/mol
DOCKED: USER    (3) Torsional Free Energy           =   +3.28 kcal/mol
DOCKED: USER    (4) Unbound System's Energy  [=(2)] =   -2.09 kcal/mol
DOCKED: USER    
DOCKED: USER    
DOCKED: USER    NEWDPF move ligand.pdbqt
DOCKED: USER    NEWDPF about 0.459000 0.118000 0.005000
DOCKED: USER    NEWDPF tran0 28.330055 -17.452543 -1.808857
DOCKED: USER    NEWDPF quaternion0 0.032276 -0.475123 -0.873027 -0.105071
DOCKED: USER    NEWDPF axisangle0 0.032456 -0.477768 -0.877887 -167.937463
DOCKED: USER    NEWDPF quat0 0.032456 -0.477768 -0.877887 -167.937463
DOCKED: USER    NEWDPF dihe0 -9.75 19.14 -137.91 -7.64 -176.35 -43.54 -2.20 -40.76 150.44 32.62 -11.84 
DOCKED: USER  keepresnum = 1 
DOCKED: USER  
DOCKED: REMARK  Name = 
DOCKED: REMARK  11 active torsions:
DOCKED: REMARK  status: ('A' for Active; 'I' for Inactive)
DOCKED: REMARK    1  A    between atoms: C_2  and  C_5
DOCKED: REMARK    2  A    between atoms: N_3  and  O_4
DOCKED: REMARK    3  A    between atoms: C_6  and  C_7
DOCKED: REMARK    4  A    between atoms: C_10  and  C_11
DOCKED: REMARK    5  A    between atoms: C_11  and  N_12
DOCKED: REMARK    6  A    between atoms: N_12  and  C_13
DOCKED: REMARK    7  A    between atoms: N_12  and  C_16
DOCKED: REMARK    8  A    between atoms: C_13  and  C_14
DOCKED: REMARK    9  A    between atoms: C_14  and  O_15
DOCKED: REMARK   10  A    between atoms: C_16  and  C_17
DOCKED: REMARK   11  A    between atoms: C_17  and  C_18
DOCKED: REMARK                            x       y       z     vdW  Elec       q    Type
DOCKED: REMARK                         _______ _______ _______ _____ _____    ______ ____
DOCKED: USER                              x       y       z     vdW  Elec       q    Type
DOCKED: USER                           _______ _______ _______ _____ _____    ______ ____
DOCKED: ROOT
DOCKED: ATOM      1  N   UNL     1      29.043 -16.603  -2.863 -0.25 -0.00    +0.000 N 
DOCKED: ATOM      2  H   UNL     1      28.616 -17.467  -3.196 -0.02 -0.00    +0.000 HD
DOCKED: ENDROOT
DOCKED: BRANCH   1   3
DOCKED: ATOM      3  C   UNL     1      28.701 -16.440  -1.433 -0.29 -0.00    +0.000 C 
DOCKED: BRANCH   3   7
DOCKED: ATOM      4  C   UNL     1      24.497 -17.263  -0.831 -0.62 -0.00    +0.000 A 
DOCKED: ATOM      5  C   UNL     1      24.912 -16.028  -1.354 -0.39 -0.00    +0.000 A 
DOCKED: ATOM      6  C   UNL     1      26.270 -15.754  -1.542 -0.39 -0.00    +0.000 A 
DOCKED: ATOM      7  C   UNL     1      27.237 -16.717  -1.217 -0.39 -0.00    +0.000 A 
DOCKED: ATOM      8  C   UNL     1      26.828 -17.960  -0.715 -0.46 -0.00    +0.000 A 
DOCKED: ATOM      9  C   UNL     1      25.471 -18.235  -0.526 -0.62 -0.00    +0.000 A 
DOCKED: BRANCH   4  11
DOCKED: ATOM     10  C   UNL     1      22.510 -18.740  -0.577 -0.83 -0.00    +0.000 C 
DOCKED: ATOM     11  C   UNL     1      23.044 -17.513  -0.662 -0.77 -0.00    +0.000 C 
DOCKED: BRANCH  10  13
DOCKED: ATOM     12  O   UNL     1      20.255 -18.075  -0.721 -2.18 -0.00    +0.000 OA
DOCKED: ATOM     13  C   UNL     1      21.065 -18.982  -0.391 -0.86 -0.00    +0.000 C 
DOCKED: ATOM     14  N   UNL     1      20.562 -20.197   0.182 -0.69 -0.00    +0.000 N 
DOCKED: ATOM     15  H   UNL     1      21.188 -20.864   0.542 -0.56 -0.00    +0.000 HD
DOCKED: BRANCH  14  16
DOCKED: ATOM     16  O   UNL     1      19.228 -20.428   0.227 -0.82 -0.00    +0.000 OA
DOCKED: ATOM     17  H   UNL     1      18.750 -19.621  -0.023 -0.07 -0.00    +0.000 HD
DOCKED: ENDBRANCH  14  16
DOCKED: ENDBRANCH  10  13
DOCKED: ENDBRANCH   4  11
DOCKED: ENDBRANCH   3   7
DOCKED: ENDBRANCH   1   3
DOCKED: BRANCH   1  18
DOCKED: ATOM     18  C   UNL     1      28.448 -15.525  -3.689 -0.28 -0.00    +0.000 C 
DOCKED: BRANCH  18  19
DOCKED: ATOM     19  C   UNL     1      28.638 -15.772  -5.194 -0.35 -0.00    +0.000 C 
DOCKED: BRANCH  19  20
DOCKED: ATOM     20  O   UNL     1      27.470 -15.471  -5.909 -0.99 +0.00    +0.000 OA
DOCKED: ATOM     21  H   UNL     1      26.698 -15.801  -5.421 -0.07 +0.00    +0.000 HD
DOCKED: ENDBRANCH  19  20
DOCKED: ENDBRANCH  18  19
DOCKED: ENDBRANCH   1  18
DOCKED: BRANCH   1  22
DOCKED: ATOM     22  C   UNL     1      30.500 -16.799  -3.067 -0.17 -0.00    +0.000 C 
DOCKED: BRANCH  22  23
DOCKED: ATOM     23  C   UNL     1      30.973 -18.254  -2.881 -0.16 -0.00    +0.000 C 
DOCKED: BRANCH  23  24
DOCKED: ATOM     24  C   UNL     1      31.825 -18.675  -4.040 -0.13 -0.00    +0.000 A 
DOCKED: ATOM     25  C   UNL     1      33.207 -18.555  -4.143 -0.04 -0.00    +0.000 A 
DOCKED: ATOM     26  N   UNL     1      33.627 -18.965  -5.361 -0.03 -0.00    +0.000 N 
DOCKED: ATOM     27  C   UNL     1      32.521 -19.330  -6.033 -0.09 -0.00    +0.000 A 
DOCKED: ATOM     28  C   UNL     1      31.399 -19.161  -5.262 -0.21 -0.00    +0.000 A 
DOCKED: ATOM     29  C   UNL     1      30.123 -19.444  -5.747 -0.30 -0.00    +0.000 A 
DOCKED: ATOM     30  C   UNL     1      30.015 -19.924  -7.064 -0.36 -0.00    +0.000 A 
DOCKED: ATOM     31  C   UNL     1      31.170 -20.105  -7.858 -0.31 -0.00    +0.000 A 
DOCKED: ATOM     32  C   UNL     1      32.443 -19.802  -7.343 -0.12 -0.00    +0.000 A 
DOCKED: ATOM     33  H   UNL     1      34.555 -18.993  -5.690 +0.00 -0.00    +0.000 HD
DOCKED: ENDBRANCH  23  24
DOCKED: ENDBRANCH  22  23
DOCKED: ENDBRANCH   1  22
DOCKED: TORSDOF 11
DOCKED: TER
DOCKED: ENDMDL
________________________________________________________________________________


	BEGINNING GENETIC ALGORITHM DOCKING 90 of 100
Run: 90 Seed: 462395664 850864736 [ Run 90 of 100 GA/GALS ]
Beginning LAMARCKIAN GENETIC ALGORITHM (LGA), with a maximum of 2500000 energy evaluations.

Final-Value: -18.066


	FINAL GENETIC ALGORITHM DOCKED STATE
	_______________________________________________


Detailed state:  trans 28.419 -15.084 -0.592 quatxyzw 0.073803 -0.251554 0.964965 -0.010816 center 0.459 0.118 0.005 ntor 11 -4.3390 -19.0707 171.3072 143.5454 113.6358 -176.5822 -175.8674 141.7885 171.9716 -86.5697 15.8316
State:	 28.419 -15.084  -0.592   0.074 -0.252  0.965 -178.761     -4.34  -19.07  171.31  143.55  113.64 -176.58 -175.87  141.79  171.97  -86.57   15.83

DOCKED: MODEL       90
DOCKED: USER    Run = 90
DOCKED: USER    DPF = ligand_dock.biased.dpf
DOCKED: USER  
DOCKED: USER    Estimated Free Energy of Binding    =  -11.28 kcal/mol  [=(1)+(2)+(3)-(4)]
DOCKED: USER    Estimated Inhibition Constant, Ki   =    5.43 nM (nanomolar)  [Temperature = 298.15 K]
DOCKED: USER    
DOCKED: USER    (1) Final Intermolecular Energy     =  -14.56 kcal/mol
DOCKED: USER        vdW + Hbond + desolv Energy     =  -14.56 kcal/mol
DOCKED: USER        Electrostatic Energy            =   +0.00 kcal/mol
DOCKED: USER    (2) Final Total Internal Energy     =   -3.51 kcal/mol
DOCKED: USER    (3) Torsional Free Energy           =   +3.28 kcal/mol
DOCKED: USER    (4) Unbound System's Energy  [=(2)] =   -3.51 kcal/mol
DOCKED: USER    
DOCKED: USER    
DOCKED: USER    NEWDPF move ligand.pdbqt
DOCKED: USER    NEWDPF about 0.459000 0.118000 0.005000
DOCKED: USER    NEWDPF tran0 28.419315 -15.084112 -0.591914
DOCKED: USER    NEWDPF quaternion0 0.073803 -0.251554 0.964965 -0.010816
DOCKED: USER    NEWDPF axisangle0 0.073807 -0.251569 0.965021 -178.760556
DOCKED: USER    NEWDPF quat0 0.073807 -0.251569 0.965021 -178.760556
DOCKED: USER    NEWDPF dihe0 -4.34 -19.07 171.31 143.55 113.64 -176.58 -175.87 141.79 171.97 -86.57 15.83 
DOCKED: USER  keepresnum = 1 
DOCKED: USER  
DOCKED: REMARK  Name = 
DOCKED: REMARK  11 active torsions:
DOCKED: REMARK  status: ('A' for Active; 'I' for Inactive)
DOCKED: REMARK    1  A    between atoms: C_2  and  C_5
DOCKED: REMARK    2  A    between atoms: N_3  and  O_4
DOCKED: REMARK    3  A    between atoms: C_6  and  C_7
DOCKED: REMARK    4  A    between atoms: C_10  and  C_11
DOCKED: REMARK    5  A    between atoms: C_11  and  N_12
DOCKED: REMARK    6  A    between atoms: N_12  and  C_13
DOCKED: REMARK    7  A    between atoms: N_12  and  C_16
DOCKED: REMARK    8  A    between atoms: C_13  and  C_14
DOCKED: REMARK    9  A    between atoms: C_14  and  O_15
DOCKED: REMARK   10  A    between atoms: C_16  and  C_17
DOCKED: REMARK   11  A    between atoms: C_17  and  C_18
DOCKED: REMARK                            x       y       z     vdW  Elec       q    Type
DOCKED: REMARK                         _______ _______ _______ _____ _____    ______ ____
DOCKED: USER                              x       y       z     vdW  Elec       q    Type
DOCKED: USER                           _______ _______ _______ _____ _____    ______ ____
DOCKED: ROOT
DOCKED: ATOM      1  N   UNL     1      29.405 -14.010  -0.128 -0.09 -0.00    +0.000 N 
DOCKED: ATOM      2  H   UNL     1      28.704 -13.714  -0.807 +0.00 -0.00    +0.000 HD
DOCKED: ENDROOT
DOCKED: BRANCH   1   3
DOCKED: ATOM      3  C   UNL     1      29.120 -15.411   0.249 -0.16 -0.00    +0.000 C 
DOCKED: BRANCH   3   7
DOCKED: ATOM      4  C   UNL     1      25.047 -16.422  -0.803 -0.46 -0.00    +0.000 A 
DOCKED: ATOM      5  C   UNL     1      25.986 -17.433  -0.544 -0.55 -0.00    +0.000 A 
DOCKED: ATOM      6  C   UNL     1      27.306 -17.111  -0.213 -0.39 -0.00    +0.000 A 
DOCKED: ATOM      7  C   UNL     1      27.706 -15.769  -0.125 -0.29 -0.00    +0.000 A 
DOCKED: ATOM      8  C   UNL     1      26.767 -14.755  -0.362 -0.29 -0.00    +0.000 A 
DOCKED: ATOM      9  C   UNL     1      25.448 -15.076  -0.694 -0.13 -0.00    +0.000 A 
DOCKED: BRANCH   4  11
DOCKED: ATOM     10  C   UNL     1      23.097 -17.968  -0.749 -0.81 -0.00    +0.000 C 
DOCKED: ATOM     11  C   UNL     1      23.655 -16.812  -1.138 -0.56 -0.00    +0.000 C 
DOCKED: BRANCH  10  13
DOCKED: ATOM     12  O   UNL     1      20.793 -17.498  -0.871 -2.07 -0.00    +0.000 OA
DOCKED: ATOM     13  C   UNL     1      21.706 -18.344  -1.070 -0.75 -0.00    +0.000 C 
DOCKED: ATOM     14  N   UNL     1      21.361 -19.644  -1.567 -0.60 -0.00    +0.000 N 
DOCKED: ATOM     15  H   UNL     1      22.049 -20.345  -1.622 -0.35 -0.00    +0.000 HD
DOCKED: BRANCH  14  16
DOCKED: ATOM     16  O   UNL     1      20.092 -19.909  -1.959 -1.83 -0.00    +0.000 OA
DOCKED: ATOM     17  H   UNL     1      19.529 -19.139  -1.778 -0.29 -0.00    +0.000 HD
DOCKED: ENDBRANCH  14  16
DOCKED: ENDBRANCH  10  13
DOCKED: ENDBRANCH   4  11
DOCKED: ENDBRANCH   3   7
DOCKED: ENDBRANCH   1   3
DOCKED: BRANCH   1  18
DOCKED: ATOM     18  C   UNL     1      29.246 -13.094   1.027 -0.11 -0.00    +0.000 C 
DOCKED: BRANCH  18  19
DOCKED: ATOM     19  C   UNL     1      28.351 -13.691   2.125 -0.26 -0.00    +0.000 C 
DOCKED: BRANCH  19  20
DOCKED: ATOM     20  O   UNL     1      29.097 -14.479   3.014 -0.33 -0.00    +0.000 OA
DOCKED: ATOM     21  H   UNL     1      29.252 -15.352   2.620 -1.97 -0.00    +0.000 HD
DOCKED: ENDBRANCH  19  20
DOCKED: ENDBRANCH  18  19
DOCKED: ENDBRANCH   1  18
DOCKED: BRANCH   1  22
DOCKED: ATOM     22  C   UNL     1      30.700 -13.878  -0.840 -0.03 -0.00    +0.000 C 
DOCKED: BRANCH  22  23
DOCKED: ATOM     23  C   UNL     1      30.565 -13.652  -2.359 -0.03 -0.00    +0.000 C 
DOCKED: BRANCH  23  24
DOCKED: ATOM     24  C   UNL     1      29.576 -14.616  -2.941 -0.09 -0.00    +0.000 A 
DOCKED: ATOM     25  C   UNL     1      29.822 -15.931  -3.324 -0.16 -0.00    +0.000 A 
DOCKED: ATOM     26  N   UNL     1      28.717 -16.475  -3.881 -0.21 -0.00    +0.000 N 
DOCKED: ATOM     27  C   UNL     1      27.780 -15.511  -3.867 -0.30 -0.00    +0.000 A 
DOCKED: ATOM     28  C   UNL     1      28.269 -14.359  -3.306 -0.16 -0.00    +0.000 A 
DOCKED: ATOM     29  C   UNL     1      27.494 -13.204  -3.203 -0.17 -0.00    +0.000 A 
DOCKED: ATOM     30  C   UNL     1      26.174 -13.255  -3.688 -0.30 -0.00    +0.000 A 
DOCKED: ATOM     31  C   UNL     1      25.667 -14.444  -4.260 -0.46 -0.00    +0.000 A 
DOCKED: ATOM     32  C   UNL     1      26.477 -15.590  -4.357 -0.43 -0.00    +0.000 A 
DOCKED: ATOM     33  H   UNL     1      28.618 -17.392  -4.227 +0.04 -0.00    +0.000 HD
DOCKED: ENDBRANCH  23  24
DOCKED: ENDBRANCH  22  23
DOCKED: ENDBRANCH   1  22
DOCKED: TORSDOF 11
DOCKED: TER
DOCKED: ENDMDL
________________________________________________________________________________


	BEGINNING GENETIC ALGORITHM DOCKING 91 of 100
Run: 91 Seed: 1016894538 372219979 [ Run 91 of 100 GA/GALS ]
Beginning LAMARCKIAN GENETIC ALGORITHM (LGA), with a maximum of 2500000 energy evaluations.

Final-Value: -15.797


	FINAL GENETIC ALGORITHM DOCKED STATE
	_______________________________________________


Detailed state:  trans 28.226 -16.237 -1.216 quatxyzw 0.496051 -0.574371 0.645228 -0.087813 center 0.459 0.118 0.005 ntor 11 4.0650 114.6794 -9.2410 -167.4613 176.8898 -137.9183 170.2123 176.3370 -163.4463 -167.4439 36.0160
State:	 28.226 -16.237  -1.216   0.498 -0.577  0.648 -169.924      4.06  114.68   -9.24 -167.46  176.89 -137.92  170.21  176.34 -163.45 -167.44   36.02

DOCKED: MODEL       91
DOCKED: USER    Run = 91
DOCKED: USER    DPF = ligand_dock.biased.dpf
DOCKED: USER  
DOCKED: USER    Estimated Free Energy of Binding    =   -9.58 kcal/mol  [=(1)+(2)+(3)-(4)]
DOCKED: USER    Estimated Inhibition Constant, Ki   =   95.01 nM (nanomolar)  [Temperature = 298.15 K]
DOCKED: USER    
DOCKED: USER    (1) Final Intermolecular Energy     =  -12.86 kcal/mol
DOCKED: USER        vdW + Hbond + desolv Energy     =  -12.86 kcal/mol
DOCKED: USER        Electrostatic Energy            =   +0.00 kcal/mol
DOCKED: USER    (2) Final Total Internal Energy     =   -2.94 kcal/mol
DOCKED: USER    (3) Torsional Free Energy           =   +3.28 kcal/mol
DOCKED: USER    (4) Unbound System's Energy  [=(2)] =   -2.94 kcal/mol
DOCKED: USER    
DOCKED: USER    
DOCKED: USER    NEWDPF move ligand.pdbqt
DOCKED: USER    NEWDPF about 0.459000 0.118000 0.005000
DOCKED: USER    NEWDPF tran0 28.226063 -16.236552 -1.216043
DOCKED: USER    NEWDPF quaternion0 0.496051 -0.574371 0.645228 -0.087813
DOCKED: USER    NEWDPF axisangle0 0.497975 -0.576599 0.647731 -169.924344
DOCKED: USER    NEWDPF quat0 0.497975 -0.576599 0.647731 -169.924344
DOCKED: USER    NEWDPF dihe0 4.06 114.68 -9.24 -167.46 176.89 -137.92 170.21 176.34 -163.45 -167.44 36.02 
DOCKED: USER  keepresnum = 1 
DOCKED: USER  
DOCKED: REMARK  Name = 
DOCKED: REMARK  11 active torsions:
DOCKED: REMARK  status: ('A' for Active; 'I' for Inactive)
DOCKED: REMARK    1  A    between atoms: C_2  and  C_5
DOCKED: REMARK    2  A    between atoms: N_3  and  O_4
DOCKED: REMARK    3  A    between atoms: C_6  and  C_7
DOCKED: REMARK    4  A    between atoms: C_10  and  C_11
DOCKED: REMARK    5  A    between atoms: C_11  and  N_12
DOCKED: REMARK    6  A    between atoms: N_12  and  C_13
DOCKED: REMARK    7  A    between atoms: N_12  and  C_16
DOCKED: REMARK    8  A    between atoms: C_13  and  C_14
DOCKED: REMARK    9  A    between atoms: C_14  and  O_15
DOCKED: REMARK   10  A    between atoms: C_16  and  C_17
DOCKED: REMARK   11  A    between atoms: C_17  and  C_18
DOCKED: REMARK                            x       y       z     vdW  Elec       q    Type
DOCKED: REMARK                         _______ _______ _______ _____ _____    ______ ____
DOCKED: USER                              x       y       z     vdW  Elec       q    Type
DOCKED: USER                           _______ _______ _______ _____ _____    ______ ____
DOCKED: ROOT
DOCKED: ATOM      1  N   UNL     1      29.521 -15.428  -1.105 -0.12 -0.00    +0.000 N 
DOCKED: ATOM      2  H   UNL     1      28.710 -15.049  -0.616 +0.00 -0.00    +0.000 HD
DOCKED: ENDROOT
DOCKED: BRANCH   1   3
DOCKED: ATOM      3  C   UNL     1      29.143 -16.740  -1.676 -0.27 -0.00    +0.000 C 
DOCKED: BRANCH   3   7
DOCKED: ATOM      4  C   UNL     1      24.984 -17.603  -0.854 -0.62 -0.00    +0.000 A 
DOCKED: ATOM      5  C   UNL     1      25.339 -16.768  -1.925 -0.53 -0.00    +0.000 A 
DOCKED: ATOM      6  C   UNL     1      26.681 -16.479  -2.190 -0.36 -0.00    +0.000 A 
DOCKED: ATOM      7  C   UNL     1      27.693 -17.029  -1.389 -0.35 -0.00    +0.000 A 
DOCKED: ATOM      8  C   UNL     1      27.347 -17.880  -0.331 -0.32 -0.00    +0.000 A 
DOCKED: ATOM      9  C   UNL     1      26.005 -18.169  -0.066 -0.59 -0.00    +0.000 A 
DOCKED: BRANCH   4  11
DOCKED: ATOM     10  C   UNL     1      22.777 -18.561  -1.491 -0.68 -0.00    +0.000 C 
DOCKED: ATOM     11  C   UNL     1      23.547 -17.891  -0.621 -0.79 -0.00    +0.000 C 
DOCKED: BRANCH  10  13
DOCKED: ATOM     12  O   UNL     1      20.754 -18.235  -0.331 -1.98 -0.00    +0.000 OA
DOCKED: ATOM     13  C   UNL     1      21.353 -18.861  -1.246 -0.69 -0.00    +0.000 C 
DOCKED: ATOM     14  N   UNL     1      20.642 -19.859  -1.992 -0.67 -0.00    +0.000 N 
DOCKED: ATOM     15  H   UNL     1      21.127 -20.428  -2.632 -0.51 -0.00    +0.000 HD
DOCKED: BRANCH  14  16
DOCKED: ATOM     16  O   UNL     1      19.309 -20.021  -1.817 -1.09 -0.00    +0.000 OA
DOCKED: ATOM     17  H   UNL     1      18.978 -19.345  -1.205 -0.45 -0.00    +0.000 HD
DOCKED: ENDBRANCH  14  16
DOCKED: ENDBRANCH  10  13
DOCKED: ENDBRANCH   4  11
DOCKED: ENDBRANCH   3   7
DOCKED: ENDBRANCH   1   3
DOCKED: BRANCH   1  18
DOCKED: ATOM     18  C   UNL     1      30.573 -15.571  -0.070 -0.13 -0.00    +0.000 C 
DOCKED: BRANCH  18  19
DOCKED: ATOM     19  C   UNL     1      31.455 -16.808  -0.302 -0.14 -0.00    +0.000 C 
DOCKED: BRANCH  19  20
DOCKED: ATOM     20  O   UNL     1      30.978 -17.914   0.418 -0.17 -0.00    +0.000 OA
DOCKED: ATOM     21  H   UNL     1      30.043 -18.060   0.203 -0.50 -0.00    +0.000 HD
DOCKED: ENDBRANCH  19  20
DOCKED: ENDBRANCH  18  19
DOCKED: ENDBRANCH   1  18
DOCKED: BRANCH   1  22
DOCKED: ATOM     22  C   UNL     1      29.828 -14.430  -2.158 -0.07 -0.00    +0.000 C 
DOCKED: BRANCH  22  23
DOCKED: ATOM     23  C   UNL     1      29.093 -13.087  -1.989 -0.06 -0.00    +0.000 C 
DOCKED: BRANCH  23  24
DOCKED: ATOM     24  C   UNL     1      28.015 -13.212  -0.954 -0.12 -0.00    +0.000 A 
DOCKED: ATOM     25  C   UNL     1      26.663 -13.445  -1.186 -0.15 -0.00    +0.000 A 
DOCKED: ATOM     26  N   UNL     1      25.974 -13.418  -0.023 -0.28 -0.00    +0.000 N 
DOCKED: ATOM     27  C   UNL     1      26.876 -13.156   0.938 -0.27 -0.00    +0.000 A 
DOCKED: ATOM     28  C   UNL     1      28.133 -13.016   0.408 -0.13 -0.00    +0.000 A 
DOCKED: ATOM     29  C   UNL     1      29.238 -12.712   1.203 -0.07 -0.00    +0.000 A 
DOCKED: ATOM     30  C   UNL     1      29.028 -12.560   2.585 -0.13 -0.00    +0.000 A 
DOCKED: ATOM     31  C   UNL     1      27.734 -12.709   3.134 -0.28 -0.00    +0.000 A 
DOCKED: ATOM     32  C   UNL     1      26.638 -13.008   2.304 -0.28 -0.00    +0.000 A 
DOCKED: ATOM     33  H   UNL     1      25.007 -13.563   0.096 -0.03 -0.00    +0.000 HD
DOCKED: ENDBRANCH  23  24
DOCKED: ENDBRANCH  22  23
DOCKED: ENDBRANCH   1  22
DOCKED: TORSDOF 11
DOCKED: TER
DOCKED: ENDMDL
________________________________________________________________________________


	BEGINNING GENETIC ALGORITHM DOCKING 92 of 100
Run: 92 Seed: 1428664353 1547827294 [ Run 92 of 100 GA/GALS ]
Beginning LAMARCKIAN GENETIC ALGORITHM (LGA), with a maximum of 2500000 energy evaluations.

Final-Value: -16.125


	FINAL GENETIC ALGORITHM DOCKED STATE
	_______________________________________________


Detailed state:  trans 29.046 -15.046 -2.354 quatxyzw 0.369541 0.136103 -0.551073 0.735686 center 0.459 0.118 0.005 ntor 11 17.2507 -43.7929 -121.0569 170.7449 -6.7896 -94.0534 91.4946 94.3507 -115.2666 179.9581 165.5595
State:	 29.046 -15.046  -2.354   0.546  0.201 -0.814 85.270     17.25  -43.79 -121.06  170.74   -6.79  -94.05   91.49   94.35 -115.27  179.96  165.56

DOCKED: MODEL       92
DOCKED: USER    Run = 92
DOCKED: USER    DPF = ligand_dock.biased.dpf
DOCKED: USER  
DOCKED: USER    Estimated Free Energy of Binding    =  -10.93 kcal/mol  [=(1)+(2)+(3)-(4)]
DOCKED: USER    Estimated Inhibition Constant, Ki   =    9.68 nM (nanomolar)  [Temperature = 298.15 K]
DOCKED: USER    
DOCKED: USER    (1) Final Intermolecular Energy     =  -14.21 kcal/mol
DOCKED: USER        vdW + Hbond + desolv Energy     =  -14.21 kcal/mol
DOCKED: USER        Electrostatic Energy            =   +0.00 kcal/mol
DOCKED: USER    (2) Final Total Internal Energy     =   -1.91 kcal/mol
DOCKED: USER    (3) Torsional Free Energy           =   +3.28 kcal/mol
DOCKED: USER    (4) Unbound System's Energy  [=(2)] =   -1.91 kcal/mol
DOCKED: USER    
DOCKED: USER    
DOCKED: USER    NEWDPF move ligand.pdbqt
DOCKED: USER    NEWDPF about 0.459000 0.118000 0.005000
DOCKED: USER    NEWDPF tran0 29.046359 -15.046363 -2.353847
DOCKED: USER    NEWDPF quaternion0 0.369541 0.136103 -0.551073 0.735686
DOCKED: USER    NEWDPF axisangle0 0.545590 0.200943 -0.813605 85.269519
DOCKED: USER    NEWDPF quat0 0.545590 0.200943 -0.813605 85.269519
DOCKED: USER    NEWDPF dihe0 17.25 -43.79 -121.06 170.74 -6.79 -94.05 91.49 94.35 -115.27 179.96 165.56 
DOCKED: USER  keepresnum = 1 
DOCKED: USER  
DOCKED: REMARK  Name = 
DOCKED: REMARK  11 active torsions:
DOCKED: REMARK  status: ('A' for Active; 'I' for Inactive)
DOCKED: REMARK    1  A    between atoms: C_2  and  C_5
DOCKED: REMARK    2  A    between atoms: N_3  and  O_4
DOCKED: REMARK    3  A    between atoms: C_6  and  C_7
DOCKED: REMARK    4  A    between atoms: C_10  and  C_11
DOCKED: REMARK    5  A    between atoms: C_11  and  N_12
DOCKED: REMARK    6  A    between atoms: N_12  and  C_13
DOCKED: REMARK    7  A    between atoms: N_12  and  C_16
DOCKED: REMARK    8  A    between atoms: C_13  and  C_14
DOCKED: REMARK    9  A    between atoms: C_14  and  O_15
DOCKED: REMARK   10  A    between atoms: C_16  and  C_17
DOCKED: REMARK   11  A    between atoms: C_17  and  C_18
DOCKED: REMARK                            x       y       z     vdW  Elec       q    Type
DOCKED: REMARK                         _______ _______ _______ _____ _____    ______ ____
DOCKED: USER                              x       y       z     vdW  Elec       q    Type
DOCKED: USER                           _______ _______ _______ _____ _____    ______ ____
DOCKED: ROOT
DOCKED: ATOM      1  N   UNL     1      29.577 -16.030  -1.308 -0.16 -0.00    +0.000 N 
DOCKED: ATOM      2  H   UNL     1      30.209 -15.806  -2.076 +0.00 -0.00    +0.000 HD
DOCKED: ENDROOT
DOCKED: BRANCH   1   3
DOCKED: ATOM      3  C   UNL     1      28.365 -15.193  -1.448 -0.20 -0.00    +0.000 C 
DOCKED: BRANCH   3   7
DOCKED: ATOM      4  C   UNL     1      24.801 -17.615  -1.059 -0.64 -0.00    +0.000 A 
DOCKED: ATOM      5  C   UNL     1      25.632 -17.389   0.050 -0.29 -0.00    +0.000 A 
DOCKED: ATOM      6  C   UNL     1      26.790 -16.614  -0.073 -0.36 -0.00    +0.000 A 
DOCKED: ATOM      7  C   UNL     1      27.131 -16.044  -1.309 -0.34 -0.00    +0.000 A 
DOCKED: ATOM      8  C   UNL     1      26.294 -16.248  -2.415 -0.41 -0.00    +0.000 A 
DOCKED: ATOM      9  C   UNL     1      25.137 -17.023  -2.293 -0.50 -0.00    +0.000 A 
DOCKED: BRANCH   4  11
DOCKED: ATOM     10  C   UNL     1      22.337 -17.920  -0.888 -0.77 -0.00    +0.000 C 
DOCKED: ATOM     11  C   UNL     1      23.577 -18.432  -0.876 -0.82 -0.00    +0.000 C 
DOCKED: BRANCH  10  13
DOCKED: ATOM     12  O   UNL     1      20.003 -18.217  -0.970 -1.92 -0.00    +0.000 OA
DOCKED: ATOM     13  C   UNL     1      21.121 -18.742  -0.724 -0.87 -0.00    +0.000 C 
DOCKED: ATOM     14  N   UNL     1      21.172 -20.099  -0.266 -0.57 -0.00    +0.000 N 
DOCKED: ATOM     15  H   UNL     1      22.028 -20.484   0.032 -0.57 -0.00    +0.000 HD
DOCKED: BRANCH  14  16
DOCKED: ATOM     16  O   UNL     1      20.048 -20.854  -0.241 -0.73 -0.00    +0.000 OA
DOCKED: ATOM     17  H   UNL     1      19.371 -20.445  -0.803 -0.39 -0.00    +0.000 HD
DOCKED: ENDBRANCH  14  16
DOCKED: ENDBRANCH  10  13
DOCKED: ENDBRANCH   4  11
DOCKED: ENDBRANCH   3   7
DOCKED: ENDBRANCH   1   3
DOCKED: BRANCH   1  18
DOCKED: ATOM     18  C   UNL     1      30.326 -15.697  -0.073 -0.15 -0.00    +0.000 C 
DOCKED: BRANCH  18  19
DOCKED: ATOM     19  C   UNL     1      29.581 -14.678   0.804 -0.16 -0.00    +0.000 C 
DOCKED: BRANCH  19  20
DOCKED: ATOM     20  O   UNL     1      29.956 -14.797   2.150 -0.19 -0.00    +0.000 OA
DOCKED: ATOM     21  H   UNL     1      29.247 -15.239   2.644 -2.03 -0.00    +0.000 HD
DOCKED: ENDBRANCH  19  20
DOCKED: ENDBRANCH  18  19
DOCKED: ENDBRANCH   1  18
DOCKED: BRANCH   1  22
DOCKED: ATOM     22  C   UNL     1      29.278 -17.473  -1.474 -0.25 -0.00    +0.000 C 
DOCKED: BRANCH  22  23
DOCKED: ATOM     23  C   UNL     1      30.515 -18.388  -1.389 -0.20 -0.00    +0.000 C 
DOCKED: BRANCH  23  24
DOCKED: ATOM     24  C   UNL     1      31.058 -18.654  -2.761 -0.11 -0.00    +0.000 A 
DOCKED: ATOM     25  C   UNL     1      32.114 -19.499  -3.088 -0.11 -0.00    +0.000 A 
DOCKED: ATOM     26  N   UNL     1      32.381 -19.432  -4.411 -0.10 -0.00    +0.000 N 
DOCKED: ATOM     27  C   UNL     1      31.512 -18.541  -4.920 -0.17 -0.00    +0.000 A 
DOCKED: ATOM     28  C   UNL     1      30.692 -18.040  -3.942 -0.18 -0.00    +0.000 A 
DOCKED: ATOM     29  C   UNL     1      29.722 -17.076  -4.217 -0.22 -0.00    +0.000 A 
DOCKED: ATOM     30  C   UNL     1      29.598 -16.632  -5.546 -0.29 -0.00    +0.000 A 
DOCKED: ATOM     31  C   UNL     1      30.439 -17.152  -6.557 -0.31 -0.00    +0.000 A 
DOCKED: ATOM     32  C   UNL     1      31.413 -18.118  -6.246 -0.22 -0.00    +0.000 A 
DOCKED: ATOM     33  H   UNL     1      33.070 -19.934  -4.903 +0.00 -0.00    +0.000 HD
DOCKED: ENDBRANCH  23  24
DOCKED: ENDBRANCH  22  23
DOCKED: ENDBRANCH   1  22
DOCKED: TORSDOF 11
DOCKED: TER
DOCKED: ENDMDL
________________________________________________________________________________


	BEGINNING GENETIC ALGORITHM DOCKING 93 of 100
Run: 93 Seed: 631959773 129988515 [ Run 93 of 100 GA/GALS ]
Beginning LAMARCKIAN GENETIC ALGORITHM (LGA), with a maximum of 2500000 energy evaluations.

Final-Value: -16.604


	FINAL GENETIC ALGORITHM DOCKED STATE
	_______________________________________________


Detailed state:  trans 28.753 -16.031 -0.860 quatxyzw 0.852955 -0.146242 -0.047697 -0.498805 center 0.459 0.118 0.005 ntor 11 10.0450 -179.7672 -34.6483 -82.1160 -125.6479 -89.7510 -168.7230 157.0210 179.7733 163.1503 168.5151
State:	 28.753 -16.031  -0.860   0.984 -0.169 -0.055 -120.158     10.04 -179.77  -34.65  -82.12 -125.65  -89.75 -168.72  157.02  179.77  163.15  168.52

DOCKED: MODEL       93
DOCKED: USER    Run = 93
DOCKED: USER    DPF = ligand_dock.biased.dpf
DOCKED: USER  
DOCKED: USER    Estimated Free Energy of Binding    =  -11.21 kcal/mol  [=(1)+(2)+(3)-(4)]
DOCKED: USER    Estimated Inhibition Constant, Ki   =    6.09 nM (nanomolar)  [Temperature = 298.15 K]
DOCKED: USER    
DOCKED: USER    (1) Final Intermolecular Energy     =  -14.49 kcal/mol
DOCKED: USER        vdW + Hbond + desolv Energy     =  -14.49 kcal/mol
DOCKED: USER        Electrostatic Energy            =   +0.00 kcal/mol
DOCKED: USER    (2) Final Total Internal Energy     =   -2.11 kcal/mol
DOCKED: USER    (3) Torsional Free Energy           =   +3.28 kcal/mol
DOCKED: USER    (4) Unbound System's Energy  [=(2)] =   -2.11 kcal/mol
DOCKED: USER    
DOCKED: USER    
DOCKED: USER    NEWDPF move ligand.pdbqt
DOCKED: USER    NEWDPF about 0.459000 0.118000 0.005000
DOCKED: USER    NEWDPF tran0 28.752720 -16.031297 -0.860044
DOCKED: USER    NEWDPF quaternion0 0.852955 -0.146242 -0.047697 -0.498805
DOCKED: USER    NEWDPF axisangle0 0.984125 -0.168731 -0.055032 -120.158098
DOCKED: USER    NEWDPF quat0 0.984125 -0.168731 -0.055032 -120.158098
DOCKED: USER    NEWDPF dihe0 10.04 -179.77 -34.65 -82.12 -125.65 -89.75 -168.72 157.02 179.77 163.15 168.52 
DOCKED: USER  keepresnum = 1 
DOCKED: USER  
DOCKED: REMARK  Name = 
DOCKED: REMARK  11 active torsions:
DOCKED: REMARK  status: ('A' for Active; 'I' for Inactive)
DOCKED: REMARK    1  A    between atoms: C_2  and  C_5
DOCKED: REMARK    2  A    between atoms: N_3  and  O_4
DOCKED: REMARK    3  A    between atoms: C_6  and  C_7
DOCKED: REMARK    4  A    between atoms: C_10  and  C_11
DOCKED: REMARK    5  A    between atoms: C_11  and  N_12
DOCKED: REMARK    6  A    between atoms: N_12  and  C_13
DOCKED: REMARK    7  A    between atoms: N_12  and  C_16
DOCKED: REMARK    8  A    between atoms: C_13  and  C_14
DOCKED: REMARK    9  A    between atoms: C_14  and  O_15
DOCKED: REMARK   10  A    between atoms: C_16  and  C_17
DOCKED: REMARK   11  A    between atoms: C_17  and  C_18
DOCKED: REMARK                            x       y       z     vdW  Elec       q    Type
DOCKED: REMARK                         _______ _______ _______ _____ _____    ______ ____
DOCKED: USER                              x       y       z     vdW  Elec       q    Type
DOCKED: USER                           _______ _______ _______ _____ _____    ______ ____
DOCKED: ROOT
DOCKED: ATOM      1  N   UNL     1      28.116 -15.206  -1.981 -0.19 -0.00    +0.000 N 
DOCKED: ATOM      2  H   UNL     1      28.842 -14.740  -1.436 +0.01 -0.00    +0.000 HD
DOCKED: ENDROOT
DOCKED: BRANCH   1   3
DOCKED: ATOM      3  C   UNL     1      28.026 -16.611  -1.525 -0.36 -0.00    +0.000 C 
DOCKED: BRANCH   3   7
DOCKED: ATOM      4  C   UNL     1      23.891 -17.767  -0.993 -0.69 -0.00    +0.000 A 
DOCKED: ATOM      5  C   UNL     1      24.318 -17.188  -2.199 -0.19 -0.00    +0.000 A 
DOCKED: ATOM      6  C   UNL     1      25.652 -16.805  -2.372 -0.42 -0.00    +0.000 A 
DOCKED: ATOM      7  C   UNL     1      26.584 -17.003  -1.342 -0.45 -0.00    +0.000 A 
DOCKED: ATOM      8  C   UNL     1      26.168 -17.599  -0.144 -0.52 -0.00    +0.000 A 
DOCKED: ATOM      9  C   UNL     1      24.835 -17.982   0.031 -0.55 -0.00    +0.000 A 
DOCKED: BRANCH   4  11
DOCKED: ATOM     10  C   UNL     1      22.068 -19.445  -0.766 -0.68 -0.00    +0.000 C 
DOCKED: ATOM     11  C   UNL     1      22.469 -18.169  -0.861 -0.82 -0.00    +0.000 C 
DOCKED: BRANCH  10  13
DOCKED: ATOM     12  O   UNL     1      19.889 -19.733  -1.613 -1.77 -0.00    +0.000 OA
DOCKED: ATOM     13  C   UNL     1      20.653 -19.839  -0.616 -0.80 -0.00    +0.000 C 
DOCKED: ATOM     14  N   UNL     1      20.117 -20.305   0.629 -0.69 -0.00    +0.000 N 
DOCKED: ATOM     15  H   UNL     1      20.675 -20.289   1.439 -0.50 -0.00    +0.000 HD
DOCKED: BRANCH  14  16
DOCKED: ATOM     16  O   UNL     1      18.845 -20.767   0.695 -0.79 -0.00    +0.000 OA
DOCKED: ATOM     17  H   UNL     1      18.489 -20.866  -0.202 -0.21 -0.00    +0.000 HD
DOCKED: ENDBRANCH  14  16
DOCKED: ENDBRANCH  10  13
DOCKED: ENDBRANCH   4  11
DOCKED: ENDBRANCH   3   7
DOCKED: ENDBRANCH   1   3
DOCKED: BRANCH   1  18
DOCKED: ATOM     18  C   UNL     1      28.568 -15.121  -3.390 -0.22 -0.00    +0.000 C 
DOCKED: BRANCH  18  19
DOCKED: ATOM     19  C   UNL     1      27.469 -14.588  -4.323 -0.36 -0.00    +0.000 C 
DOCKED: BRANCH  19  20
DOCKED: ATOM     20  O   UNL     1      27.137 -15.530  -5.307 -1.06 +0.00    +0.000 OA
DOCKED: ATOM     21  H   UNL     1      26.200 -15.768  -5.223 -0.07 +0.00    +0.000 HD
DOCKED: ENDBRANCH  19  20
DOCKED: ENDBRANCH  18  19
DOCKED: ENDBRANCH   1  18
DOCKED: BRANCH   1  22
DOCKED: ATOM     22  C   UNL     1      26.876 -14.446  -1.687 -0.29 -0.00    +0.000 C 
DOCKED: BRANCH  22  23
DOCKED: ATOM     23  C   UNL     1      27.053 -13.333  -0.635 -0.23 -0.00    +0.000 C 
DOCKED: BRANCH  23  24
DOCKED: ATOM     24  C   UNL     1      28.108 -13.719   0.357 -0.17 -0.00    +0.000 A 
DOCKED: ATOM     25  C   UNL     1      27.977 -14.634   1.397 -0.21 -0.00    +0.000 A 
DOCKED: ATOM     26  N   UNL     1      29.107 -14.671   2.138 -0.07 -0.00    +0.000 N 
DOCKED: ATOM     27  C   UNL     1      29.945 -13.778   1.584 -0.11 -0.00    +0.000 A 
DOCKED: ATOM     28  C   UNL     1      29.368 -13.171   0.497 -0.07 -0.00    +0.000 A 
DOCKED: ATOM     29  C   UNL     1      30.030 -12.184  -0.232 -0.02 -0.00    +0.000 A 
DOCKED: ATOM     30  C   UNL     1      31.328 -11.828   0.176 -0.00 -0.00    +0.000 A 
DOCKED: ATOM     31  C   UNL     1      31.926 -12.456   1.292 -0.01 -0.00    +0.000 A 
DOCKED: ATOM     32  C   UNL     1      31.229 -13.444   2.012 -0.06 -0.00    +0.000 A 
DOCKED: ATOM     33  H   UNL     1      29.282 -15.238   2.924 -1.92 -0.00    +0.000 HD
DOCKED: ENDBRANCH  23  24
DOCKED: ENDBRANCH  22  23
DOCKED: ENDBRANCH   1  22
DOCKED: TORSDOF 11
DOCKED: TER
DOCKED: ENDMDL
________________________________________________________________________________


	BEGINNING GENETIC ALGORITHM DOCKING 94 of 100
Run: 94 Seed: 1716653849 1863828698 [ Run 94 of 100 GA/GALS ]
Beginning LAMARCKIAN GENETIC ALGORITHM (LGA), with a maximum of 2500000 energy evaluations.

Final-Value: -17.179


	FINAL GENETIC ALGORITHM DOCKED STATE
	_______________________________________________


Detailed state:  trans 28.119 -15.009 -0.905 quatxyzw 0.022488 -0.521198 0.834119 0.179143 center 0.459 0.118 0.005 ntor 11 6.5612 129.4143 125.9517 12.2268 28.9456 83.0847 8.3192 168.8507 171.2606 149.0834 -9.9844
State:	 28.119 -15.009  -0.905   0.023 -0.530  0.848 159.360      6.56  129.41  125.95   12.23   28.95   83.08    8.32  168.85  171.26  149.08   -9.98

DOCKED: MODEL       94
DOCKED: USER    Run = 94
DOCKED: USER    DPF = ligand_dock.biased.dpf
DOCKED: USER  
DOCKED: USER    Estimated Free Energy of Binding    =   -9.89 kcal/mol  [=(1)+(2)+(3)-(4)]
DOCKED: USER    Estimated Inhibition Constant, Ki   =   56.19 nM (nanomolar)  [Temperature = 298.15 K]
DOCKED: USER    
DOCKED: USER    (1) Final Intermolecular Energy     =  -13.17 kcal/mol
DOCKED: USER        vdW + Hbond + desolv Energy     =  -13.17 kcal/mol
DOCKED: USER        Electrostatic Energy            =   +0.00 kcal/mol
DOCKED: USER    (2) Final Total Internal Energy     =   -4.01 kcal/mol
DOCKED: USER    (3) Torsional Free Energy           =   +3.28 kcal/mol
DOCKED: USER    (4) Unbound System's Energy  [=(2)] =   -4.01 kcal/mol
DOCKED: USER    
DOCKED: USER    
DOCKED: USER    NEWDPF move ligand.pdbqt
DOCKED: USER    NEWDPF about 0.459000 0.118000 0.005000
DOCKED: USER    NEWDPF tran0 28.118914 -15.008942 -0.905272
DOCKED: USER    NEWDPF quaternion0 0.022488 -0.521198 0.834119 0.179143
DOCKED: USER    NEWDPF axisangle0 0.022857 -0.529768 0.847834 159.360317
DOCKED: USER    NEWDPF quat0 0.022857 -0.529768 0.847834 159.360317
DOCKED: USER    NEWDPF dihe0 6.56 129.41 125.95 12.23 28.95 83.08 8.32 168.85 171.26 149.08 -9.98 
DOCKED: USER  keepresnum = 1 
DOCKED: USER  
DOCKED: REMARK  Name = 
DOCKED: REMARK  11 active torsions:
DOCKED: REMARK  status: ('A' for Active; 'I' for Inactive)
DOCKED: REMARK    1  A    between atoms: C_2  and  C_5
DOCKED: REMARK    2  A    between atoms: N_3  and  O_4
DOCKED: REMARK    3  A    between atoms: C_6  and  C_7
DOCKED: REMARK    4  A    between atoms: C_10  and  C_11
DOCKED: REMARK    5  A    between atoms: C_11  and  N_12
DOCKED: REMARK    6  A    between atoms: N_12  and  C_13
DOCKED: REMARK    7  A    between atoms: N_12  and  C_16
DOCKED: REMARK    8  A    between atoms: C_13  and  C_14
DOCKED: REMARK    9  A    between atoms: C_14  and  O_15
DOCKED: REMARK   10  A    between atoms: C_16  and  C_17
DOCKED: REMARK   11  A    between atoms: C_17  and  C_18
DOCKED: REMARK                            x       y       z     vdW  Elec       q    Type
DOCKED: REMARK                         _______ _______ _______ _____ _____    ______ ____
DOCKED: USER                              x       y       z     vdW  Elec       q    Type
DOCKED: USER                           _______ _______ _______ _____ _____    ______ ____
DOCKED: ROOT
DOCKED: ATOM      1  N   UNL     1      28.649 -14.243   0.309 -0.16 -0.00    +0.000 N 
DOCKED: ATOM      2  H   UNL     1      27.945 -13.764  -0.253 +0.00 -0.00    +0.000 HD
DOCKED: ENDROOT
DOCKED: BRANCH   1   3
DOCKED: ATOM      3  C   UNL     1      28.821 -15.609  -0.232 -0.23 -0.00    +0.000 C 
DOCKED: BRANCH   3   7
DOCKED: ATOM      4  C   UNL     1      24.972 -17.376  -1.120 -0.61 -0.00    +0.000 A 
DOCKED: ATOM      5  C   UNL     1      25.202 -16.012  -1.364 -0.46 -0.00    +0.000 A 
DOCKED: ATOM      6  C   UNL     1      26.442 -15.435  -1.070 -0.35 -0.00    +0.000 A 
DOCKED: ATOM      7  C   UNL     1      27.476 -16.217  -0.535 -0.34 -0.00    +0.000 A 
DOCKED: ATOM      8  C   UNL     1      27.260 -17.583  -0.309 -0.40 -0.00    +0.000 A 
DOCKED: ATOM      9  C   UNL     1      26.021 -18.161  -0.601 -0.56 -0.00    +0.000 A 
DOCKED: BRANCH   4  11
DOCKED: ATOM     10  C   UNL     1      22.539 -17.728  -0.734 -0.79 -0.00    +0.000 C 
DOCKED: ATOM     11  C   UNL     1      23.646 -17.946  -1.460 -0.75 -0.00    +0.000 C 
DOCKED: BRANCH  10  13
DOCKED: ATOM     12  O   UNL     1      20.219 -17.515  -1.073 -1.96 -0.00    +0.000 OA
DOCKED: ATOM     13  C   UNL     1      21.218 -18.283  -1.087 -0.67 -0.00    +0.000 C 
DOCKED: ATOM     14  N   UNL     1      21.032 -19.668  -1.413 -0.75 -0.00    +0.000 N 
DOCKED: ATOM     15  H   UNL     1      21.783 -20.297  -1.321 -0.27 -0.00    +0.000 HD
DOCKED: BRANCH  14  16
DOCKED: ATOM     16  O   UNL     1      19.828 -20.111  -1.845 -1.68 -0.00    +0.000 OA
DOCKED: ATOM     17  H   UNL     1      19.233 -19.356  -1.978 -0.46 -0.00    +0.000 HD
DOCKED: ENDBRANCH  14  16
DOCKED: ENDBRANCH  10  13
DOCKED: ENDBRANCH   4  11
DOCKED: ENDBRANCH   3   7
DOCKED: ENDBRANCH   1   3
DOCKED: BRANCH   1  18
DOCKED: ATOM     18  C   UNL     1      28.103 -14.269   1.686 -0.28 -0.00    +0.000 C 
DOCKED: BRANCH  18  19
DOCKED: ATOM     19  C   UNL     1      27.310 -12.997   2.023 -0.31 -0.00    +0.000 C 
DOCKED: BRANCH  19  20
DOCKED: ATOM     20  O   UNL     1      26.507 -12.598   0.944 -0.35 -0.00    +0.000 OA
DOCKED: ATOM     21  H   UNL     1      25.793 -13.244   0.817 -0.03 -0.00    +0.000 HD
DOCKED: ENDBRANCH  19  20
DOCKED: ENDBRANCH  18  19
DOCKED: ENDBRANCH   1  18
DOCKED: BRANCH   1  22
DOCKED: ATOM     22  C   UNL     1      29.877 -13.425   0.151 -0.07 -0.00    +0.000 C 
DOCKED: BRANCH  22  23
DOCKED: ATOM     23  C   UNL     1      29.800 -12.381  -0.979 -0.03 -0.00    +0.000 C 
DOCKED: BRANCH  23  24
DOCKED: ATOM     24  C   UNL     1      28.713 -12.743  -1.946 -0.06 -0.00    +0.000 A 
DOCKED: ATOM     25  C   UNL     1      27.439 -12.187  -2.012 -0.11 -0.00    +0.000 A 
DOCKED: ATOM     26  N   UNL     1      26.699 -12.812  -2.955 -0.19 -0.00    +0.000 N 
DOCKED: ATOM     27  C   UNL     1      27.490 -13.766  -3.475 -0.20 -0.00    +0.000 A 
DOCKED: ATOM     28  C   UNL     1      28.725 -13.760  -2.881 -0.09 -0.00    +0.000 A 
DOCKED: ATOM     29  C   UNL     1      29.715 -14.678  -3.230 -0.09 -0.00    +0.000 A 
DOCKED: ATOM     30  C   UNL     1      29.413 -15.618  -4.231 -0.21 -0.00    +0.000 A 
DOCKED: ATOM     31  C   UNL     1      28.142 -15.622  -4.849 -0.33 -0.00    +0.000 A 
DOCKED: ATOM     32  C   UNL     1      27.161 -14.688  -4.469 -0.38 -0.00    +0.000 A 
DOCKED: ATOM     33  H   UNL     1      25.770 -12.609  -3.210 -0.00 -0.00    +0.000 HD
DOCKED: ENDBRANCH  23  24
DOCKED: ENDBRANCH  22  23
DOCKED: ENDBRANCH   1  22
DOCKED: TORSDOF 11
DOCKED: TER
DOCKED: ENDMDL
________________________________________________________________________________


	BEGINNING GENETIC ALGORITHM DOCKING 95 of 100
Run: 95 Seed: 1421587525 1088438890 [ Run 95 of 100 GA/GALS ]
Beginning LAMARCKIAN GENETIC ALGORITHM (LGA), with a maximum of 2500000 energy evaluations.

Final-Value: -17.607


	FINAL GENETIC ALGORITHM DOCKED STATE
	_______________________________________________


Detailed state:  trans 27.058 -15.726 -1.217 quatxyzw 0.102797 -0.267706 0.948383 0.135410 center 0.459 0.118 0.005 ntor 11 -10.5650 -97.7750 157.3911 -175.3390 156.0917 -138.3546 42.2020 101.4709 -167.8708 -37.2989 9.8526
State:	 27.058 -15.726  -1.217   0.104 -0.270  0.957 164.435    -10.56  -97.78  157.39 -175.34  156.09 -138.35   42.20  101.47 -167.87  -37.30    9.85

DOCKED: MODEL       95
DOCKED: USER    Run = 95
DOCKED: USER    DPF = ligand_dock.biased.dpf
DOCKED: USER  
DOCKED: USER    Estimated Free Energy of Binding    =  -11.86 kcal/mol  [=(1)+(2)+(3)-(4)]
DOCKED: USER    Estimated Inhibition Constant, Ki   =    2.04 nM (nanomolar)  [Temperature = 298.15 K]
DOCKED: USER    
DOCKED: USER    (1) Final Intermolecular Energy     =  -15.14 kcal/mol
DOCKED: USER        vdW + Hbond + desolv Energy     =  -15.14 kcal/mol
DOCKED: USER        Electrostatic Energy            =   +0.00 kcal/mol
DOCKED: USER    (2) Final Total Internal Energy     =   -2.47 kcal/mol
DOCKED: USER    (3) Torsional Free Energy           =   +3.28 kcal/mol
DOCKED: USER    (4) Unbound System's Energy  [=(2)] =   -2.47 kcal/mol
DOCKED: USER    
DOCKED: USER    
DOCKED: USER    NEWDPF move ligand.pdbqt
DOCKED: USER    NEWDPF about 0.459000 0.118000 0.005000
DOCKED: USER    NEWDPF tran0 27.057905 -15.726201 -1.216739
DOCKED: USER    NEWDPF quaternion0 0.102797 -0.267706 0.948383 0.135410
DOCKED: USER    NEWDPF axisangle0 0.103753 -0.270195 0.957199 164.435309
DOCKED: USER    NEWDPF quat0 0.103753 -0.270195 0.957199 164.435309
DOCKED: USER    NEWDPF dihe0 -10.56 -97.78 157.39 -175.34 156.09 -138.35 42.20 101.47 -167.87 -37.30 9.85 
DOCKED: USER  keepresnum = 1 
DOCKED: USER  
DOCKED: REMARK  Name = 
DOCKED: REMARK  11 active torsions:
DOCKED: REMARK  status: ('A' for Active; 'I' for Inactive)
DOCKED: REMARK    1  A    between atoms: C_2  and  C_5
DOCKED: REMARK    2  A    between atoms: N_3  and  O_4
DOCKED: REMARK    3  A    between atoms: C_6  and  C_7
DOCKED: REMARK    4  A    between atoms: C_10  and  C_11
DOCKED: REMARK    5  A    between atoms: C_11  and  N_12
DOCKED: REMARK    6  A    between atoms: N_12  and  C_13
DOCKED: REMARK    7  A    between atoms: N_12  and  C_16
DOCKED: REMARK    8  A    between atoms: C_13  and  C_14
DOCKED: REMARK    9  A    between atoms: C_14  and  O_15
DOCKED: REMARK   10  A    between atoms: C_16  and  C_17
DOCKED: REMARK   11  A    between atoms: C_17  and  C_18
DOCKED: REMARK                            x       y       z     vdW  Elec       q    Type
DOCKED: REMARK                         _______ _______ _______ _____ _____    ______ ____
DOCKED: USER                              x       y       z     vdW  Elec       q    Type
DOCKED: USER                           _______ _______ _______ _____ _____    ______ ____
DOCKED: ROOT
DOCKED: ATOM      1  N   UNL     1      27.686 -14.443  -0.666 -0.19 -0.00    +0.000 N 
DOCKED: ATOM      2  H   UNL     1      26.933 -14.321  -1.344 +0.00 -0.00    +0.000 HD
DOCKED: ENDROOT
DOCKED: BRANCH   1   3
DOCKED: ATOM      3  C   UNL     1      27.818 -15.889  -0.379 -0.33 -0.00    +0.000 C 
DOCKED: BRANCH   3   7
DOCKED: ATOM      4  C   UNL     1      24.074 -17.890  -1.216 -0.68 -0.00    +0.000 A 
DOCKED: ATOM      5  C   UNL     1      24.919 -18.358  -0.197 -0.58 -0.00    +0.000 A 
DOCKED: ATOM      6  C   UNL     1      26.134 -17.720   0.071 -0.49 -0.00    +0.000 A 
DOCKED: ATOM      7  C   UNL     1      26.520 -16.594  -0.672 -0.45 -0.00    +0.000 A 
DOCKED: ATOM      8  C   UNL     1      25.672 -16.109  -1.677 -0.48 -0.00    +0.000 A 
DOCKED: ATOM      9  C   UNL     1      24.458 -16.747  -1.946 -0.43 -0.00    +0.000 A 
DOCKED: BRANCH   4  11
DOCKED: ATOM     10  C   UNL     1      21.799 -18.648  -0.552 -0.86 -0.00    +0.000 C 
DOCKED: ATOM     11  C   UNL     1      22.789 -18.592  -1.455 -0.73 -0.00    +0.000 C 
DOCKED: BRANCH  10  13
DOCKED: ATOM     12  O   UNL     1      20.297 -19.803  -1.950 -1.82 -0.00    +0.000 OA
DOCKED: ATOM     13  C   UNL     1      20.515 -19.333  -0.802 -0.90 -0.00    +0.000 C 
DOCKED: ATOM     14  N   UNL     1      19.503 -19.450   0.207 -0.74 -0.00    +0.000 N 
DOCKED: ATOM     15  H   UNL     1      19.617 -18.993   1.071 -0.25 -0.00    +0.000 HD
DOCKED: BRANCH  14  16
DOCKED: ATOM     16  O   UNL     1      18.390 -20.186  -0.025 -0.84 -0.00    +0.000 OA
DOCKED: ATOM     17  H   UNL     1      18.351 -20.428  -0.965 -0.36 -0.00    +0.000 HD
DOCKED: ENDBRANCH  14  16
DOCKED: ENDBRANCH  10  13
DOCKED: ENDBRANCH   4  11
DOCKED: ENDBRANCH   3   7
DOCKED: ENDBRANCH   1   3
DOCKED: BRANCH   1  18
DOCKED: ATOM     18  C   UNL     1      27.259 -13.689   0.536 -0.28 -0.00    +0.000 C 
DOCKED: BRANCH  18  19
DOCKED: ATOM     19  C   UNL     1      27.526 -14.463   1.836 -0.20 -0.00    +0.000 C 
DOCKED: BRANCH  19  20
DOCKED: ATOM     20  O   UNL     1      28.895 -14.490   2.138 -0.27 -0.00    +0.000 OA
DOCKED: ATOM     21  H   UNL     1      29.080 -15.233   2.734 -1.99 -0.00    +0.000 HD
DOCKED: ENDBRANCH  19  20
DOCKED: ENDBRANCH  18  19
DOCKED: ENDBRANCH   1  18
DOCKED: BRANCH   1  22
DOCKED: ATOM     22  C   UNL     1      28.891 -13.897  -1.338 -0.10 -0.00    +0.000 C 
DOCKED: BRANCH  22  23
DOCKED: ATOM     23  C   UNL     1      28.599 -13.176  -2.669 -0.10 -0.00    +0.000 C 
DOCKED: BRANCH  23  24
DOCKED: ATOM     24  C   UNL     1      28.591 -14.160  -3.800 -0.14 -0.00    +0.000 A 
DOCKED: ATOM     25  C   UNL     1      27.655 -14.237  -4.827 -0.31 -0.00    +0.000 A 
DOCKED: ATOM     26  N   UNL     1      27.918 -15.296  -5.626 -0.42 +0.00    +0.000 N 
DOCKED: ATOM     27  C   UNL     1      29.002 -15.895  -5.104 -0.30 -0.00    +0.000 A 
DOCKED: ATOM     28  C   UNL     1      29.438 -15.234  -3.984 -0.16 -0.00    +0.000 A 
DOCKED: ATOM     29  C   UNL     1      30.534 -15.681  -3.246 -0.09 -0.00    +0.000 A 
DOCKED: ATOM     30  C   UNL     1      31.196 -16.838  -3.692 -0.11 -0.00    +0.000 A 
DOCKED: ATOM     31  C   UNL     1      30.752 -17.517  -4.849 -0.23 -0.00    +0.000 A 
DOCKED: ATOM     32  C   UNL     1      29.638 -17.047  -5.568 -0.25 -0.00    +0.000 A 
DOCKED: ATOM     33  H   UNL     1      27.417 -15.572  -6.428 -0.07 +0.00    +0.000 HD
DOCKED: ENDBRANCH  23  24
DOCKED: ENDBRANCH  22  23
DOCKED: ENDBRANCH   1  22
DOCKED: TORSDOF 11
DOCKED: TER
DOCKED: ENDMDL
________________________________________________________________________________


	BEGINNING GENETIC ALGORITHM DOCKING 96 of 100
Run: 96 Seed: 1741981835 270010052 [ Run 96 of 100 GA/GALS ]
Beginning LAMARCKIAN GENETIC ALGORITHM (LGA), with a maximum of 2500000 energy evaluations.

Final-Value: -15.077


	FINAL GENETIC ALGORITHM DOCKED STATE
	_______________________________________________


Detailed state:  trans 30.126 -14.455 -2.157 quatxyzw 0.383575 0.681867 -0.480414 0.396396 center 0.459 0.118 0.005 ntor 11 -180.0000 144.4042 -105.3194 63.3837 157.4859 121.8499 -25.3331 -30.5805 13.2611 40.6932 -94.9689
State:	 30.126 -14.455  -2.157   0.418  0.743 -0.523 133.294   -180.00  144.40 -105.32   63.38  157.49  121.85  -25.33  -30.58   13.26   40.69  -94.97

DOCKED: MODEL       96
DOCKED: USER    Run = 96
DOCKED: USER    DPF = ligand_dock.biased.dpf
DOCKED: USER  
DOCKED: USER    Estimated Free Energy of Binding    =  -10.18 kcal/mol  [=(1)+(2)+(3)-(4)]
DOCKED: USER    Estimated Inhibition Constant, Ki   =   34.33 nM (nanomolar)  [Temperature = 298.15 K]
DOCKED: USER    
DOCKED: USER    (1) Final Intermolecular Energy     =  -13.46 kcal/mol
DOCKED: USER        vdW + Hbond + desolv Energy     =  -13.46 kcal/mol
DOCKED: USER        Electrostatic Energy            =   +0.00 kcal/mol
DOCKED: USER    (2) Final Total Internal Energy     =   -1.61 kcal/mol
DOCKED: USER    (3) Torsional Free Energy           =   +3.28 kcal/mol
DOCKED: USER    (4) Unbound System's Energy  [=(2)] =   -1.61 kcal/mol
DOCKED: USER    
DOCKED: USER    
DOCKED: USER    NEWDPF move ligand.pdbqt
DOCKED: USER    NEWDPF about 0.459000 0.118000 0.005000
DOCKED: USER    NEWDPF tran0 30.125558 -14.455240 -2.157002
DOCKED: USER    NEWDPF quaternion0 0.383575 0.681867 -0.480414 0.396396
DOCKED: USER    NEWDPF axisangle0 0.417801 0.742710 -0.523282 133.293822
DOCKED: USER    NEWDPF quat0 0.417801 0.742710 -0.523282 133.293822
DOCKED: USER    NEWDPF dihe0 -180.00 144.40 -105.32 63.38 157.49 121.85 -25.33 -30.58 13.26 40.69 -94.97 
DOCKED: USER  keepresnum = 1 
DOCKED: USER  
DOCKED: REMARK  Name = 
DOCKED: REMARK  11 active torsions:
DOCKED: REMARK  status: ('A' for Active; 'I' for Inactive)
DOCKED: REMARK    1  A    between atoms: C_2  and  C_5
DOCKED: REMARK    2  A    between atoms: N_3  and  O_4
DOCKED: REMARK    3  A    between atoms: C_6  and  C_7
DOCKED: REMARK    4  A    between atoms: C_10  and  C_11
DOCKED: REMARK    5  A    between atoms: C_11  and  N_12
DOCKED: REMARK    6  A    between atoms: N_12  and  C_13
DOCKED: REMARK    7  A    between atoms: N_12  and  C_16
DOCKED: REMARK    8  A    between atoms: C_13  and  C_14
DOCKED: REMARK    9  A    between atoms: C_14  and  O_15
DOCKED: REMARK   10  A    between atoms: C_16  and  C_17
DOCKED: REMARK   11  A    between atoms: C_17  and  C_18
DOCKED: REMARK                            x       y       z     vdW  Elec       q    Type
DOCKED: REMARK                         _______ _______ _______ _____ _____    ______ ____
DOCKED: USER                              x       y       z     vdW  Elec       q    Type
DOCKED: USER                           _______ _______ _______ _____ _____    ______ ____
DOCKED: ROOT
DOCKED: ATOM      1  N   UNL     1      30.303 -15.593  -1.148 -0.09 -0.00    +0.000 N 
DOCKED: ATOM      2  H   UNL     1      30.839 -14.744  -0.969 +0.00 -0.00    +0.000 HD
DOCKED: ENDROOT
DOCKED: BRANCH   1   3
DOCKED: ATOM      3  C   UNL     1      29.431 -15.348  -2.318 -0.15 -0.00    +0.000 C 
DOCKED: BRANCH   3   7
DOCKED: ATOM      4  C   UNL     1      25.349 -16.408  -1.352 -0.51 -0.00    +0.000 A 
DOCKED: ATOM      5  C   UNL     1      26.326 -17.405  -1.504 -0.40 -0.00    +0.000 A 
DOCKED: ATOM      6  C   UNL     1      27.645 -17.068  -1.825 -0.27 -0.00    +0.000 A 
DOCKED: ATOM      7  C   UNL     1      28.010 -15.724  -1.991 -0.24 -0.00    +0.000 A 
DOCKED: ATOM      8  C   UNL     1      27.044 -14.723  -1.819 -0.25 -0.00    +0.000 A 
DOCKED: ATOM      9  C   UNL     1      25.726 -15.059  -1.499 -0.32 -0.00    +0.000 A 
DOCKED: BRANCH   4  11
DOCKED: ATOM     10  C   UNL     1      23.386 -17.934  -1.454 -0.72 -0.00    +0.000 C 
DOCKED: ATOM     11  C   UNL     1      23.967 -16.815  -0.998 -0.62 -0.00    +0.000 C 
DOCKED: BRANCH  10  13
DOCKED: ATOM     12  O   UNL     1      21.387 -17.648  -0.243 -1.53 -0.00    +0.000 OA
DOCKED: ATOM     13  C   UNL     1      22.016 -18.343  -1.084 -0.77 -0.00    +0.000 C 
DOCKED: ATOM     14  N   UNL     1      21.397 -19.518  -1.625 -0.62 -0.00    +0.000 N 
DOCKED: ATOM     15  H   UNL     1      21.918 -20.126  -2.197 -0.56 -0.00    +0.000 HD
DOCKED: BRANCH  14  16
DOCKED: ATOM     16  O   UNL     1      20.100 -19.793  -1.351 -1.59 -0.00    +0.000 OA
DOCKED: ATOM     17  H   UNL     1      19.843 -20.619  -1.792 -0.61 -0.00    +0.000 HD
DOCKED: ENDBRANCH  14  16
DOCKED: ENDBRANCH  10  13
DOCKED: ENDBRANCH   4  11
DOCKED: ENDBRANCH   3   7
DOCKED: ENDBRANCH   1   3
DOCKED: BRANCH   1  18
DOCKED: ATOM     18  C   UNL     1      29.508 -15.823   0.081 -0.14 -0.00    +0.000 C 
DOCKED: BRANCH  18  19
DOCKED: ATOM     19  C   UNL     1      29.458 -14.581   0.985 -0.16 -0.00    +0.000 C 
DOCKED: BRANCH  19  20
DOCKED: ATOM     20  O   UNL     1      28.529 -14.746   2.023 -0.24 -0.00    +0.000 OA
DOCKED: ATOM     21  H   UNL     1      28.944 -15.233   2.753 -1.96 -0.00    +0.000 HD
DOCKED: ENDBRANCH  19  20
DOCKED: ENDBRANCH  18  19
DOCKED: ENDBRANCH   1  18
DOCKED: BRANCH   1  22
DOCKED: ATOM     22  C   UNL     1      31.324 -16.634  -1.424 -0.10 -0.00    +0.000 C 
DOCKED: BRANCH  22  23
DOCKED: ATOM     23  C   UNL     1      30.745 -17.962  -1.948 -0.19 -0.00    +0.000 C 
DOCKED: BRANCH  23  24
DOCKED: ATOM     24  C   UNL     1      31.636 -18.533  -3.010 -0.13 -0.00    +0.000 A 
DOCKED: ATOM     25  C   UNL     1      32.924 -19.030  -2.836 -0.05 -0.00    +0.000 A 
DOCKED: ATOM     26  N   UNL     1      33.455 -19.389  -4.027 -0.04 -0.00    +0.000 N 
DOCKED: ATOM     27  C   UNL     1      32.520 -19.109  -4.951 -0.08 -0.00    +0.000 A 
DOCKED: ATOM     28  C   UNL     1      31.397 -18.579  -4.370 -0.17 -0.00    +0.000 A 
DOCKED: ATOM     29  C   UNL     1      30.295 -18.180  -5.126 -0.28 -0.00    +0.000 A 
DOCKED: ATOM     30  C   UNL     1      30.363 -18.347  -6.521 -0.33 -0.00    +0.000 A 
DOCKED: ATOM     31  C   UNL     1      31.517 -18.899  -7.121 -0.25 -0.00    +0.000 A 
DOCKED: ATOM     32  C   UNL     1      32.616 -19.285  -6.332 -0.08 -0.00    +0.000 A 
DOCKED: ATOM     33  H   UNL     1      34.346 -19.777  -4.185 +0.00 -0.00    +0.000 HD
DOCKED: ENDBRANCH  23  24
DOCKED: ENDBRANCH  22  23
DOCKED: ENDBRANCH   1  22
DOCKED: TORSDOF 11
DOCKED: TER
DOCKED: ENDMDL
________________________________________________________________________________


	BEGINNING GENETIC ALGORITHM DOCKING 97 of 100
Run: 97 Seed: 107934498 199442040 [ Run 97 of 100 GA/GALS ]
Beginning LAMARCKIAN GENETIC ALGORITHM (LGA), with a maximum of 2500000 energy evaluations.

Final-Value: -15.994


	FINAL GENETIC ALGORITHM DOCKED STATE
	_______________________________________________


Detailed state:  trans 28.315 -15.747 -2.149 quatxyzw -0.275586 -0.174707 -0.918838 0.221961 center 0.459 0.118 0.005 ntor 11 -119.3512 140.2566 72.4864 48.3989 -114.1609 180.0000 -179.9879 -9.5135 -169.9457 70.4535 48.4985
State:	 28.315 -15.747  -2.149  -0.283 -0.179 -0.942 154.352   -119.35  140.26   72.49   48.40 -114.16  180.00 -179.99   -9.51 -169.95   70.45   48.50

DOCKED: MODEL       97
DOCKED: USER    Run = 97
DOCKED: USER    DPF = ligand_dock.biased.dpf
DOCKED: USER  
DOCKED: USER    Estimated Free Energy of Binding    =  -10.47 kcal/mol  [=(1)+(2)+(3)-(4)]
DOCKED: USER    Estimated Inhibition Constant, Ki   =   21.20 nM (nanomolar)  [Temperature = 298.15 K]
DOCKED: USER    
DOCKED: USER    (1) Final Intermolecular Energy     =  -13.75 kcal/mol
DOCKED: USER        vdW + Hbond + desolv Energy     =  -13.75 kcal/mol
DOCKED: USER        Electrostatic Energy            =   +0.00 kcal/mol
DOCKED: USER    (2) Final Total Internal Energy     =   -2.24 kcal/mol
DOCKED: USER    (3) Torsional Free Energy           =   +3.28 kcal/mol
DOCKED: USER    (4) Unbound System's Energy  [=(2)] =   -2.24 kcal/mol
DOCKED: USER    
DOCKED: USER    
DOCKED: USER    NEWDPF move ligand.pdbqt
DOCKED: USER    NEWDPF about 0.459000 0.118000 0.005000
DOCKED: USER    NEWDPF tran0 28.315363 -15.747004 -2.149128
DOCKED: USER    NEWDPF quaternion0 -0.275586 -0.174707 -0.918838 0.221961
DOCKED: USER    NEWDPF axisangle0 -0.282636 -0.179176 -0.942344 154.351579
DOCKED: USER    NEWDPF quat0 -0.282636 -0.179176 -0.942344 154.351579
DOCKED: USER    NEWDPF dihe0 -119.35 140.26 72.49 48.40 -114.16 180.00 -179.99 -9.51 -169.95 70.45 48.50 
DOCKED: USER  keepresnum = 1 
DOCKED: USER  
DOCKED: REMARK  Name = 
DOCKED: REMARK  11 active torsions:
DOCKED: REMARK  status: ('A' for Active; 'I' for Inactive)
DOCKED: REMARK    1  A    between atoms: C_2  and  C_5
DOCKED: REMARK    2  A    between atoms: N_3  and  O_4
DOCKED: REMARK    3  A    between atoms: C_6  and  C_7
DOCKED: REMARK    4  A    between atoms: C_10  and  C_11
DOCKED: REMARK    5  A    between atoms: C_11  and  N_12
DOCKED: REMARK    6  A    between atoms: N_12  and  C_13
DOCKED: REMARK    7  A    between atoms: N_12  and  C_16
DOCKED: REMARK    8  A    between atoms: C_13  and  C_14
DOCKED: REMARK    9  A    between atoms: C_14  and  O_15
DOCKED: REMARK   10  A    between atoms: C_16  and  C_17
DOCKED: REMARK   11  A    between atoms: C_17  and  C_18
DOCKED: REMARK                            x       y       z     vdW  Elec       q    Type
DOCKED: REMARK                         _______ _______ _______ _____ _____    ______ ____
DOCKED: USER                              x       y       z     vdW  Elec       q    Type
DOCKED: USER                           _______ _______ _______ _____ _____    ______ ____
DOCKED: ROOT
DOCKED: ATOM      1  N   UNL     1      29.395 -15.185  -3.077 -0.13 -0.00    +0.000 N 
DOCKED: ATOM      2  H   UNL     1      28.437 -15.146  -3.426 +0.00 -0.00    +0.000 HD
DOCKED: ENDROOT
DOCKED: BRANCH   1   3
DOCKED: ATOM      3  C   UNL     1      29.361 -15.700  -1.690 -0.17 -0.00    +0.000 C 
DOCKED: BRANCH   3   7
DOCKED: ATOM      4  C   UNL     1      25.511 -17.499  -0.875 -0.59 -0.00    +0.000 A 
DOCKED: ATOM      5  C   UNL     1      25.597 -16.303  -1.607 -0.50 -0.00    +0.000 A 
DOCKED: ATOM      6  C   UNL     1      26.839 -15.714  -1.865 -0.34 -0.00    +0.000 A 
DOCKED: ATOM      7  C   UNL     1      28.018 -16.317  -1.402 -0.30 -0.00    +0.000 A 
DOCKED: ATOM      8  C   UNL     1      27.940 -17.520  -0.689 -0.32 -0.00    +0.000 A 
DOCKED: ATOM      9  C   UNL     1      26.700 -18.110  -0.429 -0.50 -0.00    +0.000 A 
DOCKED: BRANCH   4  11
DOCKED: ATOM     10  C   UNL     1      23.102 -17.833  -1.402 -0.64 -0.00    +0.000 C 
DOCKED: ATOM     11  C   UNL     1      24.173 -18.093  -0.637 -0.78 -0.00    +0.000 C 
DOCKED: BRANCH  10  13
DOCKED: ATOM     12  O   UNL     1      21.007 -17.908  -0.330 -1.93 +0.00    +0.000 OA
DOCKED: ATOM     13  C   UNL     1      21.777 -18.442  -1.172 -0.64 -0.00    +0.000 C 
DOCKED: ATOM     14  N   UNL     1      21.356 -19.634  -1.849 -0.48 -0.00    +0.000 N 
DOCKED: ATOM     15  H   UNL     1      21.989 -20.120  -2.425 -0.60 -0.00    +0.000 HD
DOCKED: BRANCH  14  16
DOCKED: ATOM     16  O   UNL     1      20.091 -20.093  -1.698 -1.71 -0.00    +0.000 OA
DOCKED: ATOM     17  H   UNL     1      20.113 -20.983  -1.311 -0.55 -0.00    +0.000 HD
DOCKED: ENDBRANCH  14  16
DOCKED: ENDBRANCH  10  13
DOCKED: ENDBRANCH   4  11
DOCKED: ENDBRANCH   3   7
DOCKED: ENDBRANCH   1   3
DOCKED: BRANCH   1  18
DOCKED: ATOM     18  C   UNL     1      29.888 -13.788  -3.125 -0.06 -0.00    +0.000 C 
DOCKED: BRANCH  18  19
DOCKED: ATOM     19  C   UNL     1      28.824 -12.812  -3.649 -0.09 -0.00    +0.000 C 
DOCKED: BRANCH  19  20
DOCKED: ATOM     20  O   UNL     1      27.737 -13.499  -4.210 -0.21 -0.00    +0.000 OA
DOCKED: ATOM     21  H   UNL     1      27.155 -13.815  -3.501 +0.00 -0.00    +0.000 HD
DOCKED: ENDBRANCH  19  20
DOCKED: ENDBRANCH  18  19
DOCKED: ENDBRANCH   1  18
DOCKED: BRANCH   1  22
DOCKED: ATOM     22  C   UNL     1      30.095 -16.115  -3.998 -0.20 -0.00    +0.000 C 
DOCKED: BRANCH  22  23
DOCKED: ATOM     23  C   UNL     1      29.245 -16.570  -5.201 -0.27 -0.00    +0.000 C 
DOCKED: BRANCH  23  24
DOCKED: ATOM     24  C   UNL     1      30.127 -17.128  -6.277 -0.29 -0.00    +0.000 A 
DOCKED: ATOM     25  C   UNL     1      30.753 -16.414  -7.293 -0.28 -0.00    +0.000 A 
DOCKED: ATOM     26  N   UNL     1      31.404 -17.254  -8.129 -0.29 -0.00    +0.000 N 
DOCKED: ATOM     27  C   UNL     1      31.182 -18.493  -7.657 -0.31 -0.00    +0.000 A 
DOCKED: ATOM     28  C   UNL     1      30.401 -18.458  -6.530 -0.34 -0.00    +0.000 A 
DOCKED: ATOM     29  C   UNL     1      30.008 -19.622  -5.870 -0.31 -0.00    +0.000 A 
DOCKED: ATOM     30  C   UNL     1      30.450 -20.851  -6.392 -0.38 -0.00    +0.000 A 
DOCKED: ATOM     31  C   UNL     1      31.260 -20.889  -7.549 -0.28 -0.00    +0.000 A 
DOCKED: ATOM     32  C   UNL     1      31.632 -19.698  -8.198 -0.25 -0.00    +0.000 A 
DOCKED: ATOM     33  H   UNL     1      31.934 -17.009  -8.922 -0.02 -0.00    +0.000 HD
DOCKED: ENDBRANCH  23  24
DOCKED: ENDBRANCH  22  23
DOCKED: ENDBRANCH   1  22
DOCKED: TORSDOF 11
DOCKED: TER
DOCKED: ENDMDL
________________________________________________________________________________


	BEGINNING GENETIC ALGORITHM DOCKING 98 of 100
Run: 98 Seed: 935596186 214018190 [ Run 98 of 100 GA/GALS ]
Beginning LAMARCKIAN GENETIC ALGORITHM (LGA), with a maximum of 2500000 energy evaluations.

Final-Value: -17.561


	FINAL GENETIC ALGORITHM DOCKED STATE
	_______________________________________________


Detailed state:  trans 27.916 -15.695 -1.555 quatxyzw -0.387773 -0.031006 -0.834311 0.390636 center 0.459 0.118 0.005 ntor 11 2.2435 138.0691 68.8607 73.5387 -122.6679 99.9223 -164.1818 157.4385 -152.4155 -127.3310 63.2348
State:	 27.916 -15.695  -1.555  -0.421 -0.034 -0.906 134.012      2.24  138.07   68.86   73.54 -122.67   99.92 -164.18  157.44 -152.42 -127.33   63.23

DOCKED: MODEL       98
DOCKED: USER    Run = 98
DOCKED: USER    DPF = ligand_dock.biased.dpf
DOCKED: USER  
DOCKED: USER    Estimated Free Energy of Binding    =  -10.19 kcal/mol  [=(1)+(2)+(3)-(4)]
DOCKED: USER    Estimated Inhibition Constant, Ki   =   34.15 nM (nanomolar)  [Temperature = 298.15 K]
DOCKED: USER    
DOCKED: USER    (1) Final Intermolecular Energy     =  -13.47 kcal/mol
DOCKED: USER        vdW + Hbond + desolv Energy     =  -13.47 kcal/mol
DOCKED: USER        Electrostatic Energy            =   +0.00 kcal/mol
DOCKED: USER    (2) Final Total Internal Energy     =   -4.09 kcal/mol
DOCKED: USER    (3) Torsional Free Energy           =   +3.28 kcal/mol
DOCKED: USER    (4) Unbound System's Energy  [=(2)] =   -4.09 kcal/mol
DOCKED: USER    
DOCKED: USER    
DOCKED: USER    NEWDPF move ligand.pdbqt
DOCKED: USER    NEWDPF about 0.459000 0.118000 0.005000
DOCKED: USER    NEWDPF tran0 27.915535 -15.694941 -1.554659
DOCKED: USER    NEWDPF quaternion0 -0.387773 -0.031006 -0.834311 0.390636
DOCKED: USER    NEWDPF axisangle0 -0.421243 -0.033682 -0.906322 134.011865
DOCKED: USER    NEWDPF quat0 -0.421243 -0.033682 -0.906322 134.011865
DOCKED: USER    NEWDPF dihe0 2.24 138.07 68.86 73.54 -122.67 99.92 -164.18 157.44 -152.42 -127.33 63.23 
DOCKED: USER  keepresnum = 1 
DOCKED: USER  
DOCKED: REMARK  Name = 
DOCKED: REMARK  11 active torsions:
DOCKED: REMARK  status: ('A' for Active; 'I' for Inactive)
DOCKED: REMARK    1  A    between atoms: C_2  and  C_5
DOCKED: REMARK    2  A    between atoms: N_3  and  O_4
DOCKED: REMARK    3  A    between atoms: C_6  and  C_7
DOCKED: REMARK    4  A    between atoms: C_10  and  C_11
DOCKED: REMARK    5  A    between atoms: C_11  and  N_12
DOCKED: REMARK    6  A    between atoms: N_12  and  C_13
DOCKED: REMARK    7  A    between atoms: N_12  and  C_16
DOCKED: REMARK    8  A    between atoms: C_13  and  C_14
DOCKED: REMARK    9  A    between atoms: C_14  and  O_15
DOCKED: REMARK   10  A    between atoms: C_16  and  C_17
DOCKED: REMARK   11  A    between atoms: C_17  and  C_18
DOCKED: REMARK                            x       y       z     vdW  Elec       q    Type
DOCKED: REMARK                         _______ _______ _______ _____ _____    ______ ____
DOCKED: USER                              x       y       z     vdW  Elec       q    Type
DOCKED: USER                           _______ _______ _______ _____ _____    ______ ____
DOCKED: ROOT
DOCKED: ATOM      1  N   UNL     1      29.054 -15.477  -2.555 -0.16 -0.00    +0.000 N 
DOCKED: ATOM      2  H   UNL     1      28.198 -14.949  -2.725 +0.01 -0.00    +0.000 HD
DOCKED: ENDROOT
DOCKED: BRANCH   1   3
DOCKED: ATOM      3  C   UNL     1      28.898 -16.210  -1.279 -0.26 -0.00    +0.000 C 
DOCKED: BRANCH   3   7
DOCKED: ATOM      4  C   UNL     1      24.728 -17.132  -0.584 -0.53 -0.00    +0.000 A 
DOCKED: ATOM      5  C   UNL     1      25.683 -18.160  -0.651 -0.59 -0.00    +0.000 A 
DOCKED: ATOM      6  C   UNL     1      27.030 -17.867  -0.884 -0.38 -0.00    +0.000 A 
DOCKED: ATOM      7  C   UNL     1      27.446 -16.537  -1.046 -0.37 -0.00    +0.000 A 
DOCKED: ATOM      8  C   UNL     1      26.502 -15.506  -0.959 -0.35 -0.00    +0.000 A 
DOCKED: ATOM      9  C   UNL     1      25.155 -15.797  -0.726 -0.27 -0.00    +0.000 A 
DOCKED: BRANCH   4  11
DOCKED: ATOM     10  C   UNL     1      22.606 -18.326  -1.097 -0.80 -0.00    +0.000 C 
DOCKED: ATOM     11  C   UNL     1      23.313 -17.492  -0.321 -0.70 -0.00    +0.000 C 
DOCKED: BRANCH  10  13
DOCKED: ATOM     12  O   UNL     1      20.299 -17.856  -1.078 -2.18 -0.00    +0.000 OA
DOCKED: ATOM     13  C   UNL     1      21.203 -18.694  -0.821 -0.85 -0.00    +0.000 C 
DOCKED: ATOM     14  N   UNL     1      20.844 -19.957  -0.243 -0.70 -0.00    +0.000 N 
DOCKED: ATOM     15  H   UNL     1      21.548 -20.574   0.061 -0.49 -0.00    +0.000 HD
DOCKED: BRANCH  14  16
DOCKED: ATOM     16  O   UNL     1      19.541 -20.303  -0.115 -0.87 -0.00    +0.000 OA
DOCKED: ATOM     17  H   UNL     1      18.982 -19.605  -0.493 -0.13 -0.00    +0.000 HD
DOCKED: ENDBRANCH  14  16
DOCKED: ENDBRANCH  10  13
DOCKED: ENDBRANCH   4  11
DOCKED: ENDBRANCH   3   7
DOCKED: ENDBRANCH   1   3
DOCKED: BRANCH   1  18
DOCKED: ATOM     18  C   UNL     1      30.131 -14.463  -2.469 -0.06 -0.00    +0.000 C 
DOCKED: BRANCH  18  19
DOCKED: ATOM     19  C   UNL     1      29.604 -13.088  -2.031 -0.04 -0.00    +0.000 C 
DOCKED: BRANCH  19  20
DOCKED: ATOM     20  O   UNL     1      28.208 -13.016  -2.154 -0.11 -0.00    +0.000 OA
DOCKED: ATOM     21  H   UNL     1      27.794 -13.490  -1.415 +0.00 -0.00    +0.000 HD
DOCKED: ENDBRANCH  19  20
DOCKED: ENDBRANCH  18  19
DOCKED: ENDBRANCH   1  18
DOCKED: BRANCH   1  22
DOCKED: ATOM     22  C   UNL     1      29.167 -16.397  -3.713 -0.26 -0.00    +0.000 C 
DOCKED: BRANCH  22  23
DOCKED: ATOM     23  C   UNL     1      28.420 -15.919  -4.974 -0.28 -0.00    +0.000 C 
DOCKED: BRANCH  23  24
DOCKED: ATOM     24  C   UNL     1      27.212 -15.120  -4.589 -0.42 -0.00    +0.000 A 
DOCKED: ATOM     25  C   UNL     1      26.038 -15.608  -4.023 -0.51 -0.00    +0.000 A 
DOCKED: ATOM     26  N   UNL     1      25.132 -14.613  -3.884 -0.54 -0.00    +0.000 N 
DOCKED: ATOM     27  C   UNL     1      25.719 -13.506  -4.370 -0.34 -0.00    +0.000 A 
DOCKED: ATOM     28  C   UNL     1      26.987 -13.776  -4.816 -0.32 -0.00    +0.000 A 
DOCKED: ATOM     29  C   UNL     1      27.790 -12.792  -5.392 -0.20 -0.00    +0.000 A 
DOCKED: ATOM     30  C   UNL     1      27.261 -11.493  -5.496 -0.16 -0.00    +0.000 A 
DOCKED: ATOM     31  C   UNL     1      25.957 -11.211  -5.031 -0.27 -0.00    +0.000 A 
DOCKED: ATOM     32  C   UNL     1      25.168 -12.227  -4.462 -0.26 -0.00    +0.000 A 
DOCKED: ATOM     33  H   UNL     1      24.227 -14.685  -3.503 -0.07 -0.00    +0.000 HD
DOCKED: ENDBRANCH  23  24
DOCKED: ENDBRANCH  22  23
DOCKED: ENDBRANCH   1  22
DOCKED: TORSDOF 11
DOCKED: TER
DOCKED: ENDMDL
________________________________________________________________________________


	BEGINNING GENETIC ALGORITHM DOCKING 99 of 100
Run: 99 Seed: 88641268 1205274067 [ Run 99 of 100 GA/GALS ]
Beginning LAMARCKIAN GENETIC ALGORITHM (LGA), with a maximum of 2500000 energy evaluations.

Final-Value: -17.836


	FINAL GENETIC ALGORITHM DOCKED STATE
	_______________________________________________


Detailed state:  trans 28.457 -15.861 -1.321 quatxyzw 0.044225 0.274285 -0.949240 -0.147497 center 0.459 0.118 0.005 ntor 11 -45.4758 -6.3343 28.8239 -105.8115 7.1405 42.2581 161.9724 179.7704 158.3777 158.1421 -8.0770
State:	 28.457 -15.861  -1.321   0.045  0.277 -0.960 -163.036    -45.48   -6.33   28.82 -105.81    7.14   42.26  161.97  179.77  158.38  158.14   -8.08

DOCKED: MODEL       99
DOCKED: USER    Run = 99
DOCKED: USER    DPF = ligand_dock.biased.dpf
DOCKED: USER  
DOCKED: USER    Estimated Free Energy of Binding    =  -12.01 kcal/mol  [=(1)+(2)+(3)-(4)]
DOCKED: USER    Estimated Inhibition Constant, Ki   =    1.56 nM (nanomolar)  [Temperature = 298.15 K]
DOCKED: USER    
DOCKED: USER    (1) Final Intermolecular Energy     =  -15.30 kcal/mol
DOCKED: USER        vdW + Hbond + desolv Energy     =  -15.30 kcal/mol
DOCKED: USER        Electrostatic Energy            =   +0.00 kcal/mol
DOCKED: USER    (2) Final Total Internal Energy     =   -2.54 kcal/mol
DOCKED: USER    (3) Torsional Free Energy           =   +3.28 kcal/mol
DOCKED: USER    (4) Unbound System's Energy  [=(2)] =   -2.54 kcal/mol
DOCKED: USER    
DOCKED: USER    
DOCKED: USER    NEWDPF move ligand.pdbqt
DOCKED: USER    NEWDPF about 0.459000 0.118000 0.005000
DOCKED: USER    NEWDPF tran0 28.456932 -15.861062 -1.320885
DOCKED: USER    NEWDPF quaternion0 0.044225 0.274285 -0.949240 -0.147497
DOCKED: USER    NEWDPF axisangle0 0.044715 0.277318 -0.959737 -163.036252
DOCKED: USER    NEWDPF quat0 0.044715 0.277318 -0.959737 -163.036252
DOCKED: USER    NEWDPF dihe0 -45.48 -6.33 28.82 -105.81 7.14 42.26 161.97 179.77 158.38 158.14 -8.08 
DOCKED: USER  keepresnum = 1 
DOCKED: USER  
DOCKED: REMARK  Name = 
DOCKED: REMARK  11 active torsions:
DOCKED: REMARK  status: ('A' for Active; 'I' for Inactive)
DOCKED: REMARK    1  A    between atoms: C_2  and  C_5
DOCKED: REMARK    2  A    between atoms: N_3  and  O_4
DOCKED: REMARK    3  A    between atoms: C_6  and  C_7
DOCKED: REMARK    4  A    between atoms: C_10  and  C_11
DOCKED: REMARK    5  A    between atoms: C_11  and  N_12
DOCKED: REMARK    6  A    between atoms: N_12  and  C_13
DOCKED: REMARK    7  A    between atoms: N_12  and  C_16
DOCKED: REMARK    8  A    between atoms: C_13  and  C_14
DOCKED: REMARK    9  A    between atoms: C_14  and  O_15
DOCKED: REMARK   10  A    between atoms: C_16  and  C_17
DOCKED: REMARK   11  A    between atoms: C_17  and  C_18
DOCKED: REMARK                            x       y       z     vdW  Elec       q    Type
DOCKED: REMARK                         _______ _______ _______ _____ _____    ______ ____
DOCKED: USER                              x       y       z     vdW  Elec       q    Type
DOCKED: USER                           _______ _______ _______ _____ _____    ______ ____
DOCKED: ROOT
DOCKED: ATOM      1  N   UNL     1      28.966 -14.648  -0.539 -0.13 -0.00    +0.000 N 
DOCKED: ATOM      2  H   UNL     1      28.442 -14.447  -1.391 +0.01 -0.00    +0.000 HD
DOCKED: ENDROOT
DOCKED: BRANCH   1   3
DOCKED: ATOM      3  C   UNL     1      28.941 -16.110  -0.316 -0.24 -0.00    +0.000 C 
DOCKED: BRANCH   3   7
DOCKED: ATOM      4  C   UNL     1      25.003 -17.699  -1.144 -0.62 -0.00    +0.000 A 
DOCKED: ATOM      5  C   UNL     1      25.615 -16.812  -2.044 -0.50 -0.00    +0.000 A 
DOCKED: ATOM      6  C   UNL     1      26.884 -16.289  -1.776 -0.37 -0.00    +0.000 A 
DOCKED: ATOM      7  C   UNL     1      27.566 -16.653  -0.605 -0.36 -0.00    +0.000 A 
DOCKED: ATOM      8  C   UNL     1      26.969 -17.554   0.286 -0.21 -0.00    +0.000 A 
DOCKED: ATOM      9  C   UNL     1      25.701 -18.077   0.020 -0.58 -0.00    +0.000 A 
DOCKED: BRANCH   4  11
DOCKED: ATOM     10  C   UNL     1      22.560 -17.978  -0.757 -0.82 -0.00    +0.000 C 
DOCKED: ATOM     11  C   UNL     1      23.661 -18.238  -1.478 -0.77 -0.00    +0.000 C 
DOCKED: BRANCH  10  13
DOCKED: ATOM     12  O   UNL     1      20.209 -17.864  -0.719 -2.16 -0.00    +0.000 OA
DOCKED: ATOM     13  C   UNL     1      21.224 -18.502  -1.104 -0.72 -0.00    +0.000 C 
DOCKED: ATOM     14  N   UNL     1      21.048 -19.724  -1.835 -0.65 -0.00    +0.000 N 
DOCKED: ATOM     15  H   UNL     1      21.829 -20.284  -2.046 -0.50 -0.00    +0.000 HD
DOCKED: BRANCH  14  16
DOCKED: ATOM     16  O   UNL     1      19.813 -20.108  -2.234 -1.70 -0.00    +0.000 OA
DOCKED: ATOM     17  H   UNL     1      19.186 -19.996  -1.502 -0.39 -0.00    +0.000 HD
DOCKED: ENDBRANCH  14  16
DOCKED: ENDBRANCH  10  13
DOCKED: ENDBRANCH   4  11
DOCKED: ENDBRANCH   3   7
DOCKED: ENDBRANCH   1   3
DOCKED: BRANCH   1  18
DOCKED: ATOM     18  C   UNL     1      28.255 -13.923   0.541 -0.20 -0.00    +0.000 C 
DOCKED: BRANCH  18  19
DOCKED: ATOM     19  C   UNL     1      29.183 -13.564   1.711 -0.17 -0.00    +0.000 C 
DOCKED: BRANCH  19  20
DOCKED: ATOM     20  O   UNL     1      29.819 -14.704   2.223 -0.19 -0.00    +0.000 OA
DOCKED: ATOM     21  H   UNL     1      29.160 -15.281   2.641 -2.00 -0.00    +0.000 HD
DOCKED: ENDBRANCH  19  20
DOCKED: ENDBRANCH  18  19
DOCKED: ENDBRANCH   1  18
DOCKED: BRANCH   1  22
DOCKED: ATOM     22  C   UNL     1      30.337 -14.150  -0.813 -0.05 -0.00    +0.000 C 
DOCKED: BRANCH  22  23
DOCKED: ATOM     23  C   UNL     1      30.707 -14.111  -2.308 -0.03 -0.00    +0.000 C 
DOCKED: BRANCH  23  24
DOCKED: ATOM     24  C   UNL     1      29.648 -14.790  -3.123 -0.09 -0.00    +0.000 A 
DOCKED: ATOM     25  C   UNL     1      29.732 -16.046  -3.716 -0.18 -0.00    +0.000 A 
DOCKED: ATOM     26  N   UNL     1      28.619 -16.301  -4.440 -0.25 -0.00    +0.000 N 
DOCKED: ATOM     27  C   UNL     1      27.840 -15.212  -4.321 -0.33 -0.00    +0.000 A 
DOCKED: ATOM     28  C   UNL     1      28.437 -14.264  -3.530 -0.15 -0.00    +0.000 A 
DOCKED: ATOM     29  C   UNL     1      27.837 -13.031  -3.278 -0.13 -0.00    +0.000 A 
DOCKED: ATOM     30  C   UNL     1      26.579 -12.784  -3.858 -0.25 -0.00    +0.000 A 
DOCKED: ATOM     31  C   UNL     1      25.960 -13.762  -4.669 -0.15 -0.00    +0.000 A 
DOCKED: ATOM     32  C   UNL     1      26.595 -14.994  -4.910 -0.45 -0.00    +0.000 A 
DOCKED: ATOM     33  H   UNL     1      28.419 -17.119  -4.950 +0.04 -0.00    +0.000 HD
DOCKED: ENDBRANCH  23  24
DOCKED: ENDBRANCH  22  23
DOCKED: ENDBRANCH   1  22
DOCKED: TORSDOF 11
DOCKED: TER
DOCKED: ENDMDL
________________________________________________________________________________


	BEGINNING GENETIC ALGORITHM DOCKING 100 of 100
Run: 100 Seed: 2006131593 1251177940 [ Run 100 of 100 GA/GALS ]
Beginning LAMARCKIAN GENETIC ALGORITHM (LGA), with a maximum of 2500000 energy evaluations.

Final-Value: -17.067


	FINAL GENETIC ALGORITHM DOCKED STATE
	_______________________________________________


Detailed state:  trans 28.512 -15.786 -2.261 quatxyzw 0.834757 0.014685 -0.254751 -0.487921 center 0.459 0.118 0.005 ntor 11 -5.9359 -151.6540 159.6231 -114.1886 178.5497 178.9302 167.2029 126.0948 177.7481 170.4675 174.3227
State:	 28.512 -15.786  -2.261   0.956  0.017 -0.292 -121.592     -5.94 -151.65  159.62 -114.19  178.55  178.93  167.20  126.09  177.75  170.47  174.32

DOCKED: MODEL      100
DOCKED: USER    Run = 100
DOCKED: USER    DPF = ligand_dock.biased.dpf
DOCKED: USER  
DOCKED: USER    Estimated Free Energy of Binding    =  -11.33 kcal/mol  [=(1)+(2)+(3)-(4)]
DOCKED: USER    Estimated Inhibition Constant, Ki   =    4.97 nM (nanomolar)  [Temperature = 298.15 K]
DOCKED: USER    
DOCKED: USER    (1) Final Intermolecular Energy     =  -14.61 kcal/mol
DOCKED: USER        vdW + Hbond + desolv Energy     =  -14.61 kcal/mol
DOCKED: USER        Electrostatic Energy            =   +0.00 kcal/mol
DOCKED: USER    (2) Final Total Internal Energy     =   -2.46 kcal/mol
DOCKED: USER    (3) Torsional Free Energy           =   +3.28 kcal/mol
DOCKED: USER    (4) Unbound System's Energy  [=(2)] =   -2.46 kcal/mol
DOCKED: USER    
DOCKED: USER    
DOCKED: USER    NEWDPF move ligand.pdbqt
DOCKED: USER    NEWDPF about 0.459000 0.118000 0.005000
DOCKED: USER    NEWDPF tran0 28.511530 -15.786006 -2.260926
DOCKED: USER    NEWDPF quaternion0 0.834757 0.014685 -0.254751 -0.487921
DOCKED: USER    NEWDPF axisangle0 0.956316 0.016824 -0.291849 -121.591903
DOCKED: USER    NEWDPF quat0 0.956316 0.016824 -0.291849 -121.591903
DOCKED: USER    NEWDPF dihe0 -5.94 -151.65 159.62 -114.19 178.55 178.93 167.20 126.09 177.75 170.47 174.32 
DOCKED: USER  keepresnum = 1 
DOCKED: USER  
DOCKED: REMARK  Name = 
DOCKED: REMARK  11 active torsions:
DOCKED: REMARK  status: ('A' for Active; 'I' for Inactive)
DOCKED: REMARK    1  A    between atoms: C_2  and  C_5
DOCKED: REMARK    2  A    between atoms: N_3  and  O_4
DOCKED: REMARK    3  A    between atoms: C_6  and  C_7
DOCKED: REMARK    4  A    between atoms: C_10  and  C_11
DOCKED: REMARK    5  A    between atoms: C_11  and  N_12
DOCKED: REMARK    6  A    between atoms: N_12  and  C_13
DOCKED: REMARK    7  A    between atoms: N_12  and  C_16
DOCKED: REMARK    8  A    between atoms: C_13  and  C_14
DOCKED: REMARK    9  A    between atoms: C_14  and  O_15
DOCKED: REMARK   10  A    between atoms: C_16  and  C_17
DOCKED: REMARK   11  A    between atoms: C_17  and  C_18
DOCKED: REMARK                            x       y       z     vdW  Elec       q    Type
DOCKED: REMARK                         _______ _______ _______ _____ _____    ______ ____
DOCKED: USER                              x       y       z     vdW  Elec       q    Type
DOCKED: USER                           _______ _______ _______ _____ _____    ______ ____
DOCKED: ROOT
DOCKED: ATOM      1  N   UNL     1      27.370 -14.950  -2.844 -0.25 -0.00    +0.000 N 
DOCKED: ATOM      2  H   UNL     1      28.251 -14.461  -2.688 +0.01 -0.00    +0.000 HD
DOCKED: ENDROOT
DOCKED: BRANCH   1   3
DOCKED: ATOM      3  C   UNL     1      27.574 -16.382  -2.531 -0.31 -0.00    +0.000 C 
DOCKED: BRANCH   3   7
DOCKED: ATOM      4  C   UNL     1      24.118 -17.992  -0.487 -0.68 -0.00    +0.000 A 
DOCKED: ATOM      5  C   UNL     1      23.990 -17.436  -1.770 -0.50 -0.00    +0.000 A 
DOCKED: ATOM      6  C   UNL     1      25.103 -16.906  -2.431 -0.45 -0.00    +0.000 A 
DOCKED: ATOM      7  C   UNL     1      26.366 -16.932  -1.820 -0.42 -0.00    +0.000 A 
DOCKED: ATOM      8  C   UNL     1      26.504 -17.505  -0.549 -0.52 -0.00    +0.000 A 
DOCKED: ATOM      9  C   UNL     1      25.392 -18.034   0.113 -0.50 -0.00    +0.000 A 
DOCKED: BRANCH   4  11
DOCKED: ATOM     10  C   UNL     1      21.816 -18.938  -0.504 -0.84 -0.00    +0.000 C 
DOCKED: ATOM     11  C   UNL     1      22.911 -18.554   0.169 -0.65 -0.00    +0.000 C 
DOCKED: BRANCH  10  13
DOCKED: ATOM     12  O   UNL     1      20.488 -19.358   1.395 -0.77 -0.00    +0.000 OA
DOCKED: ATOM     13  C   UNL     1      20.625 -19.514   0.152 -0.80 -0.00    +0.000 C 
DOCKED: ATOM     14  N   UNL     1      19.643 -20.267  -0.572 -0.63 -0.00    +0.000 N 
DOCKED: ATOM     15  H   UNL     1      19.795 -20.487  -1.519 -0.59 -0.00    +0.000 HD
DOCKED: BRANCH  14  16
DOCKED: ATOM     16  O   UNL     1      18.508 -20.676   0.042 -0.79 -0.00    +0.000 OA
DOCKED: ATOM     17  H   UNL     1      18.555 -20.461   0.988 -0.03 -0.00    +0.000 HD
DOCKED: ENDBRANCH  14  16
DOCKED: ENDBRANCH  10  13
DOCKED: ENDBRANCH   4  11
DOCKED: ENDBRANCH   3   7
DOCKED: ENDBRANCH   1   3
DOCKED: BRANCH   1  18
DOCKED: ATOM     18  C   UNL     1      27.057 -14.749  -4.279 -0.43 -0.00    +0.000 C 
DOCKED: BRANCH  18  19
DOCKED: ATOM     19  C   UNL     1      25.581 -15.028  -4.599 -0.42 -0.00    +0.000 C 
DOCKED: BRANCH  19  20
DOCKED: ATOM     20  O   UNL     1      24.758 -13.984  -4.152 -1.08 -0.00    +0.000 OA
DOCKED: ATOM     21  H   UNL     1      23.999 -13.892  -4.750 -0.58 -0.00    +0.000 HD
DOCKED: ENDBRANCH  19  20
DOCKED: ENDBRANCH  18  19
DOCKED: ENDBRANCH   1  18
DOCKED: BRANCH   1  22
DOCKED: ATOM     22  C   UNL     1      26.411 -14.308  -1.911 -0.31 -0.00    +0.000 C 
DOCKED: BRANCH  22  23
DOCKED: ATOM     23  C   UNL     1      27.051 -13.284  -0.955 -0.21 -0.00    +0.000 C 
DOCKED: BRANCH  23  24
DOCKED: ATOM     24  C   UNL     1      28.055 -13.957  -0.069 -0.17 -0.00    +0.000 A 
DOCKED: ATOM     25  C   UNL     1      27.865 -14.360   1.249 -0.25 -0.00    +0.000 A 
DOCKED: ATOM     26  N   UNL     1      29.012 -14.860   1.760 -0.05 -0.00    +0.000 N 
DOCKED: ATOM     27  C   UNL     1      29.929 -14.762   0.782 -0.12 -0.00    +0.000 A 
DOCKED: ATOM     28  C   UNL     1      29.384 -14.210  -0.349 -0.09 -0.00    +0.000 A 
DOCKED: ATOM     29  C   UNL     1      30.145 -13.978  -1.495 -0.03 -0.00    +0.000 A 
DOCKED: ATOM     30  C   UNL     1      31.503 -14.341  -1.464 -0.02 -0.00    +0.000 A 
DOCKED: ATOM     31  C   UNL     1      32.065 -14.916  -0.301 -0.03 -0.00    +0.000 A 
DOCKED: ATOM     32  C   UNL     1      31.273 -15.130   0.842 -0.09 -0.00    +0.000 A 
DOCKED: ATOM     33  H   UNL     1      29.149 -15.223   2.665 -2.01 -0.00    +0.000 HD
DOCKED: ENDBRANCH  23  24
DOCKED: ENDBRANCH  22  23
DOCKED: ENDBRANCH   1  22
DOCKED: TORSDOF 11
DOCKED: TER
DOCKED: ENDMDL
________________________________________________________________________________

DPF>                           # do this many hybrid GA-LS runs

DPF> analysis                             # perform a ranked cluster analysis


		CLUSTER ANALYSIS OF CONFORMATIONS
		_________________________________

Number of conformations = 100

RMSD cluster analysis will be performed using the ligand atoms only (33 / 33 total atoms).

Outputting structurally similar clusters, ranked in order of increasing energy.


________________________________________________________________________________

Number of distinct conformational clusters found = 15,  out of 100 runs,
Using an rmsd-tolerance of 2.0 A


	CLUSTERING HISTOGRAM
	____________________

________________________________________________________________________________
     |           |     |           |     |                                    
Clus | Lowest    | Run | Mean      | Num | Histogram                          
-ter | Binding   |     | Binding   | in  |                                    
Rank | Energy    |     | Energy    | Clus|    5    10   15   20   25   30   35
_____|___________|_____|___________|_____|____:____|____:____|____:____|____:___
   1 |    -14.29 |  50 |    -12.62 |  21 |#####################
   2 |    -12.98 |  29 |    -11.90 |  17 |#################
   3 |    -12.77 |  66 |    -11.22 |   3 |###
   4 |    -12.61 |  62 |    -11.09 |  11 |###########
   5 |    -11.79 |  60 |    -10.94 |  10 |##########
   6 |    -11.58 |   1 |    -10.27 |   7 |#######
   7 |    -11.29 |  54 |    -10.90 |   6 |######
   8 |    -11.28 |  90 |     -9.98 |   5 |#####
   9 |    -11.26 |  79 |    -10.47 |   7 |#######
  10 |    -10.93 |  92 |    -10.49 |   5 |#####
  11 |    -10.79 |  41 |    -10.79 |   1 |#
  12 |    -10.63 |  57 |    -10.30 |   2 |##
  13 |    -10.26 |  83 |     -9.80 |   2 |##
  14 |    -10.16 |  46 |     -9.90 |   2 |##
  15 |     -8.77 |   5 |     -8.77 |   1 |#
_____|___________|_____|___________|_____|______________________________________


Number of multi-member conformational clusters found = 13, out of 100 runs.

	RMSD TABLE
	__________

_____________________________________________________________________
     |      |      |           |         |                 |
Rank | Sub- | Run  | Binding   | Cluster | Reference       | Grep
     | Rank |      | Energy    | RMSD    | RMSD            | Pattern
_____|______|______|___________|_________|_________________|___________
   1      1     50      -14.29      0.00     26.67           RANKING
   1      2     86      -14.05      0.75     27.00           RANKING
   1      3     67      -13.80      1.66     26.53           RANKING
   1      4     26      -13.60      0.67     26.72           RANKING
   1      5     87      -13.57      1.57     26.42           RANKING
   1      6     15      -13.53      1.75     26.47           RANKING
   1      7      4      -13.41      0.88     26.78           RANKING
   1      8     55      -13.35      1.29     26.67           RANKING
   1      9     22      -13.21      0.91     26.69           RANKING
   1     10     20      -13.06      0.84     26.86           RANKING
   1     11     78      -12.93      1.78     26.39           RANKING
   1     12      7      -12.92      1.01     26.57           RANKING
   1     13     11      -12.30      1.60     26.78           RANKING
   1     14     77      -11.94      0.84     26.60           RANKING
   1     15     52      -11.94      1.14     26.64           RANKING
   1     16     69      -11.85      1.53     27.02           RANKING
   1     17     74      -11.84      1.81     27.43           RANKING
   1     18     32      -11.29      1.37     26.77           RANKING
   1     19     64      -10.91      1.75     27.42           RANKING
   1     20     34      -10.69      1.91     25.79           RANKING
   1     21      2      -10.53      1.63     27.70           RANKING
   2      1     29      -12.98      0.00     27.52           RANKING
   2      2     84      -12.78      1.97     26.11           RANKING
   2      3      8      -12.72      1.16     28.16           RANKING
   2      4     28      -12.46      0.52     27.66           RANKING
   2      5     75      -12.45      0.72     27.39           RANKING
   2      6     88      -12.45      1.41     26.76           RANKING
   2      7     63      -12.33      0.81     27.87           RANKING
   2      8     12      -12.03      1.16     28.04           RANKING
   2      9     21      -12.02      1.91     26.30           RANKING
   2     10     99      -12.01      1.96     27.05           RANKING
   2     11     95      -11.86      1.23     27.12           RANKING
   2     12     23      -11.67      1.63     27.28           RANKING
   2     13      3      -11.25      1.63     27.14           RANKING
   2     14     82      -11.22      1.59     27.14           RANKING
   2     15      9      -10.88      1.69     28.04           RANKING
   2     16     16      -10.81      1.80     27.04           RANKING
   2     17     37      -10.40      1.95     27.06           RANKING
   3      1     66      -12.77      0.00     25.94           RANKING
   3      2     53      -11.31      1.79     26.02           RANKING
   3      3     91       -9.58      1.80     26.89           RANKING
   4      1     62      -12.61      0.00     26.18           RANKING
   4      2     43      -11.54      1.31     26.56           RANKING
   4      3     59      -11.47      1.02     26.43           RANKING
   4      4    100      -11.33      1.89     26.79           RANKING
   4      5     19      -11.26      1.42     26.05           RANKING
   4      6     93      -11.21      1.51     26.93           RANKING
   4      7     27      -11.10      1.99     26.79           RANKING
   4      8     47      -10.69      1.65     25.96           RANKING
   4      9     25      -10.67      1.78     27.17           RANKING
   4     10     71      -10.12      1.96     26.60           RANKING
   4     11     14      -10.06      1.80     27.08           RANKING
   5      1     60      -11.79      0.00     25.84           RANKING
   5      2     39      -11.69      1.17     26.36           RANKING
   5      3     68      -11.52      1.28     25.40           RANKING
   5      4     24      -11.41      1.30     26.39           RANKING
   5      5     40      -11.26      1.23     26.03           RANKING
   5      6     49      -11.15      1.31     25.73           RANKING
   5      7     38      -10.44      1.93     26.52           RANKING
   5      8     17      -10.40      1.63     26.55           RANKING
   5      9     98      -10.19      1.67     26.29           RANKING
   5     10     81       -9.57      1.85     27.14           RANKING
   6      1      1      -11.58      0.00     26.75           RANKING
   6      2     56      -10.86      1.78     27.36           RANKING
   6      3     35      -10.82      1.97     26.86           RANKING
   6      4     48       -9.93      1.85     26.73           RANKING
   6      5     51       -9.78      1.94     27.09           RANKING
   6      6     58       -9.53      1.71     27.59           RANKING
   6      7     70       -9.40      1.60     26.95           RANKING
   7      1     54      -11.29      0.00     28.78           RANKING
   7      2     80      -11.13      1.27     28.92           RANKING
   7      3     30      -11.08      1.01     29.01           RANKING
   7      4     45      -10.93      1.46     28.33           RANKING
   7      5     89      -10.53      1.66     29.31           RANKING
   7      6     97      -10.47      1.68     28.87           RANKING
   8      1     90      -11.28      0.00     26.84           RANKING
   8      2     18       -9.91      1.09     26.89           RANKING
   8      3     94       -9.89      1.59     26.35           RANKING
   8      4     85       -9.40      1.78     26.77           RANKING
   8      5     76       -9.40      1.97     27.65           RANKING
   9      1     79      -11.26      0.00     27.12           RANKING
   9      2     44      -10.76      1.63     27.27           RANKING
   9      3     72      -10.75      1.36     27.44           RANKING
   9      4     10      -10.47      1.84     26.33           RANKING
   9      5     61      -10.11      1.66     27.58           RANKING
   9      6     36      -10.07      1.42     27.21           RANKING
   9      7     42       -9.89      0.93     26.99           RANKING
  10      1     92      -10.93      0.00     28.86           RANKING
  10      2     73      -10.88      1.60     29.49           RANKING
  10      3      6      -10.53      1.38     28.80           RANKING
  10      4     96      -10.18      1.28     29.24           RANKING
  10      5     33       -9.93      1.61     28.54           RANKING
  11      1     41      -10.79      0.00     26.33           RANKING
  12      1     57      -10.63      0.00     26.48           RANKING
  12      2     31       -9.96      1.48     26.09           RANKING
  13      1     83      -10.26      0.00     27.28           RANKING
  13      2     13       -9.34      1.13     27.55           RANKING
  14      1     46      -10.16      0.00     29.26           RANKING
  14      2     65       -9.65      1.04     29.10           RANKING
  15      1      5       -8.77      0.00     29.99           RANKING
_______________________________________________________________________



	INFORMATION ENTROPY ANALYSIS FOR THIS CLUSTERING
	________________________________________________


Information entropy for this clustering = 0.52  (rmstol = 2.00 Angstrom)

_______________________________________________________________________


	STATISTICAL MECHANICAL ANALYSIS
	_______________________________


Partition function, Q =   101.92            at Temperature, T = 298.15 K
Free energy,        A ~ -2739.73 kcal/mol   at Temperature, T = 298.15 K
Internal energy,    U =   -11.25 kcal/mol   at Temperature, T = 298.15 K
Entropy,            S =     9.15 kcal/mol/K at Temperature, T = 298.15 K

_______________________________________________________________________


	LOWEST ENERGY DOCKED CONFORMATION from EACH CLUSTER
	___________________________________________________



Keeping original residue number (specified in the input PDBQ file) for outputting.

MODEL       50
USER    Run = 50
USER    Cluster Rank = 1
USER    Number of conformations in this cluster = 21
USER  
USER    RMSD from reference structure       = 26.670 A
USER  
USER    Estimated Free Energy of Binding    =  -14.29 kcal/mol  [=(1)+(2)+(3)-(4)]
USER    Estimated Inhibition Constant, Ki   =   33.26 pM (picomolar)  [Temperature = 298.15 K]
USER    
USER    (1) Final Intermolecular Energy     =  -17.58 kcal/mol
USER        vdW + Hbond + desolv Energy     =  -17.58 kcal/mol
USER        Electrostatic Energy            =   +0.00 kcal/mol
USER    (2) Final Total Internal Energy     =   -3.11 kcal/mol
USER    (3) Torsional Free Energy           =   +3.28 kcal/mol
USER    (4) Unbound System's Energy  [=(2)] =   -3.11 kcal/mol
USER    
USER    
USER  
USER    DPF = ligand_dock.biased.dpf
USER    NEWDPF move	ligand.pdbqt
USER    NEWDPF about	0.459000 0.118000 0.005000
USER    NEWDPF tran0	28.964807 -16.164087 0.823392
USER    NEWDPF axisangle0	0.895159 -0.398516 0.199687 165.221632
USER    NEWDPF quaternion0	0.887725 -0.395206 0.198029 0.128608
USER    NEWDPF dihe0	2.05 -3.64 118.53 34.31 97.98 164.44 153.50 -104.88 175.20 15.46 114.52 
USER  
USER                              x       y       z    vdW   Elec        q     RMS 
ATOM      1  N   UNL     1      29.201 -14.669   1.051 -0.17 -0.00    +0.000    26.670
ATOM      2  H   UNL     1      29.113 -15.244   1.889 -1.59 -0.00    +0.000    26.670
ATOM      3  C   UNL     1      29.172 -15.564  -0.127 -0.20 -0.00    +0.000    26.670
ATOM      4  C   UNL     1      25.077 -16.590  -1.075 -0.53 -0.00    +0.000    26.670
ATOM      5  C   UNL     1      25.861 -17.448  -0.286 -0.53 -0.00    +0.000    26.670
ATOM      6  C   UNL     1      27.188 -17.124   0.015 -0.37 -0.00    +0.000    26.670
ATOM      7  C   UNL     1      27.750 -15.931  -0.461 -0.30 -0.00    +0.000    26.670
ATOM      8  C   UNL     1      26.966 -15.061  -1.231 -0.28 -0.00    +0.000    26.670
ATOM      9  C   UNL     1      25.641 -15.383  -1.534 -0.38 -0.00    +0.000    26.670
ATOM     10  C   UNL     1      23.063 -18.026  -0.796 -0.81 -0.00    +0.000    26.670
ATOM     11  C   UNL     1      23.671 -16.970  -1.358 -0.56 -0.00    +0.000    26.670
ATOM     12  O   UNL     1      20.752 -17.581  -0.728 -2.13 -0.00    +0.000    26.670
ATOM     13  C   UNL     1      21.658 -18.388  -1.067 -0.76 -0.00    +0.000    26.670
ATOM     14  N   UNL     1      21.294 -19.637  -1.670 -0.59 -0.00    +0.000    26.670
ATOM     15  H   UNL     1      21.983 -20.319  -1.838 -0.44 -0.00    +0.000    26.670
ATOM     16  O   UNL     1      20.005 -19.881  -2.008 -1.84 -0.00    +0.000    26.670
ATOM     17  H   UNL     1      19.464 -19.101  -1.808 -0.34 -0.00    +0.000    26.670
ATOM     18  C   UNL     1      30.510 -13.985   1.180 -0.10 -0.00    +0.000    26.670
ATOM     19  C   UNL     1      31.087 -14.093   2.600 -0.15 -0.00    +0.000    26.670
ATOM     20  O   UNL     1      30.754 -15.321   3.191 -0.30 -0.00    +0.000    26.670
ATOM     21  H   UNL     1      29.792 -15.373   3.306 -1.29 -0.00    +0.000    26.670
ATOM     22  C   UNL     1      28.028 -13.762   1.090 -0.24 -0.00    +0.000    26.670
ATOM     23  C   UNL     1      27.001 -14.105   2.187 +0.04 -0.00    +0.000    26.670
ATOM     24  C   UNL     1      27.595 -13.875   3.544 -0.41 -0.00    +0.000    26.670
ATOM     25  C   UNL     1      27.878 -14.843   4.503 -0.55 -0.00    +0.000    26.670
ATOM     26  N   UNL     1      28.333 -14.264   5.637 -0.44 -0.00    +0.000    26.670
ATOM     27  C   UNL     1      28.326 -12.940   5.407 -0.40 -0.00    +0.000    26.670
ATOM     28  C   UNL     1      27.876 -12.662   4.142 -0.33 -0.00    +0.000    26.670
ATOM     29  C   UNL     1      27.751 -11.354   3.676 -0.27 +0.00    +0.000    26.670
ATOM     30  C   UNL     1      28.114 -10.311   4.547 -0.27 +0.00    +0.000    26.670
ATOM     31  C   UNL     1      28.584 -10.595   5.849 -0.29 +0.00    +0.000    26.670
ATOM     32  C   UNL     1      28.691 -11.926   6.293 -0.34 +0.00    +0.000    26.670
ATOM     33  H   UNL     1      28.613 -14.720   6.463 -0.41 -0.00    +0.000    26.670
TER
ENDMDL
MODEL       29
USER    Run = 29
USER    Cluster Rank = 2
USER    Number of conformations in this cluster = 17
USER  
USER    RMSD from reference structure       = 27.517 A
USER  
USER    Estimated Free Energy of Binding    =  -12.98 kcal/mol  [=(1)+(2)+(3)-(4)]
USER    Estimated Inhibition Constant, Ki   =  308.07 pM (picomolar)  [Temperature = 298.15 K]
USER    
USER    (1) Final Intermolecular Energy     =  -16.26 kcal/mol
USER        vdW + Hbond + desolv Energy     =  -16.26 kcal/mol
USER        Electrostatic Energy            =   +0.00 kcal/mol
USER    (2) Final Total Internal Energy     =   -2.19 kcal/mol
USER    (3) Torsional Free Energy           =   +3.28 kcal/mol
USER    (4) Unbound System's Energy  [=(2)] =   -2.19 kcal/mol
USER    
USER    
USER  
USER    DPF = ligand_dock.biased.dpf
USER    NEWDPF move	ligand.pdbqt
USER    NEWDPF about	0.459000 0.118000 0.005000
USER    NEWDPF tran0	26.824102 -15.718060 -1.334489
USER    NEWDPF axisangle0	-0.469557 0.253233 -0.845807 -177.733453
USER    NEWDPF quaternion0	-0.469465 0.253183 -0.845642 -0.019778
USER    NEWDPF dihe0	6.77 -115.30 -6.79 171.25 12.35 -179.49 170.06 41.64 124.29 124.90 33.37 
USER  
USER                              x       y       z    vdW   Elec        q     RMS 
ATOM      1  N   UNL     1      27.599 -14.410  -1.509 -0.18 -0.00    +0.000    27.517
ATOM      2  H   UNL     1      26.584 -14.328  -1.453 -0.00 -0.00    +0.000    27.517
ATOM      3  C   UNL     1      27.960 -15.826  -1.281 -0.30 -0.00    +0.000    27.517
ATOM      4  C   UNL     1      24.404 -18.197  -0.605 -0.69 -0.00    +0.000    27.517
ATOM      5  C   UNL     1      24.304 -16.895  -1.122 -0.58 -0.00    +0.000    27.517
ATOM      6  C   UNL     1      25.450 -16.122  -1.333 -0.48 -0.00    +0.000    27.517
ATOM      7  C   UNL     1      26.719 -16.643  -1.039 -0.43 -0.00    +0.000    27.517
ATOM      8  C   UNL     1      26.827 -17.949  -0.543 -0.47 -0.00    +0.000    27.517
ATOM      9  C   UNL     1      25.682 -18.723  -0.330 -0.41 -0.00    +0.000    27.517
ATOM     10  C   UNL     1      22.021 -18.740  -1.073 -0.82 -0.00    +0.000    27.517
ATOM     11  C   UNL     1      23.162 -18.983  -0.410 -0.75 -0.00    +0.000    27.517
ATOM     12  O   UNL     1      20.009 -19.671  -1.866 -1.82 -0.00    +0.000    27.517
ATOM     13  C   UNL     1      20.793 -19.537  -0.888 -0.86 -0.00    +0.000    27.517
ATOM     14  N   UNL     1      20.450 -20.132   0.371 -0.69 -0.00    +0.000    27.517
ATOM     15  H   UNL     1      20.997 -19.944   1.167 -0.51 -0.00    +0.000    27.517
ATOM     16  O   UNL     1      19.377 -20.952   0.468 -0.76 -0.00    +0.000    27.517
ATOM     17  H   UNL     1      19.014 -21.118  -0.417 -0.36 -0.00    +0.000    27.517
ATOM     18  C   UNL     1      28.124 -13.536  -0.432 -0.15 -0.00    +0.000    27.517
ATOM     19  C   UNL     1      29.028 -14.299   0.548 -0.17 -0.00    +0.000    27.517
ATOM     20  O   UNL     1      28.290 -14.812   1.626 -0.29 -0.00    +0.000    27.517
ATOM     21  H   UNL     1      28.893 -15.234   2.258 -1.87 -0.00    +0.000    27.517
ATOM     22  C   UNL     1      27.940 -13.963  -2.882 -0.18 -0.00    +0.000    27.517
ATOM     23  C   UNL     1      27.282 -14.797  -3.998 -0.38 -0.00    +0.000    27.517
ATOM     24  C   UNL     1      28.189 -14.879  -5.188 -0.35 -0.00    +0.000    27.517
ATOM     25  C   UNL     1      28.138 -14.085  -6.330 -0.26 -0.00    +0.000    27.517
ATOM     26  N   UNL     1      29.060 -14.493  -7.231 -0.34 -0.00    +0.000    27.517
ATOM     27  C   UNL     1      29.683 -15.546  -6.674 -0.29 -0.00    +0.000    27.517
ATOM     28  C   UNL     1      29.175 -15.817  -5.429 -0.31 -0.00    +0.000    27.517
ATOM     29  C   UNL     1      29.639 -16.884  -4.660 -0.25 -0.00    +0.000    27.517
ATOM     30  C   UNL     1      30.665 -17.681  -5.198 -0.26 -0.00    +0.000    27.517
ATOM     31  C   UNL     1      31.194 -17.400  -6.478 -0.24 -0.00    +0.000    27.517
ATOM     32  C   UNL     1      30.699 -16.321  -7.233 -0.28 -0.00    +0.000    27.517
ATOM     33  H   UNL     1      29.240 -14.099  -8.115 -0.49 -0.00    +0.000    27.517
TER
ENDMDL
MODEL       66
USER    Run = 66
USER    Cluster Rank = 3
USER    Number of conformations in this cluster = 3
USER  
USER    RMSD from reference structure       = 25.938 A
USER  
USER    Estimated Free Energy of Binding    =  -12.77 kcal/mol  [=(1)+(2)+(3)-(4)]
USER    Estimated Inhibition Constant, Ki   =  437.07 pM (picomolar)  [Temperature = 298.15 K]
USER    
USER    (1) Final Intermolecular Energy     =  -16.05 kcal/mol
USER        vdW + Hbond + desolv Energy     =  -16.05 kcal/mol
USER        Electrostatic Energy            =   +0.00 kcal/mol
USER    (2) Final Total Internal Energy     =   -2.64 kcal/mol
USER    (3) Torsional Free Energy           =   +3.28 kcal/mol
USER    (4) Unbound System's Energy  [=(2)] =   -2.64 kcal/mol
USER    
USER    
USER  
USER    DPF = ligand_dock.biased.dpf
USER    NEWDPF move	ligand.pdbqt
USER    NEWDPF about	0.459000 0.118000 0.005000
USER    NEWDPF tran0	28.570906 -16.125008 0.443580
USER    NEWDPF axisangle0	0.672359 -0.627323 0.392937 165.254186
USER    NEWDPF quaternion0	0.666799 -0.622136 0.389689 0.128327
USER    NEWDPF dihe0	12.74 74.97 113.36 -0.12 78.22 -176.19 -18.69 62.22 -142.55 -9.01 69.40 
USER  
USER                              x       y       z    vdW   Elec        q     RMS 
ATOM      1  N   UNL     1      29.541 -15.034   0.903 -0.14 -0.00    +0.000    25.938
ATOM      2  H   UNL     1      28.853 -15.343   1.590 -1.23 -0.00    +0.000    25.938
ATOM      3  C   UNL     1      29.399 -15.878  -0.304 -0.20 -0.00    +0.000    25.938
ATOM      4  C   UNL     1      25.227 -16.846  -0.919 -0.54 -0.00    +0.000    25.938
ATOM      5  C   UNL     1      26.174 -17.866  -0.727 -0.55 -0.00    +0.000    25.938
ATOM      6  C   UNL     1      27.524 -17.558  -0.536 -0.36 -0.00    +0.000    25.938
ATOM      7  C   UNL     1      27.950 -16.221  -0.526 -0.30 -0.00    +0.000    25.938
ATOM      8  C   UNL     1      27.008 -15.198  -0.697 -0.29 -0.00    +0.000    25.938
ATOM      9  C   UNL     1      25.657 -15.504  -0.888 -0.36 -0.00    +0.000    25.938
ATOM     10  C   UNL     1      23.269 -18.353  -0.623 -0.82 -0.00    +0.000    25.938
ATOM     11  C   UNL     1      23.804 -17.221  -1.104 -0.71 -0.00    +0.000    25.938
ATOM     12  O   UNL     1      21.005 -18.235   0.011 -1.52 -0.00    +0.000    25.938
ATOM     13  C   UNL     1      21.848 -18.713  -0.794 -0.85 -0.00    +0.000    25.938
ATOM     14  N   UNL     1      21.405 -19.609  -1.822 -0.49 -0.00    +0.000    25.938
ATOM     15  H   UNL     1      22.065 -20.072  -2.386 -0.59 -0.00    +0.000    25.938
ATOM     16  O   UNL     1      20.082 -19.821  -2.019 -1.86 -0.00    +0.000    25.938
ATOM     17  H   UNL     1      19.571 -19.153  -1.534 -0.22 -0.00    +0.000    25.938
ATOM     18  C   UNL     1      30.860 -15.232   1.551 -0.11 -0.00    +0.000    25.938
ATOM     19  C   UNL     1      30.899 -14.663   2.978 -0.22 -0.00    +0.000    25.938
ATOM     20  O   UNL     1      29.628 -14.694   3.572 -0.36 -0.00    +0.000    25.938
ATOM     21  H   UNL     1      29.042 -15.265   3.051 -1.86 -0.00    +0.000    25.938
ATOM     22  C   UNL     1      29.196 -13.617   0.634 -0.13 -0.00    +0.000    25.938
ATOM     23  C   UNL     1      28.632 -12.862   1.854 -0.17 -0.00    +0.000    25.938
ATOM     24  C   UNL     1      27.315 -12.233   1.512 -0.23 -0.00    +0.000    25.938
ATOM     25  C   UNL     1      26.097 -12.887   1.355 -0.28 -0.00    +0.000    25.938
ATOM     26  N   UNL     1      25.139 -12.014   0.970 -0.28 +0.00    +0.000    25.938
ATOM     27  C   UNL     1      25.745 -10.819   0.869 -0.32 +0.00    +0.000    25.938
ATOM     28  C   UNL     1      27.075 -10.912   1.186 -0.22 +0.00    +0.000    25.938
ATOM     29  C   UNL     1      27.926  -9.809   1.128 -0.12 +0.00    +0.000    25.938
ATOM     30  C   UNL     1      27.372  -8.575   0.741 -0.14 +0.00    +0.000    25.938
ATOM     31  C   UNL     1      25.999  -8.475   0.419 -0.22 +0.00    +0.000    25.938
ATOM     32  C   UNL     1      25.169  -9.609   0.479 -0.30 +0.00    +0.000    25.938
ATOM     33  H   UNL     1      24.190 -12.214   0.799 -0.04 +0.00    +0.000    25.938
TER
ENDMDL
MODEL       62
USER    Run = 62
USER    Cluster Rank = 4
USER    Number of conformations in this cluster = 11
USER  
USER    RMSD from reference structure       = 26.183 A
USER  
USER    Estimated Free Energy of Binding    =  -12.61 kcal/mol  [=(1)+(2)+(3)-(4)]
USER    Estimated Inhibition Constant, Ki   =  568.69 pM (picomolar)  [Temperature = 298.15 K]
USER    
USER    (1) Final Intermolecular Energy     =  -15.89 kcal/mol
USER        vdW + Hbond + desolv Energy     =  -15.89 kcal/mol
USER        Electrostatic Energy            =   +0.00 kcal/mol
USER    (2) Final Total Internal Energy     =   -2.10 kcal/mol
USER    (3) Torsional Free Energy           =   +3.28 kcal/mol
USER    (4) Unbound System's Energy  [=(2)] =   -2.10 kcal/mol
USER    
USER    
USER  
USER    DPF = ligand_dock.biased.dpf
USER    NEWDPF move	ligand.pdbqt
USER    NEWDPF about	0.459000 0.118000 0.005000
USER    NEWDPF tran0	28.586429 -14.974117 -1.898545
USER    NEWDPF axisangle0	0.898025 0.168558 -0.406373 -125.317186
USER    NEWDPF quaternion0	0.797703 0.149727 -0.360975 -0.459292
USER    NEWDPF dihe0	-0.16 -154.07 -157.83 108.89 36.40 -67.73 -55.07 72.53 -177.19 1.98 -153.73 
USER  
USER                              x       y       z    vdW   Elec        q     RMS 
ATOM      1  N   UNL     1      27.243 -14.248  -2.005 -0.21 -0.00    +0.000    26.183
ATOM      2  H   UNL     1      28.077 -13.667  -2.093 +0.00 -0.00    +0.000    26.183
ATOM      3  C   UNL     1      27.673 -15.660  -1.910 -0.30 -0.00    +0.000    26.183
ATOM      4  C   UNL     1      24.258 -18.162  -1.013 -0.69 -0.00    +0.000    26.183
ATOM      5  C   UNL     1      25.250 -17.937  -0.044 -0.56 -0.00    +0.000    26.183
ATOM      6  C   UNL     1      26.359 -17.137  -0.332 -0.50 -0.00    +0.000    26.183
ATOM      7  C   UNL     1      26.491 -16.539  -1.595 -0.43 -0.00    +0.000    26.183
ATOM      8  C   UNL     1      25.495 -16.743  -2.559 -0.45 -0.00    +0.000    26.183
ATOM      9  C   UNL     1      24.386 -17.543  -2.272 -0.20 -0.00    +0.000    26.183
ATOM     10  C   UNL     1      21.825 -18.680  -0.946 -0.83 -0.00    +0.000    26.183
ATOM     11  C   UNL     1      23.093 -19.008  -0.656 -0.80 -0.00    +0.000    26.183
ATOM     12  O   UNL     1      19.881 -19.875  -1.526 -1.68 -0.00    +0.000    26.183
ATOM     13  C   UNL     1      20.671 -19.535  -0.605 -0.88 -0.00    +0.000    26.183
ATOM     14  N   UNL     1      20.405 -19.959   0.739 -0.66 -0.00    +0.000    26.183
ATOM     15  H   UNL     1      20.951 -19.610   1.479 -0.43 -0.00    +0.000    26.183
ATOM     16  O   UNL     1      19.405 -20.837   0.992 -0.72 -0.00    +0.000    26.183
ATOM     17  H   UNL     1      18.967 -21.078   0.160 -0.13 -0.00    +0.000    26.183
ATOM     18  C   UNL     1      26.461 -14.002  -3.240 -0.36 -0.00    +0.000    26.183
ATOM     19  C   UNL     1      27.230 -14.403  -4.508 -0.39 -0.00    +0.000    26.183
ATOM     20  O   UNL     1      26.569 -15.428  -5.200 -1.10 +0.00    +0.000    26.183
ATOM     21  H   UNL     1      26.692 -15.304  -6.155 -0.06 +0.00    +0.000    26.183
ATOM     22  C   UNL     1      26.587 -13.781  -0.759 -0.27 -0.00    +0.000    26.183
ATOM     23  C   UNL     1      27.347 -12.656  -0.029 -0.20 -0.00    +0.000    26.183
ATOM     24  C   UNL     1      27.814 -13.131   1.313 -0.20 -0.00    +0.000    26.183
ATOM     25  C   UNL     1      28.295 -14.399   1.626 -0.22 -0.00    +0.000    26.183
ATOM     26  N   UNL     1      28.548 -14.494   2.951 -0.31 -0.00    +0.000    26.183
ATOM     27  C   UNL     1      28.218 -13.303   3.479 -0.31 -0.00    +0.000    26.183
ATOM     28  C   UNL     1      27.759 -12.446   2.512 -0.23 -0.00    +0.000    26.183
ATOM     29  C   UNL     1      27.327 -11.156   2.816 -0.26 +0.00    +0.000    26.183
ATOM     30  C   UNL     1      27.384 -10.746   4.160 -0.27 +0.00    +0.000    26.183
ATOM     31  C   UNL     1      27.862 -11.626   5.158 -0.35 +0.00    +0.000    26.183
ATOM     32  C   UNL     1      28.283 -12.925   4.820 -0.37 -0.00    +0.000    26.183
ATOM     33  H   UNL     1      28.903 -15.277   3.431 -1.51 -0.00    +0.000    26.183
TER
ENDMDL
MODEL       60
USER    Run = 60
USER    Cluster Rank = 5
USER    Number of conformations in this cluster = 10
USER  
USER    RMSD from reference structure       = 25.844 A
USER  
USER    Estimated Free Energy of Binding    =  -11.79 kcal/mol  [=(1)+(2)+(3)-(4)]
USER    Estimated Inhibition Constant, Ki   =    2.27 nM (nanomolar)  [Temperature = 298.15 K]
USER    
USER    (1) Final Intermolecular Energy     =  -15.07 kcal/mol
USER        vdW + Hbond + desolv Energy     =  -15.07 kcal/mol
USER        Electrostatic Energy            =   +0.00 kcal/mol
USER    (2) Final Total Internal Energy     =   -2.24 kcal/mol
USER    (3) Torsional Free Energy           =   +3.28 kcal/mol
USER    (4) Unbound System's Energy  [=(2)] =   -2.24 kcal/mol
USER    
USER    
USER  
USER    DPF = ligand_dock.biased.dpf
USER    NEWDPF move	ligand.pdbqt
USER    NEWDPF about	0.459000 0.118000 0.005000
USER    NEWDPF tran0	26.445479 -15.691698 -2.175886
USER    NEWDPF axisangle0	-0.157482 0.607623 -0.778456 -179.848518
USER    NEWDPF quaternion0	-0.157482 0.607623 -0.778455 -0.001322
USER    NEWDPF dihe0	0.33 7.65 -39.38 -24.07 -40.38 48.54 179.78 -127.30 117.10 -5.15 -22.37 
USER  
USER                              x       y       z    vdW   Elec        q     RMS 
ATOM      1  N   UNL     1      27.558 -15.205  -1.244 -0.23 -0.00    +0.000    25.844
ATOM      2  H   UNL     1      26.774 -14.567  -1.381 -0.00 -0.00    +0.000    25.844
ATOM      3  C   UNL     1      27.253 -16.468  -1.952 -0.38 -0.00    +0.000    25.844
ATOM      4  C   UNL     1      23.488 -18.060  -0.533 -0.71 -0.00    +0.000    25.844
ATOM      5  C   UNL     1      24.682 -18.772  -0.334 -0.34 -0.00    +0.000    25.844
ATOM      6  C   UNL     1      25.900 -18.265  -0.798 -0.51 -0.00    +0.000    25.844
ATOM      7  C   UNL     1      25.945 -17.031  -1.464 -0.51 -0.00    +0.000    25.844
ATOM      8  C   UNL     1      24.760 -16.306  -1.648 -0.49 -0.00    +0.000    25.844
ATOM      9  C   UNL     1      23.542 -16.812  -1.185 -0.42 -0.00    +0.000    25.844
ATOM     10  C   UNL     1      21.258 -19.132  -0.797 -0.87 -0.00    +0.000    25.844
ATOM     11  C   UNL     1      22.223 -18.631  -0.011 -0.79 -0.00    +0.000    25.844
ATOM     12  O   UNL     1      19.005 -19.776  -1.030 -1.00 -0.00    +0.000    25.844
ATOM     13  C   UNL     1      20.009 -19.716  -0.271 -0.87 -0.00    +0.000    25.844
ATOM     14  N   UNL     1      19.894 -20.186   1.079 -0.69 -0.00    +0.000    25.844
ATOM     15  H   UNL     1      20.635 -20.045   1.711 -0.48 -0.00    +0.000    25.844
ATOM     16  O   UNL     1      18.770 -20.821   1.487 -0.74 -0.00    +0.000    25.844
ATOM     17  H   UNL     1      18.145 -20.883   0.747 -0.04 -0.00    +0.000    25.844
ATOM     18  C   UNL     1      27.645 -15.412   0.221 -0.31 -0.00    +0.000    25.844
ATOM     19  C   UNL     1      28.177 -14.171   0.955 -0.24 -0.00    +0.000    25.844
ATOM     20  O   UNL     1      29.311 -14.480   1.720 -0.22 -0.00    +0.000    25.844
ATOM     21  H   UNL     1      29.112 -15.229   2.304 -1.93 -0.00    +0.000    25.844
ATOM     22  C   UNL     1      28.724 -14.503  -1.835 -0.13 -0.00    +0.000    25.844
ATOM     23  C   UNL     1      28.646 -14.328  -3.364 -0.16 -0.00    +0.000    25.844
ATOM     24  C   UNL     1      27.274 -13.878  -3.766 -0.25 -0.00    +0.000    25.844
ATOM     25  C   UNL     1      26.181 -14.691  -4.047 -0.48 -0.00    +0.000    25.844
ATOM     26  N   UNL     1      25.129 -13.945  -4.453 -0.45 -0.00    +0.000    25.844
ATOM     27  C   UNL     1      25.553 -12.669  -4.443 -0.31 -0.00    +0.000    25.844
ATOM     28  C   UNL     1      26.860 -12.588  -4.036 -0.23 -0.00    +0.000    25.844
ATOM     29  C   UNL     1      27.536 -11.370  -3.970 -0.11 -0.00    +0.000    25.844
ATOM     30  C   UNL     1      26.830 -10.208  -4.329 -0.13 -0.00    +0.000    25.844
ATOM     31  C   UNL     1      25.481 -10.289  -4.743 -0.28 -0.00    +0.000    25.844
ATOM     32  C   UNL     1      24.829 -11.534  -4.807 -0.34 -0.00    +0.000    25.844
ATOM     33  H   UNL     1      24.234 -14.269  -4.703 -0.46 -0.00    +0.000    25.844
TER
ENDMDL
MODEL        1
USER    Run = 1
USER    Cluster Rank = 6
USER    Number of conformations in this cluster = 7
USER  
USER    RMSD from reference structure       = 26.748 A
USER  
USER    Estimated Free Energy of Binding    =  -11.58 kcal/mol  [=(1)+(2)+(3)-(4)]
USER    Estimated Inhibition Constant, Ki   =    3.26 nM (nanomolar)  [Temperature = 298.15 K]
USER    
USER    (1) Final Intermolecular Energy     =  -14.86 kcal/mol
USER        vdW + Hbond + desolv Energy     =  -14.86 kcal/mol
USER        Electrostatic Energy            =   +0.00 kcal/mol
USER    (2) Final Total Internal Energy     =   -2.53 kcal/mol
USER    (3) Torsional Free Energy           =   +3.28 kcal/mol
USER    (4) Unbound System's Energy  [=(2)] =   -2.53 kcal/mol
USER    
USER    
USER  
USER    DPF = ligand_dock.biased.dpf
USER    NEWDPF move	ligand.pdbqt
USER    NEWDPF about	0.459000 0.118000 0.005000
USER    NEWDPF tran0	29.475640 -15.029978 -0.217169
USER    NEWDPF axisangle0	-0.688810 0.398365 -0.605677 78.887924
USER    NEWDPF quaternion0	-0.437617 0.253091 -0.384801 0.772246
USER    NEWDPF dihe0	-1.96 -59.25 152.29 -179.87 82.08 27.59 -124.96 51.47 -170.71 34.46 149.65 
USER  
USER                              x       y       z    vdW   Elec        q     RMS 
ATOM      1  N   UNL     1      29.938 -15.776  -1.471 -0.12 -0.00    +0.000    26.748
ATOM      2  H   UNL     1      30.231 -14.802  -1.393 +0.00 -0.00    +0.000    26.748
ATOM      3  C   UNL     1      29.231 -16.146  -0.225 -0.19 -0.00    +0.000    26.748
ATOM      4  C   UNL     1      25.106 -17.102  -1.115 -0.58 -0.00    +0.000    26.748
ATOM      5  C   UNL     1      25.532 -15.765  -1.070 -0.42 -0.00    +0.000    26.748
ATOM      6  C   UNL     1      26.863 -15.451  -0.775 -0.32 -0.00    +0.000    26.748
ATOM      7  C   UNL     1      27.792 -16.473  -0.526 -0.33 -0.00    +0.000    26.748
ATOM      8  C   UNL     1      27.377 -17.810  -0.590 -0.38 -0.00    +0.000    26.748
ATOM      9  C   UNL     1      26.047 -18.125  -0.885 -0.47 -0.00    +0.000    26.748
ATOM     10  C   UNL     1      22.908 -18.200  -0.718 -0.83 -0.00    +0.000    26.748
ATOM     11  C   UNL     1      23.688 -17.386  -1.446 -0.67 -0.00    +0.000    26.748
ATOM     12  O   UNL     1      20.629 -17.607  -0.714 -2.16 +0.00    +0.000    26.748
ATOM     13  C   UNL     1      21.492 -18.464  -1.042 -0.77 -0.00    +0.000    26.748
ATOM     14  N   UNL     1      21.068 -19.674  -1.685 -0.68 -0.00    +0.000    26.748
ATOM     15  H   UNL     1      21.717 -20.396  -1.846 -0.43 -0.00    +0.000    26.748
ATOM     16  O   UNL     1      19.778 -19.827  -2.069 -1.77 -0.00    +0.000    26.748
ATOM     17  H   UNL     1      19.268 -19.043  -1.811 -0.48 -0.00    +0.000    26.748
ATOM     18  C   UNL     1      31.191 -16.552  -1.633 -0.10 -0.00    +0.000    26.748
ATOM     19  C   UNL     1      31.248 -17.770  -0.698 -0.17 -0.00    +0.000    26.748
ATOM     20  O   UNL     1      30.293 -18.732  -1.060 -0.28 -0.00    +0.000    26.748
ATOM     21  H   UNL     1      29.684 -18.878  -0.318 -0.60 -0.00    +0.000    26.748
ATOM     22  C   UNL     1      29.040 -15.808  -2.651 -0.21 -0.00    +0.000    26.748
ATOM     23  C   UNL     1      28.953 -14.472  -3.414 -0.15 -0.00    +0.000    26.748
ATOM     24  C   UNL     1      27.531 -14.177  -3.784 -0.24 -0.00    +0.000    26.748
ATOM     25  C   UNL     1      26.542 -15.106  -4.091 -0.47 -0.00    +0.000    26.748
ATOM     26  N   UNL     1      25.401 -14.478  -4.455 -0.51 -0.00    +0.000    26.748
ATOM     27  C   UNL     1      25.665 -13.161  -4.393 -0.33 -0.00    +0.000    26.748
ATOM     28  C   UNL     1      26.958 -12.937  -3.993 -0.23 -0.00    +0.000    26.748
ATOM     29  C   UNL     1      27.481 -11.650  -3.881 -0.12 -0.00    +0.000    26.748
ATOM     30  C   UNL     1      26.633 -10.569  -4.182 -0.16 -0.00    +0.000    26.748
ATOM     31  C   UNL     1      25.298 -10.798  -4.588 -0.30 -0.00    +0.000    26.748
ATOM     32  C   UNL     1      24.802 -12.109  -4.700 -0.18 -0.00    +0.000    26.748
ATOM     33  H   UNL     1      24.549 -14.899  -4.712 -0.20 +0.00    +0.000    26.748
TER
ENDMDL
MODEL       54
USER    Run = 54
USER    Cluster Rank = 7
USER    Number of conformations in this cluster = 6
USER  
USER    RMSD from reference structure       = 28.777 A
USER  
USER    Estimated Free Energy of Binding    =  -11.29 kcal/mol  [=(1)+(2)+(3)-(4)]
USER    Estimated Inhibition Constant, Ki   =    5.33 nM (nanomolar)  [Temperature = 298.15 K]
USER    
USER    (1) Final Intermolecular Energy     =  -14.57 kcal/mol
USER        vdW + Hbond + desolv Energy     =  -14.57 kcal/mol
USER        Electrostatic Energy            =   +0.00 kcal/mol
USER    (2) Final Total Internal Energy     =   -2.97 kcal/mol
USER    (3) Torsional Free Energy           =   +3.28 kcal/mol
USER    (4) Unbound System's Energy  [=(2)] =   -2.97 kcal/mol
USER    
USER    
USER  
USER    DPF = ligand_dock.biased.dpf
USER    NEWDPF move	ligand.pdbqt
USER    NEWDPF about	0.459000 0.118000 0.005000
USER    NEWDPF tran0	27.187169 -16.471755 -2.150029
USER    NEWDPF axisangle0	0.050136 -0.404599 -0.913119 152.348147
USER    NEWDPF quaternion0	0.048683 -0.392876 -0.886662 0.238973
USER    NEWDPF dihe0	-2.66 -117.54 95.31 45.11 70.41 -82.42 8.45 102.37 -77.03 -136.10 52.49 
USER  
USER                              x       y       z    vdW   Elec        q     RMS 
ATOM      1  N   UNL     1      28.566 -16.115  -2.710 -0.24 -0.00    +0.000    28.777
ATOM      2  H   UNL     1      27.913 -16.547  -3.364 -0.02 -0.00    +0.000    28.777
ATOM      3  C   UNL     1      27.858 -15.889  -1.431 -0.31 -0.00    +0.000    28.777
ATOM      4  C   UNL     1      24.298 -18.341  -1.235 -0.64 -0.00    +0.000    28.777
ATOM      5  C   UNL     1      25.377 -18.582  -0.369 -0.54 -0.00    +0.000    28.777
ATOM      6  C   UNL     1      26.533 -17.798  -0.435 -0.53 -0.00    +0.000    28.777
ATOM      7  C   UNL     1      26.625 -16.751  -1.364 -0.43 -0.00    +0.000    28.777
ATOM      8  C   UNL     1      25.543 -16.492  -2.217 -0.50 -0.00    +0.000    28.777
ATOM      9  C   UNL     1      24.388 -17.276  -2.153 -0.34 -0.00    +0.000    28.777
ATOM     10  C   UNL     1      21.870 -18.708  -0.832 -0.84 -0.00    +0.000    28.777
ATOM     11  C   UNL     1      23.088 -19.191  -1.118 -0.77 -0.00    +0.000    28.777
ATOM     12  O   UNL     1      19.969 -19.734  -1.770 -1.85 -0.00    +0.000    28.777
ATOM     13  C   UNL     1      20.666 -19.556  -0.735 -0.88 -0.00    +0.000    28.777
ATOM     14  N   UNL     1      20.249 -20.154   0.500 -0.71 -0.00    +0.000    28.777
ATOM     15  H   UNL     1      20.722 -19.934   1.334 -0.39 -0.00    +0.000    28.777
ATOM     16  O   UNL     1      19.207 -21.019   0.522 -0.76 -0.00    +0.000    28.777
ATOM     17  H   UNL     1      18.829 -21.094  -0.369 -0.33 -0.00    +0.000    28.777
ATOM     18  C   UNL     1      28.966 -14.836  -3.342 -0.17 -0.00    +0.000    28.777
ATOM     19  C   UNL     1      28.339 -14.651  -4.733 -0.31 -0.00    +0.000    28.777
ATOM     20  O   UNL     1      27.347 -15.614  -4.974 -0.88 +0.00    +0.000    28.777
ATOM     21  H   UNL     1      26.987 -15.490  -5.867 -0.07 +0.00    +0.000    28.777
ATOM     22  C   UNL     1      29.667 -17.101  -2.569 -0.23 -0.00    +0.000    28.777
ATOM     23  C   UNL     1      30.906 -16.789  -3.430 -0.15 -0.00    +0.000    28.777
ATOM     24  C   UNL     1      30.739 -17.358  -4.806 -0.22 -0.00    +0.000    28.777
ATOM     25  C   UNL     1      30.377 -16.662  -5.956 -0.28 -0.00    +0.000    28.777
ATOM     26  N   UNL     1      30.245 -17.511  -7.000 -0.30 -0.00    +0.000    28.777
ATOM     27  C   UNL     1      30.507 -18.738  -6.516 -0.36 -0.00    +0.000    28.777
ATOM     28  C   UNL     1      30.806 -18.687  -5.179 -0.28 -0.00    +0.000    28.777
ATOM     29  C   UNL     1      31.087 -19.837  -4.442 -0.20 -0.00    +0.000    28.777
ATOM     30  C   UNL     1      31.065 -21.070  -5.119 -0.28 -0.00    +0.000    28.777
ATOM     31  C   UNL     1      30.762 -21.124  -6.499 -0.34 -0.00    +0.000    28.777
ATOM     32  C   UNL     1      30.475 -19.947  -7.213 -0.41 -0.00    +0.000    28.777
ATOM     33  H   UNL     1      30.007 -17.279  -7.926 -0.04 -0.00    +0.000    28.777
TER
ENDMDL
MODEL       90
USER    Run = 90
USER    Cluster Rank = 8
USER    Number of conformations in this cluster = 5
USER  
USER    RMSD from reference structure       = 26.843 A
USER  
USER    Estimated Free Energy of Binding    =  -11.28 kcal/mol  [=(1)+(2)+(3)-(4)]
USER    Estimated Inhibition Constant, Ki   =    5.43 nM (nanomolar)  [Temperature = 298.15 K]
USER    
USER    (1) Final Intermolecular Energy     =  -14.56 kcal/mol
USER        vdW + Hbond + desolv Energy     =  -14.56 kcal/mol
USER        Electrostatic Energy            =   +0.00 kcal/mol
USER    (2) Final Total Internal Energy     =   -3.51 kcal/mol
USER    (3) Torsional Free Energy           =   +3.28 kcal/mol
USER    (4) Unbound System's Energy  [=(2)] =   -3.51 kcal/mol
USER    
USER    
USER  
USER    DPF = ligand_dock.biased.dpf
USER    NEWDPF move	ligand.pdbqt
USER    NEWDPF about	0.459000 0.118000 0.005000
USER    NEWDPF tran0	28.419315 -15.084112 -0.591914
USER    NEWDPF axisangle0	0.073807 -0.251569 0.965021 -178.760556
USER    NEWDPF quaternion0	0.073803 -0.251554 0.964965 -0.010816
USER    NEWDPF dihe0	-4.34 -19.07 171.31 143.55 113.64 -176.58 -175.87 141.79 171.97 -86.57 15.83 
USER  
USER                              x       y       z    vdW   Elec        q     RMS 
ATOM      1  N   UNL     1      29.405 -14.010  -0.128 -0.09 -0.00    +0.000    26.843
ATOM      2  H   UNL     1      28.704 -13.714  -0.807 +0.00 -0.00    +0.000    26.843
ATOM      3  C   UNL     1      29.120 -15.411   0.249 -0.16 -0.00    +0.000    26.843
ATOM      4  C   UNL     1      25.047 -16.422  -0.803 -0.46 -0.00    +0.000    26.843
ATOM      5  C   UNL     1      25.986 -17.433  -0.544 -0.55 -0.00    +0.000    26.843
ATOM      6  C   UNL     1      27.306 -17.111  -0.213 -0.39 -0.00    +0.000    26.843
ATOM      7  C   UNL     1      27.706 -15.769  -0.125 -0.29 -0.00    +0.000    26.843
ATOM      8  C   UNL     1      26.767 -14.755  -0.362 -0.29 -0.00    +0.000    26.843
ATOM      9  C   UNL     1      25.448 -15.076  -0.694 -0.13 -0.00    +0.000    26.843
ATOM     10  C   UNL     1      23.097 -17.968  -0.749 -0.81 -0.00    +0.000    26.843
ATOM     11  C   UNL     1      23.655 -16.812  -1.138 -0.56 -0.00    +0.000    26.843
ATOM     12  O   UNL     1      20.793 -17.498  -0.871 -2.07 -0.00    +0.000    26.843
ATOM     13  C   UNL     1      21.706 -18.344  -1.070 -0.75 -0.00    +0.000    26.843
ATOM     14  N   UNL     1      21.361 -19.644  -1.567 -0.60 -0.00    +0.000    26.843
ATOM     15  H   UNL     1      22.049 -20.345  -1.622 -0.35 -0.00    +0.000    26.843
ATOM     16  O   UNL     1      20.092 -19.909  -1.959 -1.83 -0.00    +0.000    26.843
ATOM     17  H   UNL     1      19.529 -19.139  -1.778 -0.29 -0.00    +0.000    26.843
ATOM     18  C   UNL     1      29.246 -13.094   1.027 -0.11 -0.00    +0.000    26.843
ATOM     19  C   UNL     1      28.351 -13.691   2.125 -0.26 -0.00    +0.000    26.843
ATOM     20  O   UNL     1      29.097 -14.479   3.014 -0.33 -0.00    +0.000    26.843
ATOM     21  H   UNL     1      29.252 -15.352   2.620 -1.97 -0.00    +0.000    26.843
ATOM     22  C   UNL     1      30.700 -13.878  -0.840 -0.03 -0.00    +0.000    26.843
ATOM     23  C   UNL     1      30.565 -13.652  -2.359 -0.03 -0.00    +0.000    26.843
ATOM     24  C   UNL     1      29.576 -14.616  -2.941 -0.09 -0.00    +0.000    26.843
ATOM     25  C   UNL     1      29.822 -15.931  -3.324 -0.16 -0.00    +0.000    26.843
ATOM     26  N   UNL     1      28.717 -16.475  -3.881 -0.21 -0.00    +0.000    26.843
ATOM     27  C   UNL     1      27.780 -15.511  -3.867 -0.30 -0.00    +0.000    26.843
ATOM     28  C   UNL     1      28.269 -14.359  -3.306 -0.16 -0.00    +0.000    26.843
ATOM     29  C   UNL     1      27.494 -13.204  -3.203 -0.17 -0.00    +0.000    26.843
ATOM     30  C   UNL     1      26.174 -13.255  -3.688 -0.30 -0.00    +0.000    26.843
ATOM     31  C   UNL     1      25.667 -14.444  -4.260 -0.46 -0.00    +0.000    26.843
ATOM     32  C   UNL     1      26.477 -15.590  -4.357 -0.43 -0.00    +0.000    26.843
ATOM     33  H   UNL     1      28.618 -17.392  -4.227 +0.04 -0.00    +0.000    26.843
TER
ENDMDL
MODEL       79
USER    Run = 79
USER    Cluster Rank = 9
USER    Number of conformations in this cluster = 7
USER  
USER    RMSD from reference structure       = 27.117 A
USER  
USER    Estimated Free Energy of Binding    =  -11.26 kcal/mol  [=(1)+(2)+(3)-(4)]
USER    Estimated Inhibition Constant, Ki   =    5.59 nM (nanomolar)  [Temperature = 298.15 K]
USER    
USER    (1) Final Intermolecular Energy     =  -14.54 kcal/mol
USER        vdW + Hbond + desolv Energy     =  -14.54 kcal/mol
USER        Electrostatic Energy            =   +0.00 kcal/mol
USER    (2) Final Total Internal Energy     =   -2.23 kcal/mol
USER    (3) Torsional Free Energy           =   +3.28 kcal/mol
USER    (4) Unbound System's Energy  [=(2)] =   -2.23 kcal/mol
USER    
USER    
USER  
USER    DPF = ligand_dock.biased.dpf
USER    NEWDPF move	ligand.pdbqt
USER    NEWDPF about	0.459000 0.118000 0.005000
USER    NEWDPF tran0	28.727433 -16.680594 -0.756868
USER    NEWDPF axisangle0	-0.561360 0.819693 -0.113920 -163.578706
USER    NEWDPF quaternion0	-0.555606 0.811291 -0.112752 -0.142813
USER    NEWDPF dihe0	-141.07 95.55 20.37 129.26 165.26 59.97 54.24 80.45 -148.86 81.28 51.60 
USER  
USER                              x       y       z    vdW   Elec        q     RMS 
ATOM      1  N   UNL     1      30.108 -16.254  -0.253 -0.17 -0.00    +0.000    27.117
ATOM      2  H   UNL     1      29.516 -16.743   0.418 -0.46 -0.00    +0.000    27.117
ATOM      3  C   UNL     1      29.411 -16.237  -1.558 -0.21 -0.00    +0.000    27.117
ATOM      4  C   UNL     1      25.198 -17.051  -1.001 -0.57 -0.00    +0.000    27.117
ATOM      5  C   UNL     1      26.150 -17.595  -0.124 -0.52 -0.00    +0.000    27.117
ATOM      6  C   UNL     1      27.513 -17.342  -0.305 -0.35 -0.00    +0.000    27.117
ATOM      7  C   UNL     1      27.947 -16.531  -1.365 -0.32 -0.00    +0.000    27.117
ATOM      8  C   UNL     1      27.000 -15.968  -2.231 -0.33 -0.00    +0.000    27.117
ATOM      9  C   UNL     1      25.637 -16.220  -2.052 -0.49 -0.00    +0.000    27.117
ATOM     10  C   UNL     1      23.083 -18.299  -1.402 -0.74 -0.00    +0.000    27.117
ATOM     11  C   UNL     1      23.762 -17.337  -0.761 -0.73 -0.00    +0.000    27.117
ATOM     12  O   UNL     1      21.030 -17.860  -0.336 -1.93 +0.00    +0.000    27.117
ATOM     13  C   UNL     1      21.659 -18.592  -1.146 -0.72 -0.00    +0.000    27.117
ATOM     14  N   UNL     1      20.983 -19.696  -1.762 -0.70 -0.00    +0.000    27.117
ATOM     15  H   UNL     1      21.490 -20.337  -2.310 -0.54 -0.00    +0.000    27.117
ATOM     16  O   UNL     1      19.649 -19.860  -1.592 -1.60 -0.00    +0.000    27.117
ATOM     17  H   UNL     1      19.449 -20.804  -1.490 -0.62 -0.00    +0.000    27.117
ATOM     18  C   UNL     1      31.362 -17.042  -0.318 -0.15 -0.00    +0.000    27.117
ATOM     19  C   UNL     1      31.235 -18.263  -1.243 -0.18 -0.00    +0.000    27.117
ATOM     20  O   UNL     1      30.290 -19.175  -0.752 -0.26 -0.00    +0.000    27.117
ATOM     21  H   UNL     1      29.568 -18.692  -0.321 -0.61 -0.00    +0.000    27.117
ATOM     22  C   UNL     1      30.269 -14.890   0.310 -0.13 -0.00    +0.000    27.117
ATOM     23  C   UNL     1      30.145 -14.822   1.844 -0.04 -0.00    +0.000    27.117
ATOM     24  C   UNL     1      28.853 -14.169   2.232 -0.20 -0.00    +0.000    27.117
ATOM     25  C   UNL     1      28.080 -14.455   3.353 -0.37 -0.00    +0.000    27.117
ATOM     26  N   UNL     1      26.941 -13.726   3.340 -0.42 -0.00    +0.000    27.117
ATOM     27  C   UNL     1      26.982 -12.994   2.214 -0.31 -0.00    +0.000    27.117
ATOM     28  C   UNL     1      28.131 -13.241   1.507 -0.19 -0.00    +0.000    27.117
ATOM     29  C   UNL     1      28.392 -12.621   0.286 -0.10 -0.00    +0.000    27.117
ATOM     30  C   UNL     1      27.436 -11.714  -0.206 -0.13 -0.00    +0.000    27.117
ATOM     31  C   UNL     1      26.254 -11.453   0.524 -0.21 +0.00    +0.000    27.117
ATOM     32  C   UNL     1      26.016 -12.101   1.750 -0.21 +0.00    +0.000    27.117
ATOM     33  H   UNL     1      26.227 -13.731   4.018 -0.04 -0.00    +0.000    27.117
TER
ENDMDL
MODEL       92
USER    Run = 92
USER    Cluster Rank = 10
USER    Number of conformations in this cluster = 5
USER  
USER    RMSD from reference structure       = 28.858 A
USER  
USER    Estimated Free Energy of Binding    =  -10.93 kcal/mol  [=(1)+(2)+(3)-(4)]
USER    Estimated Inhibition Constant, Ki   =    9.68 nM (nanomolar)  [Temperature = 298.15 K]
USER    
USER    (1) Final Intermolecular Energy     =  -14.21 kcal/mol
USER        vdW + Hbond + desolv Energy     =  -14.21 kcal/mol
USER        Electrostatic Energy            =   +0.00 kcal/mol
USER    (2) Final Total Internal Energy     =   -1.91 kcal/mol
USER    (3) Torsional Free Energy           =   +3.28 kcal/mol
USER    (4) Unbound System's Energy  [=(2)] =   -1.91 kcal/mol
USER    
USER    
USER  
USER    DPF = ligand_dock.biased.dpf
USER    NEWDPF move	ligand.pdbqt
USER    NEWDPF about	0.459000 0.118000 0.005000
USER    NEWDPF tran0	29.046359 -15.046363 -2.353847
USER    NEWDPF axisangle0	0.545590 0.200943 -0.813605 85.269519
USER    NEWDPF quaternion0	0.369541 0.136103 -0.551073 0.735686
USER    NEWDPF dihe0	17.25 -43.79 -121.06 170.74 -6.79 -94.05 91.49 94.35 -115.27 179.96 165.56 
USER  
USER                              x       y       z    vdW   Elec        q     RMS 
ATOM      1  N   UNL     1      29.577 -16.030  -1.308 -0.16 -0.00    +0.000    28.858
ATOM      2  H   UNL     1      30.209 -15.806  -2.076 +0.00 -0.00    +0.000    28.858
ATOM      3  C   UNL     1      28.365 -15.193  -1.448 -0.20 -0.00    +0.000    28.858
ATOM      4  C   UNL     1      24.801 -17.615  -1.059 -0.64 -0.00    +0.000    28.858
ATOM      5  C   UNL     1      25.632 -17.389   0.050 -0.29 -0.00    +0.000    28.858
ATOM      6  C   UNL     1      26.790 -16.614  -0.073 -0.36 -0.00    +0.000    28.858
ATOM      7  C   UNL     1      27.131 -16.044  -1.309 -0.34 -0.00    +0.000    28.858
ATOM      8  C   UNL     1      26.294 -16.248  -2.415 -0.41 -0.00    +0.000    28.858
ATOM      9  C   UNL     1      25.137 -17.023  -2.293 -0.50 -0.00    +0.000    28.858
ATOM     10  C   UNL     1      22.337 -17.920  -0.888 -0.77 -0.00    +0.000    28.858
ATOM     11  C   UNL     1      23.577 -18.432  -0.876 -0.82 -0.00    +0.000    28.858
ATOM     12  O   UNL     1      20.003 -18.217  -0.970 -1.92 -0.00    +0.000    28.858
ATOM     13  C   UNL     1      21.121 -18.742  -0.724 -0.87 -0.00    +0.000    28.858
ATOM     14  N   UNL     1      21.172 -20.099  -0.266 -0.57 -0.00    +0.000    28.858
ATOM     15  H   UNL     1      22.028 -20.484   0.032 -0.57 -0.00    +0.000    28.858
ATOM     16  O   UNL     1      20.048 -20.854  -0.241 -0.73 -0.00    +0.000    28.858
ATOM     17  H   UNL     1      19.371 -20.445  -0.803 -0.39 -0.00    +0.000    28.858
ATOM     18  C   UNL     1      30.326 -15.697  -0.073 -0.15 -0.00    +0.000    28.858
ATOM     19  C   UNL     1      29.581 -14.678   0.804 -0.16 -0.00    +0.000    28.858
ATOM     20  O   UNL     1      29.956 -14.797   2.150 -0.19 -0.00    +0.000    28.858
ATOM     21  H   UNL     1      29.247 -15.239   2.644 -2.03 -0.00    +0.000    28.858
ATOM     22  C   UNL     1      29.278 -17.473  -1.474 -0.25 -0.00    +0.000    28.858
ATOM     23  C   UNL     1      30.515 -18.388  -1.389 -0.20 -0.00    +0.000    28.858
ATOM     24  C   UNL     1      31.058 -18.654  -2.761 -0.11 -0.00    +0.000    28.858
ATOM     25  C   UNL     1      32.114 -19.499  -3.088 -0.11 -0.00    +0.000    28.858
ATOM     26  N   UNL     1      32.381 -19.432  -4.411 -0.10 -0.00    +0.000    28.858
ATOM     27  C   UNL     1      31.512 -18.541  -4.920 -0.17 -0.00    +0.000    28.858
ATOM     28  C   UNL     1      30.692 -18.040  -3.942 -0.18 -0.00    +0.000    28.858
ATOM     29  C   UNL     1      29.722 -17.076  -4.217 -0.22 -0.00    +0.000    28.858
ATOM     30  C   UNL     1      29.598 -16.632  -5.546 -0.29 -0.00    +0.000    28.858
ATOM     31  C   UNL     1      30.439 -17.152  -6.557 -0.31 -0.00    +0.000    28.858
ATOM     32  C   UNL     1      31.413 -18.118  -6.246 -0.22 -0.00    +0.000    28.858
ATOM     33  H   UNL     1      33.070 -19.934  -4.903 +0.00 -0.00    +0.000    28.858
TER
ENDMDL
MODEL       41
USER    Run = 41
USER    Cluster Rank = 11
USER    Number of conformations in this cluster = 1
USER  
USER    RMSD from reference structure       = 26.333 A
USER  
USER    Estimated Free Energy of Binding    =  -10.79 kcal/mol  [=(1)+(2)+(3)-(4)]
USER    Estimated Inhibition Constant, Ki   =   12.40 nM (nanomolar)  [Temperature = 298.15 K]
USER    
USER    (1) Final Intermolecular Energy     =  -14.07 kcal/mol
USER        vdW + Hbond + desolv Energy     =  -14.07 kcal/mol
USER        Electrostatic Energy            =   +0.00 kcal/mol
USER    (2) Final Total Internal Energy     =   -2.79 kcal/mol
USER    (3) Torsional Free Energy           =   +3.28 kcal/mol
USER    (4) Unbound System's Energy  [=(2)] =   -2.79 kcal/mol
USER    
USER    
USER  
USER    DPF = ligand_dock.biased.dpf
USER    NEWDPF move	ligand.pdbqt
USER    NEWDPF about	0.459000 0.118000 0.005000
USER    NEWDPF tran0	27.172735 -15.831573 -2.009142
USER    NEWDPF axisangle0	0.226106 -0.642421 0.732237 -178.558472
USER    NEWDPF quaternion0	0.226088 -0.642370 0.732180 -0.012579
USER    NEWDPF dihe0	7.26 115.35 -137.96 -48.30 -46.59 -146.67 7.22 -95.85 178.52 -158.33 -10.76 
USER  
USER                              x       y       z    vdW   Elec        q     RMS 
ATOM      1  N   UNL     1      28.383 -15.379  -1.188 -0.18 -0.00    +0.000    26.333
ATOM      2  H   UNL     1      27.560 -14.776  -1.148 +0.00 -0.00    +0.000    26.333
ATOM      3  C   UNL     1      28.037 -16.579  -1.982 -0.33 -0.00    +0.000    26.333
ATOM      4  C   UNL     1      24.166 -18.106  -0.798 -0.70 -0.00    +0.000    26.333
ATOM      5  C   UNL     1      24.272 -17.162  -1.832 -0.51 -0.00    +0.000    26.333
ATOM      6  C   UNL     1      25.520 -16.659  -2.212 -0.51 -0.00    +0.000    26.333
ATOM      7  C   UNL     1      26.686 -17.100  -1.568 -0.41 -0.00    +0.000    26.333
ATOM      8  C   UNL     1      26.589 -18.058  -0.550 -0.51 -0.00    +0.000    26.333
ATOM      9  C   UNL     1      25.342 -18.561  -0.168 -0.49 -0.00    +0.000    26.333
ATOM     10  C   UNL     1      21.990 -19.194  -1.321 -0.70 -0.00    +0.000    26.333
ATOM     11  C   UNL     1      22.821 -18.621  -0.439 -0.83 -0.00    +0.000    26.333
ATOM     12  O   UNL     1      19.758 -19.741  -1.833 -1.81 -0.00    +0.000    26.333
ATOM     13  C   UNL     1      20.660 -19.721  -0.954 -0.85 -0.00    +0.000    26.333
ATOM     14  N   UNL     1      20.358 -20.176   0.371 -0.70 -0.00    +0.000    26.333
ATOM     15  H   UNL     1      21.020 -20.063   1.091 -0.53 -0.00    +0.000    26.333
ATOM     16  O   UNL     1      19.165 -20.760   0.637 -0.78 -0.00    +0.000    26.333
ATOM     17  H   UNL     1      18.680 -20.899  -0.193 -0.24 -0.00    +0.000    26.333
ATOM     18  C   UNL     1      28.684 -15.729   0.220 -0.13 -0.00    +0.000    26.333
ATOM     19  C   UNL     1      29.759 -14.815   0.830 -0.15 -0.00    +0.000    26.333
ATOM     20  O   UNL     1      29.421 -14.438   2.139 -0.23 -0.00    +0.000    26.333
ATOM     21  H   UNL     1      29.254 -15.233   2.671 -2.03 -0.00    +0.000    26.333
ATOM     22  C   UNL     1      29.423 -14.554  -1.852 -0.09 -0.00    +0.000    26.333
ATOM     23  C   UNL     1      28.917 -13.189  -2.359 -0.08 -0.00    +0.000    26.333
ATOM     24  C   UNL     1      28.749 -12.239  -1.211 -0.05 -0.00    +0.000    26.333
ATOM     25  C   UNL     1      29.635 -11.238  -0.824 -0.02 -0.00    +0.000    26.333
ATOM     26  N   UNL     1      29.196 -10.629   0.301 -0.03 -0.00    +0.000    26.333
ATOM     27  C   UNL     1      28.050 -11.247   0.635 -0.10 -0.00    +0.000    26.333
ATOM     28  C   UNL     1      27.747 -12.240  -0.261 -0.12 -0.00    +0.000    26.333
ATOM     29  C   UNL     1      26.618 -13.046  -0.114 -0.21 -0.00    +0.000    26.333
ATOM     30  C   UNL     1      25.779 -12.802   0.989 -0.28 -0.00    +0.000    26.333
ATOM     31  C   UNL     1      26.086 -11.775   1.910 -0.24 +0.00    +0.000    26.333
ATOM     32  C   UNL     1      27.237 -10.985   1.738 -0.23 +0.00    +0.000    26.333
ATOM     33  H   UNL     1      29.628  -9.885   0.778 +0.00 -0.00    +0.000    26.333
TER
ENDMDL
MODEL       57
USER    Run = 57
USER    Cluster Rank = 12
USER    Number of conformations in this cluster = 2
USER  
USER    RMSD from reference structure       = 26.482 A
USER  
USER    Estimated Free Energy of Binding    =  -10.63 kcal/mol  [=(1)+(2)+(3)-(4)]
USER    Estimated Inhibition Constant, Ki   =   16.12 nM (nanomolar)  [Temperature = 298.15 K]
USER    
USER    (1) Final Intermolecular Energy     =  -13.91 kcal/mol
USER        vdW + Hbond + desolv Energy     =  -13.91 kcal/mol
USER        Electrostatic Energy            =   +0.00 kcal/mol
USER    (2) Final Total Internal Energy     =   -2.78 kcal/mol
USER    (3) Torsional Free Energy           =   +3.28 kcal/mol
USER    (4) Unbound System's Energy  [=(2)] =   -2.78 kcal/mol
USER    
USER    
USER  
USER    DPF = ligand_dock.biased.dpf
USER    NEWDPF move	ligand.pdbqt
USER    NEWDPF about	0.459000 0.118000 0.005000
USER    NEWDPF tran0	29.905363 -16.510390 -1.459233
USER    NEWDPF axisangle0	-0.876885 -0.039650 0.479063 162.601025
USER    NEWDPF quaternion0	-0.866796 -0.039194 0.473551 0.151252
USER    NEWDPF dihe0	1.22 129.79 72.86 33.52 -161.61 93.76 6.14 63.43 -20.79 8.84 -152.69 
USER  
USER                              x       y       z    vdW   Elec        q     RMS 
ATOM      1  N   UNL     1      29.131 -15.284  -0.970 -0.14 -0.00    +0.000    26.482
ATOM      2  H   UNL     1      30.145 -15.187  -1.017 +0.00 -0.00    +0.000    26.482
ATOM      3  C   UNL     1      28.769 -16.608  -1.523 -0.30 -0.00    +0.000    26.482
ATOM      4  C   UNL     1      24.535 -17.308  -0.966 -0.62 -0.00    +0.000    26.482
ATOM      5  C   UNL     1      25.475 -17.923  -0.123 -0.58 -0.00    +0.000    26.482
ATOM      6  C   UNL     1      26.845 -17.706  -0.305 -0.49 -0.00    +0.000    26.482
ATOM      7  C   UNL     1      27.297 -16.862  -1.330 -0.39 -0.00    +0.000    26.482
ATOM      8  C   UNL     1      26.363 -16.229  -2.162 -0.42 -0.00    +0.000    26.482
ATOM      9  C   UNL     1      24.994 -16.445  -1.981 -0.52 -0.00    +0.000    26.482
ATOM     10  C   UNL     1      22.522 -18.765  -0.845 -0.83 -0.00    +0.000    26.482
ATOM     11  C   UNL     1      23.093 -17.558  -0.726 -0.78 -0.00    +0.000    26.482
ATOM     12  O   UNL     1      20.257 -18.129  -0.923 -2.14 -0.00    +0.000    26.482
ATOM     13  C   UNL     1      21.090 -19.012  -0.586 -0.88 -0.00    +0.000    26.482
ATOM     14  N   UNL     1      20.624 -20.203   0.061 -0.69 -0.00    +0.000    26.482
ATOM     15  H   UNL     1      21.272 -20.848   0.425 -0.57 -0.00    +0.000    26.482
ATOM     16  O   UNL     1      19.296 -20.444   0.173 -0.82 -0.00    +0.000    26.482
ATOM     17  H   UNL     1      18.799 -19.727  -0.251 -0.09 -0.00    +0.000    26.482
ATOM     18  C   UNL     1      28.591 -14.183  -1.803 -0.13 -0.00    +0.000    26.482
ATOM     19  C   UNL     1      29.654 -13.121  -2.125 -0.04 -0.00    +0.000    26.482
ATOM     20  O   UNL     1      30.807 -13.304  -1.347 -0.02 -0.00    +0.000    26.482
ATOM     21  H   UNL     1      31.260 -14.115  -1.626 +0.00 -0.00    +0.000    26.482
ATOM     22  C   UNL     1      28.808 -15.177   0.474 -0.18 -0.00    +0.000    26.482
ATOM     23  C   UNL     1      27.372 -14.700   0.766 -0.29 -0.00    +0.000    26.482
ATOM     24  C   UNL     1      27.397 -13.494   1.655 -0.27 -0.00    +0.000    26.482
ATOM     25  C   UNL     1      27.275 -12.165   1.259 -0.22 -0.00    +0.000    26.482
ATOM     26  N   UNL     1      27.422 -11.341   2.320 -0.24 +0.00    +0.000    26.482
ATOM     27  C   UNL     1      27.650 -12.136   3.380 -0.26 +0.00    +0.000    26.482
ATOM     28  C   UNL     1      27.648 -13.457   3.013 -0.33 -0.00    +0.000    26.482
ATOM     29  C   UNL     1      27.891 -14.477   3.932 -0.48 -0.00    +0.000    26.482
ATOM     30  C   UNL     1      28.131 -14.110   5.269 -0.46 -0.00    +0.000    26.482
ATOM     31  C   UNL     1      28.127 -12.749   5.650 -0.42 -0.00    +0.000    26.482
ATOM     32  C   UNL     1      27.887 -11.743   4.697 -0.32 +0.00    +0.000    26.482
ATOM     33  H   UNL     1      27.372 -10.357   2.318 -0.01 +0.00    +0.000    26.482
TER
ENDMDL
MODEL       83
USER    Run = 83
USER    Cluster Rank = 13
USER    Number of conformations in this cluster = 2
USER  
USER    RMSD from reference structure       = 27.283 A
USER  
USER    Estimated Free Energy of Binding    =  -10.26 kcal/mol  [=(1)+(2)+(3)-(4)]
USER    Estimated Inhibition Constant, Ki   =   30.38 nM (nanomolar)  [Temperature = 298.15 K]
USER    
USER    (1) Final Intermolecular Energy     =  -13.54 kcal/mol
USER        vdW + Hbond + desolv Energy     =  -13.54 kcal/mol
USER        Electrostatic Energy            =   +0.00 kcal/mol
USER    (2) Final Total Internal Energy     =   -2.69 kcal/mol
USER    (3) Torsional Free Energy           =   +3.28 kcal/mol
USER    (4) Unbound System's Energy  [=(2)] =   -2.69 kcal/mol
USER    
USER    
USER  
USER    DPF = ligand_dock.biased.dpf
USER    NEWDPF move	ligand.pdbqt
USER    NEWDPF about	0.459000 0.118000 0.005000
USER    NEWDPF tran0	27.990566 -15.726954 -1.469686
USER    NEWDPF axisangle0	-0.218243 -0.118182 -0.968712 148.823877
USER    NEWDPF quaternion0	-0.210216 -0.113835 -0.933081 0.268719
USER    NEWDPF dihe0	58.64 62.80 -179.98 -59.57 12.95 -49.59 8.23 -98.19 176.16 -129.19 56.64 
USER  
USER                              x       y       z    vdW   Elec        q     RMS 
ATOM      1  N   UNL     1      29.258 -15.221  -2.162 -0.12 -0.00    +0.000    27.283
ATOM      2  H   UNL     1      28.382 -15.072  -2.663 +0.01 -0.00    +0.000    27.283
ATOM      3  C   UNL     1      28.941 -15.804  -0.840 -0.22 -0.00    +0.000    27.283
ATOM      4  C   UNL     1      25.068 -17.730  -0.944 -0.62 -0.00    +0.000    27.283
ATOM      5  C   UNL     1      26.222 -18.469  -0.637 -0.46 -0.00    +0.000    27.283
ATOM      6  C   UNL     1      27.476 -17.852  -0.611 -0.33 -0.00    +0.000    27.283
ATOM      7  C   UNL     1      27.597 -16.482  -0.884 -0.35 -0.00    +0.000    27.283
ATOM      8  C   UNL     1      26.446 -15.734  -1.171 -0.37 -0.00    +0.000    27.283
ATOM      9  C   UNL     1      25.191 -16.349  -1.198 -0.51 -0.00    +0.000    27.283
ATOM     10  C   UNL     1      22.593 -17.808  -0.697 -0.81 -0.00    +0.000    27.283
ATOM     11  C   UNL     1      23.757 -18.425  -0.947 -0.81 -0.00    +0.000    27.283
ATOM     12  O   UNL     1      20.268 -17.851  -1.070 -2.17 -0.00    +0.000    27.283
ATOM     13  C   UNL     1      21.289 -18.501  -0.719 -0.84 -0.00    +0.000    27.283
ATOM     14  N   UNL     1      21.146 -19.872  -0.325 -0.67 -0.00    +0.000    27.283
ATOM     15  H   UNL     1      21.915 -20.356   0.053 -0.56 -0.00    +0.000    27.283
ATOM     16  O   UNL     1      19.957 -20.503  -0.471 -0.89 -0.00    +0.000    27.283
ATOM     17  H   UNL     1      19.693 -20.486  -1.405 -0.59 -0.00    +0.000    27.283
ATOM     18  C   UNL     1      29.869 -13.877  -2.029 -0.05 -0.00    +0.000    27.283
ATOM     19  C   UNL     1      31.085 -13.696  -2.951 -0.02 -0.00    +0.000    27.283
ATOM     20  O   UNL     1      30.723 -13.071  -4.153 -0.04 -0.00    +0.000    27.283
ATOM     21  H   UNL     1      29.777 -12.856  -4.133 +0.00 -0.00    +0.000    27.283
ATOM     22  C   UNL     1      30.026 -16.162  -3.015 -0.17 -0.00    +0.000    27.283
ATOM     23  C   UNL     1      29.227 -16.731  -4.204 -0.21 -0.00    +0.000    27.283
ATOM     24  C   UNL     1      29.046 -15.681  -5.258 -0.31 -0.00    +0.000    27.283
ATOM     25  C   UNL     1      29.772 -15.554  -6.438 -0.31 -0.00    +0.000    27.283
ATOM     26  N   UNL     1      29.390 -14.445  -7.110 -0.34 -0.00    +0.000    27.283
ATOM     27  C   UNL     1      28.440 -13.863  -6.358 -0.29 -0.00    +0.000    27.283
ATOM     28  C   UNL     1      28.207 -14.585  -5.216 -0.32 -0.00    +0.000    27.283
ATOM     29  C   UNL     1      27.283 -14.169  -4.258 -0.30 -0.00    +0.000    27.283
ATOM     30  C   UNL     1      26.577 -12.977  -4.503 -0.28 -0.00    +0.000    27.283
ATOM     31  C   UNL     1      26.812 -12.235  -5.683 -0.12 -0.00    +0.000    27.283
ATOM     32  C   UNL     1      27.757 -12.677  -6.626 -0.11 -0.00    +0.000    27.283
ATOM     33  H   UNL     1      29.737 -14.128  -7.976 -0.34 -0.00    +0.000    27.283
TER
ENDMDL
MODEL       46
USER    Run = 46
USER    Cluster Rank = 14
USER    Number of conformations in this cluster = 2
USER  
USER    RMSD from reference structure       = 29.259 A
USER  
USER    Estimated Free Energy of Binding    =  -10.16 kcal/mol  [=(1)+(2)+(3)-(4)]
USER    Estimated Inhibition Constant, Ki   =   35.49 nM (nanomolar)  [Temperature = 298.15 K]
USER    
USER    (1) Final Intermolecular Energy     =  -13.44 kcal/mol
USER        vdW + Hbond + desolv Energy     =  -13.44 kcal/mol
USER        Electrostatic Energy            =   +0.00 kcal/mol
USER    (2) Final Total Internal Energy     =   -2.26 kcal/mol
USER    (3) Torsional Free Energy           =   +3.28 kcal/mol
USER    (4) Unbound System's Energy  [=(2)] =   -2.26 kcal/mol
USER    
USER    
USER  
USER    DPF = ligand_dock.biased.dpf
USER    NEWDPF move	ligand.pdbqt
USER    NEWDPF about	0.459000 0.118000 0.005000
USER    NEWDPF tran0	27.902762 -16.208487 0.000984
USER    NEWDPF axisangle0	0.346537 -0.927534 -0.139973 -171.993153
USER    NEWDPF quaternion0	0.345692 -0.925271 -0.139632 -0.069816
USER    NEWDPF dihe0	3.41 -179.91 1.43 -143.11 36.38 127.83 -175.46 98.80 -84.13 -46.75 -5.60 
USER  
USER                              x       y       z    vdW   Elec        q     RMS 
ATOM      1  N   UNL     1      29.351 -16.478  -0.415 -0.22 -0.00    +0.000    29.259
ATOM      2  H   UNL     1      29.027 -16.959   0.424 -0.53 -0.00    +0.000    29.259
ATOM      3  C   UNL     1      28.205 -15.748  -1.000 -0.28 -0.00    +0.000    29.259
ATOM      4  C   UNL     1      24.628 -18.164  -0.696 -0.68 -0.00    +0.000    29.259
ATOM      5  C   UNL     1      24.716 -17.141  -1.654 -0.59 -0.00    +0.000    29.259
ATOM      6  C   UNL     1      25.867 -16.352  -1.750 -0.48 -0.00    +0.000    29.259
ATOM      7  C   UNL     1      26.954 -16.580  -0.893 -0.41 -0.00    +0.000    29.259
ATOM      8  C   UNL     1      26.880 -17.613   0.051 -0.42 -0.00    +0.000    29.259
ATOM      9  C   UNL     1      25.731 -18.402   0.148 -0.49 -0.00    +0.000    29.259
ATOM     10  C   UNL     1      22.182 -18.518  -0.983 -0.82 -0.00    +0.000    29.259
ATOM     11  C   UNL     1      23.392 -18.983  -0.641 -0.78 -0.00    +0.000    29.259
ATOM     12  O   UNL     1      20.262 -19.437  -1.990 -1.63 -0.00    +0.000    29.259
ATOM     13  C   UNL     1      20.958 -19.343  -0.944 -0.88 -0.00    +0.000    29.259
ATOM     14  N   UNL     1      20.523 -20.010   0.249 -0.70 -0.00    +0.000    29.259
ATOM     15  H   UNL     1      20.999 -19.855   1.097 -0.48 -0.00    +0.000    29.259
ATOM     16  O   UNL     1      19.462 -20.850   0.213 -0.77 -0.00    +0.000    29.259
ATOM     17  H   UNL     1      19.145 -20.933  -0.701 -0.47 -0.00    +0.000    29.259
ATOM     18  C   UNL     1      29.832 -17.548  -1.320 -0.25 -0.00    +0.000    29.259
ATOM     19  C   UNL     1      30.109 -17.029  -2.740 -0.21 -0.00    +0.000    29.259
ATOM     20  O   UNL     1      28.931 -16.979  -3.501 -0.28 -0.00    +0.000    29.259
ATOM     21  H   UNL     1      28.764 -16.064  -3.777 -0.01 -0.00    +0.000    29.259
ATOM     22  C   UNL     1      30.411 -15.556   0.064 -0.14 -0.00    +0.000    29.259
ATOM     23  C   UNL     1      31.831 -16.151   0.020 -0.10 -0.00    +0.000    29.259
ATOM     24  C   UNL     1      32.141 -16.850   1.309 -0.14 -0.00    +0.000    29.259
ATOM     25  C   UNL     1      32.592 -16.262   2.487 -0.18 -0.00    +0.000    29.259
ATOM     26  N   UNL     1      32.842 -17.207   3.421 -0.28 -0.00    +0.000    29.259
ATOM     27  C   UNL     1      32.567 -18.387   2.839 -0.26 -0.00    +0.000    29.259
ATOM     28  C   UNL     1      32.142 -18.211   1.547 -0.14 -0.00    +0.000    29.259
ATOM     29  C   UNL     1      31.822 -19.290   0.724 -0.12 -0.00    +0.000    29.259
ATOM     30  C   UNL     1      31.938 -20.583   1.264 -0.19 -0.00    +0.000    29.259
ATOM     31  C   UNL     1      32.370 -20.766   2.598 -0.24 -0.00    +0.000    29.259
ATOM     32  C   UNL     1      32.694 -19.657   3.400 -0.30 -0.00    +0.000    29.259
ATOM     33  H   UNL     1      33.161 -17.061   4.341 +0.01 -0.00    +0.000    29.259
TER
ENDMDL
MODEL        5
USER    Run = 5
USER    Cluster Rank = 15
USER    Number of conformations in this cluster = 1
USER  
USER    RMSD from reference structure       = 29.990 A
USER  
USER    Estimated Free Energy of Binding    =   -8.77 kcal/mol  [=(1)+(2)+(3)-(4)]
USER    Estimated Inhibition Constant, Ki   =  373.86 nM (nanomolar)  [Temperature = 298.15 K]
USER    
USER    (1) Final Intermolecular Energy     =  -12.05 kcal/mol
USER        vdW + Hbond + desolv Energy     =  -12.05 kcal/mol
USER        Electrostatic Energy            =   +0.00 kcal/mol
USER    (2) Final Total Internal Energy     =   -3.30 kcal/mol
USER    (3) Torsional Free Energy           =   +3.28 kcal/mol
USER    (4) Unbound System's Energy  [=(2)] =   -3.30 kcal/mol
USER    
USER    
USER  
USER    DPF = ligand_dock.biased.dpf
USER    NEWDPF move	ligand.pdbqt
USER    NEWDPF about	0.459000 0.118000 0.005000
USER    NEWDPF tran0	28.936426 -17.069610 -1.120620
USER    NEWDPF axisangle0	0.203067 -0.591422 -0.780374 162.922001
USER    NEWDPF quaternion0	0.200816 -0.584866 -0.771724 0.148483
USER    NEWDPF dihe0	-16.46 178.94 45.43 52.47 27.30 -114.20 -62.84 -90.53 -177.26 -176.51 14.54 
USER  
USER                              x       y       z    vdW   Elec        q     RMS 
ATOM      1  N   UNL     1      30.310 -16.721  -1.699 -0.15 -0.00    +0.000    29.990
ATOM      2  H   UNL     1      29.856 -17.550  -2.085 -0.02 -0.00    +0.000    29.990
ATOM      3  C   UNL     1      29.371 -16.078  -0.754 -0.21 -0.00    +0.000    29.990
ATOM      4  C   UNL     1      25.322 -17.405  -1.508 -0.57 -0.00    +0.000    29.990
ATOM      5  C   UNL     1      26.256 -18.271  -0.917 -0.35 -0.00    +0.000    29.990
ATOM      6  C   UNL     1      27.568 -17.849  -0.680 -0.33 -0.00    +0.000    29.990
ATOM      7  C   UNL     1      27.965 -16.548  -1.022 -0.33 -0.00    +0.000    29.990
ATOM      8  C   UNL     1      27.032 -15.672  -1.593 -0.32 -0.00    +0.000    29.990
ATOM      9  C   UNL     1      25.721 -16.093  -1.831 -0.48 -0.00    +0.000    29.990
ATOM     10  C   UNL     1      22.966 -17.796  -0.809 -0.79 -0.00    +0.000    29.990
ATOM     11  C   UNL     1      23.938 -17.893  -1.728 -0.66 -0.00    +0.000    29.990
ATOM     12  O   UNL     1      20.630 -17.517  -0.707 -2.10 +0.00    +0.000    29.990
ATOM     13  C   UNL     1      21.586 -18.267  -1.040 -0.73 -0.00    +0.000    29.990
ATOM     14  N   UNL     1      21.302 -19.557  -1.599 -0.65 -0.00    +0.000    29.990
ATOM     15  H   UNL     1      22.035 -20.193  -1.761 -0.44 -0.00    +0.000    29.990
ATOM     16  O   UNL     1      20.028 -19.904  -1.903 -1.83 -0.00    +0.000    29.990
ATOM     17  H   UNL     1      19.413 -19.300  -1.458 -0.29 -0.00    +0.000    29.990
ATOM     18  C   UNL     1      30.589 -15.848  -2.864 -0.11 -0.00    +0.000    29.990
ATOM     19  C   UNL     1      30.017 -16.420  -4.171 -0.23 -0.00    +0.000    29.990
ATOM     20  O   UNL     1      30.173 -17.813  -4.227 -0.31 -0.00    +0.000    29.990
ATOM     21  H   UNL     1      29.299 -18.234  -4.271 -0.03 -0.00    +0.000    29.990
ATOM     22  C   UNL     1      31.521 -17.238  -1.015 -0.13 -0.00    +0.000    29.990
ATOM     23  C   UNL     1      31.677 -18.769  -1.078 -0.16 -0.00    +0.000    29.990
ATOM     24  C   UNL     1      32.264 -19.178  -2.396 -0.09 -0.00    +0.000    29.990
ATOM     25  C   UNL     1      33.137 -18.434  -3.184 -0.04 -0.00    +0.000    29.990
ATOM     26  N   UNL     1      33.396 -19.082  -4.341 -0.04 -0.00    +0.000    29.990
ATOM     27  C   UNL     1      32.684 -20.221  -4.298 -0.08 -0.00    +0.000    29.990
ATOM     28  C   UNL     1      31.974 -20.313  -3.128 -0.12 -0.00    +0.000    29.990
ATOM     29  C   UNL     1      31.134 -21.393  -2.859 -0.03 -0.00    +0.000    29.990
ATOM     30  C   UNL     1      31.041 -22.407  -3.829 -0.20 -0.00    +0.000    29.990
ATOM     31  C   UNL     1      31.776 -22.317  -5.032 -0.16 -0.00    +0.000    29.990
ATOM     32  C   UNL     1      32.608 -21.210  -5.278 -0.09 -0.00    +0.000    29.990
ATOM     33  H   UNL     1      33.987 -18.781  -5.069 +0.00 -0.00    +0.000    29.990
TER
ENDMDL


AVSFLD: # AVS field file
AVSFLD: #
AVSFLD: # Created by AutoDock
AVSFLD: #
AVSFLD: ndim=2           # number of dimensions in the field
AVSFLD: nspace=1         # number of physical coordinates
AVSFLD: veclen=7         # vector size
AVSFLD: dim1=33          # atoms
AVSFLD: dim2=15          # conformations
AVSFLD: data=Real       # data type (byte,integer,Real,double)
AVSFLD: field=uniform    # field coordinate layout
AVSFLD: label= x y z vdW Elec q RMS
AVSFLD: variable 1 file = ligand_dock.biased.dlg.pdb filetype = ascii offset = 5 stride = 12
AVSFLD: variable 2 file = ligand_dock.biased.dlg.pdb filetype = ascii offset = 6 stride = 12
AVSFLD: variable 3 file = ligand_dock.biased.dlg.pdb filetype = ascii offset = 7 stride = 12
AVSFLD: variable 4 file = ligand_dock.biased.dlg.pdb filetype = ascii offset = 8 stride = 12
AVSFLD: variable 5 file = ligand_dock.biased.dlg.pdb filetype = ascii offset = 9 stride = 12
AVSFLD: variable 6 file = ligand_dock.biased.dlg.pdb filetype = ascii offset = 10 stride = 12
AVSFLD: variable 7 file = ligand_dock.biased.dlg.pdb filetype = ascii offset = 11 stride = 12
AVSFLD: # end of file

>>> Closing the docking parameter file (DPF)...
This docking finished at:			10:20 23" a.m., 11/08/2024


________________________________________________________________________________

autodock4: Successful Completion on "ThinkStation-P620"

Real= 17m 07.12s,  CPU= 17m 06.85s,  System= 0.19s
________________________________________________________________________________

