REMARK  Name = 
REMARK  9 active torsions:
REMARK  status: ('A' for Active; 'I' for Inactive)
REMARK    1  A    between atoms: C_2  and  C_5
REMARK    2  A    between atoms: N_3  and  O_4
REMARK    3  A    between atoms: C_5  and  C_6
REMARK    4  A    between atoms: C_6  and  C_7
REMARK    5  A    between atoms: C_7  and  C_8
REMARK    6  A    between atoms: C_8  and  C_9
REMARK    7  A    between atoms: C_9  and  C_10
REMARK    8  A    between atoms: C_10  and  C_11
REMARK    9  A    between atoms: N_12  and  C_13
REMARK                            x       y       z     vdW  Elec       q    Type
REMARK                         _______ _______ _______ _____ _____    ______ ____
ROOT
ATOM      1  C   UNL     1      -0.041  -0.780  -2.687  0.00  0.00    +0.000 C 
ENDROOT
BRANCH   1   2
ATOM      2  C   UNL     1       0.609   0.377  -1.913  0.00  0.00    +0.000 C 
BRANCH   2   3
ATOM      3  C   UNL     1       2.140   0.269  -1.943  0.00  0.00    +0.000 C 
BRANCH   3   4
ATOM      4  C   UNL     1       2.836   1.482  -1.298  0.00  0.00    +0.000 C 
BRANCH   4   5
ATOM      5  C   UNL     1       2.600   1.619   0.215  0.00  0.00    +0.000 C 
BRANCH   5   7
ATOM      6  O   UNL     1       4.370   0.328   1.172  0.00  0.00    +0.000 OA
ATOM      7  C   UNL     1       3.129   0.439   0.979  0.00  0.00    +0.000 C 
ATOM      8  N   UNL     1       2.239  -0.571   1.461  0.00  0.00    +0.000 N 
ATOM      9  H   UNL     1       1.271  -0.484   1.303  0.00  0.00    +0.000 HD
BRANCH   8  10
ATOM     10  O   UNL     1       2.715  -1.645   2.133  0.00  0.00    +0.000 OA
ATOM     11  H   UNL     1       3.680  -1.581   2.203  0.00  0.00    +0.000 HD
ENDBRANCH   8  10
ENDBRANCH   5   7
ENDBRANCH   4   5
ENDBRANCH   3   4
ENDBRANCH   2   3
ENDBRANCH   1   2
BRANCH   1  12
ATOM     12  C   UNL     1      -1.574  -0.712  -2.655  0.00  0.00    +0.000 C 
BRANCH  12  13
ATOM     13  C   UNL     1      -2.107  -1.006  -1.284  0.00  0.00    +0.000 C 
ATOM     14  N   UNL     1      -2.387   0.069  -0.374  0.00  0.00    +0.000 N 
ATOM     15  O   UNL     1      -2.296  -2.204  -0.938  0.00  0.00    +0.000 OA
ATOM     16  H   UNL     1      -2.522   0.969  -0.750  0.00  0.00    +0.000 HD
BRANCH  14  17
ATOM     17  C   UNL     1      -2.482  -0.085   1.053  0.00  0.00    +0.000 A 
ATOM     18  C   UNL     1      -3.267   0.808   1.795  0.00  0.00    +0.000 A 
ATOM     19  C   UNL     1      -3.342   0.690   3.184  0.00  0.00    +0.000 A 
ATOM     20  C   UNL     1      -2.614  -0.314   3.824  0.00  0.00    +0.000 A 
ATOM     21  N   UNL     1      -1.835  -1.158   3.098  0.00  0.00    +0.000 NA
ATOM     22  C   UNL     1      -1.750  -1.068   1.744  0.00  0.00    +0.000 A 
ENDBRANCH  14  17
ENDBRANCH  12  13
ENDBRANCH   1  12
TORSDOF 9
