          AutoDock 4.2 Release 4.2.6   
         (C) 1989-2012 The Scripps Research Institute
        AutoDock comes with ABSOLUTELY NO WARRANTY.
        AutoDock is free software, and you are welcome
        to redistribute it under certain conditions;
        for details type 'autodock4 -C'

                     main.cc  $Revision: 1.213 $

                   Compiled on Feb 20 2022 at 09:48:33


This file was created at:			6:39 07" p.m., 11/08/2024
                   on host:		"ThinkStation-P620"
Current Working Directory = "/home/antonio/Documenti/buccheri/IDROSSAMICO HDAC/HDAC 8/P (copia)/Ligand_9"

      ________________________________________________________________

                   SETTING UP DEFAULT PARAMETER LIBRARY
      ________________________________________________________________


Random number generator was seeded with values 358147, 1731087547.
Docking parameter file (DPF) used for this docking:		ligand_dock.biased.dpf
DPF> parameter_file ad4_arom_params.dat

Using read_parameter_library() to try to open and read "ad4_arom_params.dat".

DPF> autodock_parameter_version 4.2       # used by autodock to validate parameter set

	Autodock parameter version 4.2.
DPF> outlev 1                             # diagnostic output level

Output Level = 1  ADT-COMPATIBLE OUTPUT DURING DOCKING.
DPF> intelec                              # calculate internal electrostatics

Electrostatic energies will be calculated for all non-bonds between moving atoms.
DPF> seed pid time                        # seeds for random generator

Random number generator was seeded with values 358147, 1731087547.
DPF> ligand_types A C NA OA N HD AC

WARNING: pairwise distance, Rij, 0.00, is not a very reasonable value for the equilibrium separation of two atoms! (0.90 Angstroms <= Rij <= 6.00 Angstroms)

Perhaps you meant to use "intnbp_coeffs" instead of "intnbp_r_eps"?

DPF> fld receptor.maps.fld                # grid_data_file

Opening Grid Map Dimensions file:		receptor.maps.fld
Grid Point Spacing =				0.375 Angstroms

Even Number of User-specified Grid Points =	70 x-points
						70 y-points
						70 z-points

Coordinates of Central Grid Point of Maps =	(36.691, 12.592, 124.207)
Macromolecule file used to create Grid Maps =	receptor.pdbqt
Grid Parameter file used to create Grid Maps =	receptor.gpf
Minimum coordinates in grid = (23.566, -0.533, 111.082)
Maximum coordinates in grid = (49.816, 25.717, 137.332)

DPF> map receptor.A.map                   # atom-specific affinity map

DPF> map receptor.C.map                   # atom-specific affinity map

DPF> map receptor.NA.biased.map

DPF> map receptor.OA.biased.map

DPF> map receptor.N.map                   # atom-specific affinity map

DPF> map receptor.HD.map                  # atom-specific affinity map

DPF> map receptor.AC.biased.map

DPF> elecmap receptor.e.map               # electrostatics map

DPF> desolvmap receptor.d.map             # desolvation map

DPF> move ligand.dum.pdbqt

1,4-interactions will be _ignored_ in the non-bonded internal energy calculation.

Ligand PDBQT file = "ligand.dum.pdbqt"

INPUT LIGAND PDBQT FILE:
________________________

INPUT-LIGAND-PDBQT: REMARK  Name = 
INPUT-LIGAND-PDBQT: REMARK  9 active torsions:
INPUT-LIGAND-PDBQT: REMARK  status: ('A' for Active; 'I' for Inactive)
INPUT-LIGAND-PDBQT: REMARK    1  A    between atoms: C_2  and  C_5
INPUT-LIGAND-PDBQT: REMARK    2  A    between atoms: N_3  and  O_4
INPUT-LIGAND-PDBQT: REMARK    3  A    between atoms: C_5  and  C_6
INPUT-LIGAND-PDBQT: REMARK    4  A    between atoms: C_6  and  C_7
INPUT-LIGAND-PDBQT: REMARK    5  A    between atoms: C_7  and  C_8
INPUT-LIGAND-PDBQT: REMARK    6  A    between atoms: C_8  and  C_9
INPUT-LIGAND-PDBQT: REMARK    7  A    between atoms: C_9  and  C_10
INPUT-LIGAND-PDBQT: REMARK    8  A    between atoms: C_10  and  C_11
INPUT-LIGAND-PDBQT: REMARK    9  A    between atoms: N_12  and  C_13
INPUT-LIGAND-PDBQT: REMARK                            x       y       z     vdW  Elec       q    Type
INPUT-LIGAND-PDBQT: REMARK                         _______ _______ _______ _____ _____    ______ ____
INPUT-LIGAND-PDBQT: ROOT
INPUT-LIGAND-PDBQT: ATOM      1  C   UNL     1      -0.041  -0.780  -2.687  0.00  0.00     0.000 C 
INPUT-LIGAND-PDBQT: ENDROOT
INPUT-LIGAND-PDBQT: BRANCH   1   2
INPUT-LIGAND-PDBQT: ATOM      2  C   UNL     1       0.609   0.377  -1.913  0.00  0.00     0.000 C 
INPUT-LIGAND-PDBQT: BRANCH   2   3
INPUT-LIGAND-PDBQT: ATOM      3  C   UNL     1       2.140   0.269  -1.943  0.00  0.00     0.000 C 
INPUT-LIGAND-PDBQT: BRANCH   3   4
INPUT-LIGAND-PDBQT: ATOM      4  C   UNL     1       2.836   1.482  -1.298  0.00  0.00     0.000 C 
INPUT-LIGAND-PDBQT: BRANCH   4   5
INPUT-LIGAND-PDBQT: ATOM      5  C   UNL     1       2.600   1.619   0.215  0.00  0.00     0.000 C 
INPUT-LIGAND-PDBQT: BRANCH   5   7
INPUT-LIGAND-PDBQT: ATOM      6  O   UNL     1       4.370   0.328   1.172  0.00  0.00     0.000 OA
INPUT-LIGAND-PDBQT: ATOM      7  C   UNL     1       3.129   0.439   0.979  0.00  0.00     0.000 C 
INPUT-LIGAND-PDBQT: ATOM      8  N   UNL     1       2.239  -0.571   1.461  0.00  0.00     0.000 N 
INPUT-LIGAND-PDBQT: ATOM      9  H   UNL     1       1.271  -0.484   1.303  0.00  0.00     0.000 HD
INPUT-LIGAND-PDBQT: BRANCH   8  10
INPUT-LIGAND-PDBQT: ATOM     10  O   UNL     1       2.715  -1.645   2.133  0.00  0.00     0.000 OA
INPUT-LIGAND-PDBQT: ATOM     11  H   UNL     1       3.680  -1.581   2.203  0.00  0.00     0.000 HD
INPUT-LIGAND-PDBQT: ENDBRANCH   8  10
INPUT-LIGAND-PDBQT: ENDBRANCH   5   7
INPUT-LIGAND-PDBQT: ENDBRANCH   4   5
INPUT-LIGAND-PDBQT: ENDBRANCH   3   4
INPUT-LIGAND-PDBQT: ENDBRANCH   2   3
INPUT-LIGAND-PDBQT: ENDBRANCH   1   2
INPUT-LIGAND-PDBQT: BRANCH   1  12
INPUT-LIGAND-PDBQT: ATOM     12  C   UNL     1      -1.574  -0.712  -2.655  0.00  0.00     0.000 C 
INPUT-LIGAND-PDBQT: BRANCH  12  13
INPUT-LIGAND-PDBQT: ATOM     13  C   UNL     1      -2.107  -1.006  -1.284  0.00  0.00     0.000 C 
INPUT-LIGAND-PDBQT: ATOM     14  N   UNL     1      -2.387   0.069  -0.374  0.00  0.00     0.000 N 
INPUT-LIGAND-PDBQT: ATOM     15  O   UNL     1      -2.296  -2.204  -0.938  0.00  0.00     0.000 OA
INPUT-LIGAND-PDBQT: ATOM     16  H   UNL     1      -2.522   0.969  -0.750  0.00  0.00     0.000 HD
INPUT-LIGAND-PDBQT: BRANCH  14  17
INPUT-LIGAND-PDBQT: ATOM     17  C   UNL     1      -2.482  -0.085   1.053  0.00  0.00     0.000 A 
INPUT-LIGAND-PDBQT: ATOM     18  C   UNL     1      -3.267   0.808   1.795  0.00  0.00     0.000 A 
INPUT-LIGAND-PDBQT: ATOM     19  C   UNL     1      -3.342   0.690   3.184  0.00  0.00     0.000 A 
INPUT-LIGAND-PDBQT: ATOM     20  C   UNL     1      -2.614  -0.314   3.824  0.00  0.00     0.000 A 
INPUT-LIGAND-PDBQT: ATOM     21  N   UNL     1      -1.835  -1.158   3.098  0.00  0.00     0.000 NA
INPUT-LIGAND-PDBQT: ATOM     22  C   UNL     1      -1.750  -1.068   1.744  0.00  0.00     0.000 A 
INPUT-LIGAND-PDBQT: ATOM     23  CM  UNL     1      -2.529  -0.214   2.467  1.00  0.00     0.000 AC
INPUT-LIGAND-PDBQT: ENDBRANCH  14  17
INPUT-LIGAND-PDBQT: ENDBRANCH  12  13
INPUT-LIGAND-PDBQT: ENDBRANCH   1  12
INPUT-LIGAND-PDBQT: TORSDOF 9________________________________________________________________________________

Total charge on ligand                               =	+0.000 e
REMARK  Name = 
REMARK  9 active torsions:
REMARK  status: ('A' for Active; 'I' for Inactive)
REMARK    1  A    between atoms: C_2  and  C_5
REMARK    2  A    between atoms: N_3  and  O_4
REMARK    3  A    between atoms: C_5  and  C_6
REMARK    4  A    between atoms: C_6  and  C_7
REMARK    5  A    between atoms: C_7  and  C_8
REMARK    6  A    between atoms: C_8  and  C_9
REMARK    7  A    between atoms: C_9  and  C_10
REMARK    8  A    between atoms: C_10  and  C_11
REMARK    9  A    between atoms: N_12  and  C_13
REMARK                            x       y       z     vdW  Elec       q    Type
REMARK                         _______ _______ _______ _____ _____    ______ ____


Number of Rotatable Bonds in Small Molecule =	9 torsions
Number of atoms in ligand:  23

Number of non-hydrogen atoms in ligand:  20

Number of vibrational degrees of freedom of ligand:  63


Number of torsional degrees of freedom = 9
Estimated loss of torsional free energy upon binding = +2.6847 kcal/mol


DPF> about -0.029 -0.207 0.469            # small molecule center

Small molecule center of rotation =	(-0.029, -0.207, +0.469)

DPF> tran0 random                         # initial coordinates/A or random

Initial translation =			(45.348, 18.868, 116.754) Angstroms
DPF> quaternion0 random                   # initial orientation

Each run will begin with a new, random initial orientation.
Initial quaternion,  (x,y,z,w) =	( 0.465, -0.542, 0.641, 0.281 ),
DPF> dihe0 random                         # initial dihedrals (relative) or random

DPF> torsdof 9                            # torsional degrees of freedom

Number of torsional degrees of freedom = 9
Free energy coefficient for torsional degrees of freedom = 0.2983 as specified in parameter library "ad4_arom_params.dat".

Estimated loss of torsional free energy upon binding = +2.6847 kcal/mol

DPF> rmstol 2.0                           # cluster_tolerance/A

Maximum RMS tolerance for conformational cluster analysis = 2.00 Angstroms
DPF> extnrg 1000.0                        # external grid energy

External grid energy (beyond grid map walls) = 1000.00

DPF> e0max 0.0 10000                      # max initial energy; max number of retries

Using user-specified maximum number of retries for simanneal initialization, 10000 retries.
If the simanneal initial energy is greater than e0max, 0.000,
then a new, random initial state will be created.

DPF> ga_pop_size 150                      # number of individuals in population

A population of 150 individuals will be used
DPF> ga_num_evals 2500000                 # maximum number of energy evaluations

There will be at most 2500000 function evaluations used.
DPF> ga_num_generations 27000             # maximum number of generations

The GA will run for at most 27000 generations.
DPF> ga_elitism 1                         # number of top individuals to survive to next generation

The 1 best will be preserved each GA generation.
DPF> ga_mutation_rate 0.02                # rate of gene mutation

The mutation rate is 0.020000.
DPF> ga_crossover_rate 0.8                # rate of crossover

The crossover rate is 0.800000.
DPF> ga_window_size 10                    # 

The GA's selection window is 10 generations.
DPF> ga_cauchy_alpha 0.0                  # Alpha parameter of Cauchy distribution

The alpha parameter (for the Cauchy distribution) is being set to 0.000000.
DPF> ga_cauchy_beta 1.0                   # Beta parameter Cauchy distribution

The beta parameter (for the Cauchy distribution) is being set to 1.000000.
DPF> set_ga                               # set the above parameters for GA or LGA

DPF> sw_max_its 300                       # iterations of Solis & Wets local search

Solis & Wets algorithms will perform at most 300 iterations.
DPF> sw_max_succ 4                        # consecutive successes before changing rho

Solis & Wets algorithms expand rho every 4 in a row successes.
DPF> sw_max_fail 4                        # consecutive failures before changing rho

Solis & Wets algorithms contract rho every 4 in a row failures.
DPF> sw_rho 1.0                           # size of local search space to sample

rho is set to 1.000000.
DPF> sw_lb_rho 0.01                       # lower bound on rho

rho will never get smaller than 0.010000.
DPF> ls_search_freq 0.06                  # probability of performing local search on individual

Local search will be performed with frequency 0.060000.
DPF> set_psw1                             # set the above pseudo-Solis & Wets parameters

Creating a new Local Search object using the pseudo-Solis-Wets algorithm (pSW1) with the current settings.

DPF> unbound_model bound                  # state of unbound ligand

DPF> ga_run 100                           # do this many hybrid GA-LS runs

centering ligand on specified point: -0.029 -0.207 0.469
Furthest true ligand atom from "about" center is 4.487 Angstroms (maxrad).
Number of requested GA dockings = 100 runs
Unbound model to be used is 'same as bound' [AutoDock 4.2 default].

	BEGINNING GENETIC ALGORITHM DOCKING 1 of 100
Run: 1 Seed: 213211809 727234352 [ Run 1 of 100 GA/GALS ]
Beginning LAMARCKIAN GENETIC ALGORITHM (LGA), with a maximum of 2500000 energy evaluations.

Final-Value: -13.754


	FINAL GENETIC ALGORITHM DOCKED STATE
	_______________________________________________


Detailed state:  trans 39.485 12.931 123.424 quatxyzw 0.308160 0.512563 0.027141 -0.800987 center -0.029 -0.207 0.469 ntor 9 -13.3617 -87.5919 175.4962 -112.1285 75.7431 177.1078 108.6510 -129.5424 -36.0751
State:	 39.485  12.931 123.424   0.515  0.856  0.045 -73.551    -13.36  -87.59  175.50 -112.13   75.74  177.11  108.65 -129.54  -36.08

DOCKED: MODEL        1
DOCKED: USER    Run = 1
DOCKED: USER    DPF = ligand_dock.biased.dpf
DOCKED: USER  
DOCKED: USER    Estimated Free Energy of Binding    =   -9.59 kcal/mol  [=(1)+(2)+(3)-(4)]
DOCKED: USER    Estimated Inhibition Constant, Ki   =   93.73 nM (nanomolar)  [Temperature = 298.15 K]
DOCKED: USER    
DOCKED: USER    (1) Final Intermolecular Energy     =  -12.27 kcal/mol
DOCKED: USER        vdW + Hbond + desolv Energy     =  -12.27 kcal/mol
DOCKED: USER        Electrostatic Energy            =   +0.00 kcal/mol
DOCKED: USER    (2) Final Total Internal Energy     =   -1.48 kcal/mol
DOCKED: USER    (3) Torsional Free Energy           =   +2.68 kcal/mol
DOCKED: USER    (4) Unbound System's Energy  [=(2)] =   -1.48 kcal/mol
DOCKED: USER    
DOCKED: USER    
DOCKED: USER    NEWDPF move ligand.dum.pdbqt
DOCKED: USER    NEWDPF about -0.029000 -0.207000 0.469000
DOCKED: USER    NEWDPF tran0 39.484630 12.931408 123.423661
DOCKED: USER    NEWDPF quaternion0 0.308160 0.512563 0.027141 -0.800987
DOCKED: USER    NEWDPF axisangle0 0.514731 0.856153 0.045334 -73.551055
DOCKED: USER    NEWDPF quat0 0.514731 0.856153 0.045334 -73.551055
DOCKED: USER    NEWDPF dihe0 -13.36 -87.59 175.50 -112.13 75.74 177.11 108.65 -129.54 -36.08 
DOCKED: USER  keepresnum = 1 
DOCKED: USER  
DOCKED: REMARK  Name = 
DOCKED: REMARK  9 active torsions:
DOCKED: REMARK  status: ('A' for Active; 'I' for Inactive)
DOCKED: REMARK    1  A    between atoms: C_2  and  C_5
DOCKED: REMARK    2  A    between atoms: N_3  and  O_4
DOCKED: REMARK    3  A    between atoms: C_5  and  C_6
DOCKED: REMARK    4  A    between atoms: C_6  and  C_7
DOCKED: REMARK    5  A    between atoms: C_7  and  C_8
DOCKED: REMARK    6  A    between atoms: C_8  and  C_9
DOCKED: REMARK    7  A    between atoms: C_9  and  C_10
DOCKED: REMARK    8  A    between atoms: C_10  and  C_11
DOCKED: REMARK    9  A    between atoms: N_12  and  C_13
DOCKED: REMARK                            x       y       z     vdW  Elec       q    Type
DOCKED: REMARK                         _______ _______ _______ _____ _____    ______ ____
DOCKED: USER                              x       y       z     vdW  Elec       q    Type
DOCKED: USER                           _______ _______ _______ _____ _____    ______ ____
DOCKED: ROOT
DOCKED: ATOM      1  C   UNL     1      36.679  13.934 122.236 -0.39 -0.00    +0.000 C 
DOCKED: ENDROOT
DOCKED: BRANCH   1   2
DOCKED: ATOM      2  C   UNL     1      37.950  14.743 122.537 -0.42 -0.00    +0.000 C 
DOCKED: BRANCH   2   3
DOCKED: ATOM      3  C   UNL     1      37.603  16.114 123.134 -0.31 -0.00    +0.000 C 
DOCKED: BRANCH   3   4
DOCKED: ATOM      4  C   UNL     1      36.094  16.419 123.088 -0.35 -0.00    +0.000 C 
DOCKED: BRANCH   4   5
DOCKED: ATOM      5  C   UNL     1      35.558  17.159 124.324 -0.36 -0.00    +0.000 C 
DOCKED: BRANCH   5   7
DOCKED: ATOM      6  O   UNL     1      33.915  15.425 124.406 -0.67 -0.00    +0.000 OA
DOCKED: ATOM      7  C   UNL     1      34.443  16.408 124.993 -0.51 -0.00    +0.000 C 
DOCKED: ATOM      8  N   UNL     1      33.958  16.818 126.274 -0.42 -0.00    +0.000 N 
DOCKED: ATOM      9  H   UNL     1      34.369  17.590 126.727 -0.01 -0.00    +0.000 HD
DOCKED: BRANCH   8  10
DOCKED: ATOM     10  O   UNL     1      32.940  16.155 126.871 -1.16 -0.00    +0.000 OA
DOCKED: ATOM     11  H   UNL     1      32.513  15.571 126.225 -0.27 -0.00    +0.000 HD
DOCKED: ENDBRANCH   8  10
DOCKED: ENDBRANCH   5   7
DOCKED: ENDBRANCH   4   5
DOCKED: ENDBRANCH   3   4
DOCKED: ENDBRANCH   2   3
DOCKED: ENDBRANCH   1   2
DOCKED: BRANCH   1  12
DOCKED: ATOM     12  C   UNL     1      35.999  13.423 123.514 -0.59 -0.00    +0.000 C 
DOCKED: BRANCH  12  13
DOCKED: ATOM     13  C   UNL     1      36.219  11.951 123.701 -0.69 -0.00    +0.000 C 
DOCKED: ATOM     14  N   UNL     1      36.265  11.079 122.561 -0.61 -0.00    +0.000 N 
DOCKED: ATOM     15  O   UNL     1      36.353  11.489 124.867 -0.40 -0.00    +0.000 OA
DOCKED: ATOM     16  H   UNL     1      36.461  11.478 121.682 -0.04 -0.00    +0.000 HD
DOCKED: BRANCH  14  17
DOCKED: ATOM     17  C   UNL     1      36.043   9.659 122.621 -0.62 -0.00    +0.000 A 
DOCKED: ATOM     18  C   UNL     1      34.761   9.148 122.375 -0.58 -0.00    +0.000 A 
DOCKED: ATOM     19  C   UNL     1      34.525   7.775 122.462 -0.62 -0.00    +0.000 A 
DOCKED: ATOM     20  C   UNL     1      35.572   6.922 122.813 -0.66 -0.00    +0.000 A 
DOCKED: ATOM     21  N   UNL     1      36.805   7.431 123.075 -1.99 -0.00    +0.000 NA
DOCKED: ATOM     22  C   UNL     1      37.063   8.763 122.991 -0.59 -0.00    +0.000 A 
DOCKED: ATOM     23  CM  UNL     1      35.822   8.260 122.732 +0.00 -0.00    +0.000 AC
DOCKED: ENDBRANCH  14  17
DOCKED: ENDBRANCH  12  13
DOCKED: ENDBRANCH   1  12
DOCKED: TORSDOF 9DOCKED: TER
DOCKED: ENDMDL
________________________________________________________________________________


	BEGINNING GENETIC ALGORITHM DOCKING 2 of 100
Run: 2 Seed: 1781984317 1587201748 [ Run 2 of 100 GA/GALS ]
Beginning LAMARCKIAN GENETIC ALGORITHM (LGA), with a maximum of 2500000 energy evaluations.

Final-Value: -13.755


	FINAL GENETIC ALGORITHM DOCKED STATE
	_______________________________________________


Detailed state:  trans 39.449 13.740 121.008 quatxyzw 0.243105 -0.790712 0.305045 0.471828 center -0.029 -0.207 0.469 ntor 9 8.0908 -83.0832 147.3872 38.7320 -140.3625 -107.4398 -69.2862 179.9370 44.4263
State:	 39.449  13.740 121.008   0.276 -0.897  0.346 123.694      8.09  -83.08  147.39   38.73 -140.36 -107.44  -69.29  179.94   44.43

DOCKED: MODEL        2
DOCKED: USER    Run = 2
DOCKED: USER    DPF = ligand_dock.biased.dpf
DOCKED: USER  
DOCKED: USER    Estimated Free Energy of Binding    =   -9.61 kcal/mol  [=(1)+(2)+(3)-(4)]
DOCKED: USER    Estimated Inhibition Constant, Ki   =   90.53 nM (nanomolar)  [Temperature = 298.15 K]
DOCKED: USER    
DOCKED: USER    (1) Final Intermolecular Energy     =  -12.29 kcal/mol
DOCKED: USER        vdW + Hbond + desolv Energy     =  -12.29 kcal/mol
DOCKED: USER        Electrostatic Energy            =   +0.00 kcal/mol
DOCKED: USER    (2) Final Total Internal Energy     =   -1.46 kcal/mol
DOCKED: USER    (3) Torsional Free Energy           =   +2.68 kcal/mol
DOCKED: USER    (4) Unbound System's Energy  [=(2)] =   -1.46 kcal/mol
DOCKED: USER    
DOCKED: USER    
DOCKED: USER    NEWDPF move ligand.dum.pdbqt
DOCKED: USER    NEWDPF about -0.029000 -0.207000 0.469000
DOCKED: USER    NEWDPF tran0 39.449135 13.740102 121.007858
DOCKED: USER    NEWDPF quaternion0 0.243105 -0.790712 0.305045 0.471828
DOCKED: USER    NEWDPF axisangle0 0.275726 -0.896814 0.345978 123.693921
DOCKED: USER    NEWDPF quat0 0.275726 -0.896814 0.345978 123.693921
DOCKED: USER    NEWDPF dihe0 8.09 -83.08 147.39 38.73 -140.36 -107.44 -69.29 179.94 44.43 
DOCKED: USER  keepresnum = 1 
DOCKED: USER  
DOCKED: REMARK  Name = 
DOCKED: REMARK  9 active torsions:
DOCKED: REMARK  status: ('A' for Active; 'I' for Inactive)
DOCKED: REMARK    1  A    between atoms: C_2  and  C_5
DOCKED: REMARK    2  A    between atoms: N_3  and  O_4
DOCKED: REMARK    3  A    between atoms: C_5  and  C_6
DOCKED: REMARK    4  A    between atoms: C_6  and  C_7
DOCKED: REMARK    5  A    between atoms: C_7  and  C_8
DOCKED: REMARK    6  A    between atoms: C_8  and  C_9
DOCKED: REMARK    7  A    between atoms: C_9  and  C_10
DOCKED: REMARK    8  A    between atoms: C_10  and  C_11
DOCKED: REMARK    9  A    between atoms: N_12  and  C_13
DOCKED: REMARK                            x       y       z     vdW  Elec       q    Type
DOCKED: REMARK                         _______ _______ _______ _____ _____    ______ ____
DOCKED: USER                              x       y       z     vdW  Elec       q    Type
DOCKED: USER                           _______ _______ _______ _____ _____    ______ ____
DOCKED: ROOT
DOCKED: ATOM      1  C   UNL     1      36.687  14.148 122.586 -0.45 -0.00    +0.000 C 
DOCKED: ENDROOT
DOCKED: BRANCH   1   2
DOCKED: ATOM      2  C   UNL     1      36.984  14.320 121.089 -0.23 -0.00    +0.000 C 
DOCKED: BRANCH   2   3
DOCKED: ATOM      3  C   UNL     1      37.897  13.198 120.575 -0.46 -0.00    +0.000 C 
DOCKED: BRANCH   3   4
DOCKED: ATOM      4  C   UNL     1      37.214  11.818 120.595 -0.47 -0.00    +0.000 C 
DOCKED: BRANCH   4   5
DOCKED: ATOM      5  C   UNL     1      37.066  11.202 121.996 -0.55 -0.00    +0.000 C 
DOCKED: BRANCH   5   7
DOCKED: ATOM      6  O   UNL     1      37.056   9.107 120.846 -2.73 -0.00    +0.000 OA
DOCKED: ATOM      7  C   UNL     1      37.072   9.701 121.958 -0.58 -0.00    +0.000 C 
DOCKED: ATOM      8  N   UNL     1      37.065   8.945 123.171 -0.66 -0.00    +0.000 N 
DOCKED: ATOM      9  H   UNL     1      37.072   9.412 124.037 -0.54 -0.00    +0.000 HD
DOCKED: BRANCH   8  10
DOCKED: ATOM     10  O   UNL     1      37.051   7.592 123.139 -2.28 -0.00    +0.000 OA
DOCKED: ATOM     11  H   UNL     1      37.175   7.288 122.227 -0.10 -0.00    +0.000 HD
DOCKED: ENDBRANCH   8  10
DOCKED: ENDBRANCH   5   7
DOCKED: ENDBRANCH   4   5
DOCKED: ENDBRANCH   3   4
DOCKED: ENDBRANCH   2   3
DOCKED: ENDBRANCH   1   2
DOCKED: BRANCH   1  12
DOCKED: ATOM     12  C   UNL     1      37.378  15.218 123.443 -0.38 -0.00    +0.000 C 
DOCKED: BRANCH  12  13
DOCKED: ATOM     13  C   UNL     1      38.597  15.763 122.759 -0.32 -0.00    +0.000 C 
DOCKED: ATOM     14  N   UNL     1      39.861  15.095 122.899 -0.32 -0.00    +0.000 N 
DOCKED: ATOM     15  O   UNL     1      38.502  16.816 122.072 -0.17 -0.00    +0.000 OA
DOCKED: ATOM     16  H   UNL     1      39.855  14.148 123.171 -0.04 -0.00    +0.000 HD
DOCKED: BRANCH  14  17
DOCKED: ATOM     17  C   UNL     1      41.135  15.721 122.669 -0.41 -0.00    +0.000 A 
DOCKED: ATOM     18  C   UNL     1      41.942  15.280 121.611 -0.26 -0.00    +0.000 A 
DOCKED: ATOM     19  C   UNL     1      43.195  15.857 121.396 -0.26 -0.00    +0.000 A 
DOCKED: ATOM     20  C   UNL     1      43.640  16.862 122.255 -0.31 -0.00    +0.000 A 
DOCKED: ATOM     21  N   UNL     1      42.861  17.264 123.294 -0.48 -0.00    +0.000 NA
DOCKED: ATOM     22  C   UNL     1      41.635  16.723 123.521 -0.26 -0.00    +0.000 A 
DOCKED: ATOM     23  CM  UNL     1      42.414  16.311 122.480 +0.00 -0.00    +0.000 AC
DOCKED: ENDBRANCH  14  17
DOCKED: ENDBRANCH  12  13
DOCKED: ENDBRANCH   1  12
DOCKED: TORSDOF 9DOCKED: TER
DOCKED: ENDMDL
________________________________________________________________________________


	BEGINNING GENETIC ALGORITHM DOCKING 3 of 100
Run: 3 Seed: 464057517 831343851 [ Run 3 of 100 GA/GALS ]
Beginning LAMARCKIAN GENETIC ALGORITHM (LGA), with a maximum of 2500000 energy evaluations.

Final-Value: -13.052


	FINAL GENETIC ALGORITHM DOCKED STATE
	_______________________________________________


Detailed state:  trans 34.791 14.912 120.834 quatxyzw 0.224026 0.970920 -0.056712 0.062539 center -0.029 -0.207 0.469 ntor 9 -126.4461 119.7142 -3.8197 -29.9921 124.5874 -96.6443 46.9450 -159.5991 -29.8940
State:	 34.791  14.912 120.834   0.224  0.973 -0.057 172.829   -126.45  119.71   -3.82  -29.99  124.59  -96.64   46.95 -159.60  -29.89

DOCKED: MODEL        3
DOCKED: USER    Run = 3
DOCKED: USER    DPF = ligand_dock.biased.dpf
DOCKED: USER  
DOCKED: USER    Estimated Free Energy of Binding    =   -9.52 kcal/mol  [=(1)+(2)+(3)-(4)]
DOCKED: USER    Estimated Inhibition Constant, Ki   =  105.83 nM (nanomolar)  [Temperature = 298.15 K]
DOCKED: USER    
DOCKED: USER    (1) Final Intermolecular Energy     =  -12.20 kcal/mol
DOCKED: USER        vdW + Hbond + desolv Energy     =  -12.20 kcal/mol
DOCKED: USER        Electrostatic Energy            =   +0.00 kcal/mol
DOCKED: USER    (2) Final Total Internal Energy     =   -0.85 kcal/mol
DOCKED: USER    (3) Torsional Free Energy           =   +2.68 kcal/mol
DOCKED: USER    (4) Unbound System's Energy  [=(2)] =   -0.85 kcal/mol
DOCKED: USER    
DOCKED: USER    
DOCKED: USER    NEWDPF move ligand.dum.pdbqt
DOCKED: USER    NEWDPF about -0.029000 -0.207000 0.469000
DOCKED: USER    NEWDPF tran0 34.790506 14.911942 120.834015
DOCKED: USER    NEWDPF quaternion0 0.224026 0.970920 -0.056712 0.062539
DOCKED: USER    NEWDPF axisangle0 0.224466 0.972824 -0.056823 172.828827
DOCKED: USER    NEWDPF quat0 0.224466 0.972824 -0.056823 172.828827
DOCKED: USER    NEWDPF dihe0 -126.45 119.71 -3.82 -29.99 124.59 -96.64 46.95 -159.60 -29.89 
DOCKED: USER  keepresnum = 1 
DOCKED: USER  
DOCKED: REMARK  Name = 
DOCKED: REMARK  9 active torsions:
DOCKED: REMARK  status: ('A' for Active; 'I' for Inactive)
DOCKED: REMARK    1  A    between atoms: C_2  and  C_5
DOCKED: REMARK    2  A    between atoms: N_3  and  O_4
DOCKED: REMARK    3  A    between atoms: C_5  and  C_6
DOCKED: REMARK    4  A    between atoms: C_6  and  C_7
DOCKED: REMARK    5  A    between atoms: C_7  and  C_8
DOCKED: REMARK    6  A    between atoms: C_8  and  C_9
DOCKED: REMARK    7  A    between atoms: C_9  and  C_10
DOCKED: REMARK    8  A    between atoms: C_10  and  C_11
DOCKED: REMARK    9  A    between atoms: N_12  and  C_13
DOCKED: REMARK                            x       y       z     vdW  Elec       q    Type
DOCKED: REMARK                         _______ _______ _______ _____ _____    ______ ____
DOCKED: USER                              x       y       z     vdW  Elec       q    Type
DOCKED: USER                           _______ _______ _______ _____ _____    ______ ____
DOCKED: ROOT
DOCKED: ATOM      1  C   UNL     1      35.019  14.654 124.023 -0.50 -0.00    +0.000 C 
DOCKED: ENDROOT
DOCKED: BRANCH   1   2
DOCKED: ATOM      2  C   UNL     1      34.821  15.911 123.163 -0.40 -0.00    +0.000 C 
DOCKED: BRANCH   2   3
DOCKED: ATOM      3  C   UNL     1      34.191  17.046 123.982 -0.44 -0.00    +0.000 C 
DOCKED: BRANCH   3   4
DOCKED: ATOM      4  C   UNL     1      35.205  17.752 124.901 -0.34 -0.00    +0.000 C 
DOCKED: BRANCH   4   5
DOCKED: ATOM      5  C   UNL     1      34.575  18.711 125.924 -0.28 -0.00    +0.000 C 
DOCKED: BRANCH   5   7
DOCKED: ATOM      6  O   UNL     1      32.768  18.703 127.489 -0.26 -0.00    +0.000 OA
DOCKED: ATOM      7  C   UNL     1      33.580  18.018 126.811 -0.33 -0.00    +0.000 C 
DOCKED: ATOM      8  N   UNL     1      33.570  16.592 126.913 -0.45 -0.00    +0.000 N 
DOCKED: ATOM      9  H   UNL     1      34.210  16.061 126.386 -0.04 -0.00    +0.000 HD
DOCKED: BRANCH   8  10
DOCKED: ATOM     10  O   UNL     1      32.687  15.966 127.726 -1.12 -0.00    +0.000 OA
DOCKED: ATOM     11  H   UNL     1      33.165  15.371 128.324 -0.56 -0.00    +0.000 HD
DOCKED: ENDBRANCH   8  10
DOCKED: ENDBRANCH   5   7
DOCKED: ENDBRANCH   4   5
DOCKED: ENDBRANCH   3   4
DOCKED: ENDBRANCH   2   3
DOCKED: ENDBRANCH   1   2
DOCKED: BRANCH   1  12
DOCKED: ATOM     12  C   UNL     1      36.411  14.034 123.835 -0.51 -0.00    +0.000 C 
DOCKED: BRANCH  12  13
DOCKED: ATOM     13  C   UNL     1      36.369  12.869 122.891 -0.59 -0.00    +0.000 C 
DOCKED: ATOM     14  N   UNL     1      35.648  11.679 123.248 -0.61 -0.00    +0.000 N 
DOCKED: ATOM     15  O   UNL     1      36.980  12.943 121.790 -0.49 -0.00    +0.000 OA
DOCKED: ATOM     16  H   UNL     1      34.952  11.751 123.941 -0.13 -0.00    +0.000 HD
DOCKED: BRANCH  14  17
DOCKED: ATOM     17  C   UNL     1      35.879  10.388 122.657 -0.60 -0.00    +0.000 A 
DOCKED: ATOM     18  C   UNL     1      35.171   9.274 123.130 -0.49 -0.00    +0.000 A 
DOCKED: ATOM     19  C   UNL     1      35.409   8.010 122.587 -0.63 -0.00    +0.000 A 
DOCKED: ATOM     20  C   UNL     1      36.369   7.866 121.585 -0.43 -0.00    +0.000 A 
DOCKED: ATOM     21  N   UNL     1      37.068   8.948 121.152 -2.61 -0.00    +0.000 NA
DOCKED: ATOM     22  C   UNL     1      36.851  10.191 121.659 -0.39 -0.00    +0.000 A 
DOCKED: ATOM     23  CM  UNL     1      36.150   9.109 122.102 +0.00 -0.00    +0.000 AC
DOCKED: ENDBRANCH  14  17
DOCKED: ENDBRANCH  12  13
DOCKED: ENDBRANCH   1  12
DOCKED: TORSDOF 9DOCKED: TER
DOCKED: ENDMDL
________________________________________________________________________________


	BEGINNING GENETIC ALGORITHM DOCKING 4 of 100
Run: 4 Seed: 1052580419 395919656 [ Run 4 of 100 GA/GALS ]
Beginning LAMARCKIAN GENETIC ALGORITHM (LGA), with a maximum of 2500000 energy evaluations.

Final-Value: -13.637


	FINAL GENETIC ALGORITHM DOCKED STATE
	_______________________________________________


Detailed state:  trans 39.311 13.689 121.487 quatxyzw 0.869656 -0.105996 0.427089 -0.223736 center -0.029 -0.207 0.469 ntor 9 18.3770 135.3351 136.6568 1.5509 167.0672 -20.8245 142.9012 101.5535 -0.4313
State:	 39.311  13.689 121.487   0.892 -0.109  0.438 -154.143     18.38  135.34  136.66    1.55  167.07  -20.82  142.90  101.55   -0.43

DOCKED: MODEL        4
DOCKED: USER    Run = 4
DOCKED: USER    DPF = ligand_dock.biased.dpf
DOCKED: USER  
DOCKED: USER    Estimated Free Energy of Binding    =   -9.42 kcal/mol  [=(1)+(2)+(3)-(4)]
DOCKED: USER    Estimated Inhibition Constant, Ki   =  124.50 nM (nanomolar)  [Temperature = 298.15 K]
DOCKED: USER    
DOCKED: USER    (1) Final Intermolecular Energy     =  -12.10 kcal/mol
DOCKED: USER        vdW + Hbond + desolv Energy     =  -12.10 kcal/mol
DOCKED: USER        Electrostatic Energy            =   +0.00 kcal/mol
DOCKED: USER    (2) Final Total Internal Energy     =   -1.53 kcal/mol
DOCKED: USER    (3) Torsional Free Energy           =   +2.68 kcal/mol
DOCKED: USER    (4) Unbound System's Energy  [=(2)] =   -1.53 kcal/mol
DOCKED: USER    
DOCKED: USER    
DOCKED: USER    NEWDPF move ligand.dum.pdbqt
DOCKED: USER    NEWDPF about -0.029000 -0.207000 0.469000
DOCKED: USER    NEWDPF tran0 39.310970 13.688788 121.487368
DOCKED: USER    NEWDPF quaternion0 0.869656 -0.105996 0.427089 -0.223736
DOCKED: USER    NEWDPF axisangle0 0.892275 -0.108753 0.438198 -154.142886
DOCKED: USER    NEWDPF quat0 0.892275 -0.108753 0.438198 -154.142886
DOCKED: USER    NEWDPF dihe0 18.38 135.34 136.66 1.55 167.07 -20.82 142.90 101.55 -0.43 
DOCKED: USER  keepresnum = 1 
DOCKED: USER  
DOCKED: REMARK  Name = 
DOCKED: REMARK  9 active torsions:
DOCKED: REMARK  status: ('A' for Active; 'I' for Inactive)
DOCKED: REMARK    1  A    between atoms: C_2  and  C_5
DOCKED: REMARK    2  A    between atoms: N_3  and  O_4
DOCKED: REMARK    3  A    between atoms: C_5  and  C_6
DOCKED: REMARK    4  A    between atoms: C_6  and  C_7
DOCKED: REMARK    5  A    between atoms: C_7  and  C_8
DOCKED: REMARK    6  A    between atoms: C_8  and  C_9
DOCKED: REMARK    7  A    between atoms: C_9  and  C_10
DOCKED: REMARK    8  A    between atoms: C_10  and  C_11
DOCKED: REMARK    9  A    between atoms: N_12  and  C_13
DOCKED: REMARK                            x       y       z     vdW  Elec       q    Type
DOCKED: REMARK                         _______ _______ _______ _____ _____    ______ ____
DOCKED: USER                              x       y       z     vdW  Elec       q    Type
DOCKED: USER                           _______ _______ _______ _____ _____    ______ ____
DOCKED: ROOT
DOCKED: ATOM      1  C   UNL     1      37.324  15.705 122.995 -0.35 -0.00    +0.000 C 
DOCKED: ENDROOT
DOCKED: BRANCH   1   2
DOCKED: ATOM      2  C   UNL     1      37.826  14.323 123.440 -0.35 -0.00    +0.000 C 
DOCKED: BRANCH   2   3
DOCKED: ATOM      3  C   UNL     1      36.718  13.268 123.319 -0.60 -0.00    +0.000 C 
DOCKED: BRANCH   3   4
DOCKED: ATOM      4  C   UNL     1      37.269  11.845 123.112 -0.56 -0.00    +0.000 C 
DOCKED: BRANCH   4   5
DOCKED: ATOM      5  C   UNL     1      36.692  11.112 121.890 -0.61 -0.00    +0.000 C 
DOCKED: BRANCH   5   7
DOCKED: ATOM      6  O   UNL     1      37.059   8.964 120.908 -2.72 -0.00    +0.000 OA
DOCKED: ATOM      7  C   UNL     1      36.904   9.628 121.969 -0.64 -0.00    +0.000 C 
DOCKED: ATOM      8  N   UNL     1      36.901   8.961 123.234 -0.64 -0.00    +0.000 N 
DOCKED: ATOM      9  H   UNL     1      36.774   9.482 124.060 -0.48 -0.00    +0.000 HD
DOCKED: BRANCH   8  10
DOCKED: ATOM     10  O   UNL     1      37.073   7.620 123.306 -2.26 -0.00    +0.000 OA
DOCKED: ATOM     11  H   UNL     1      37.465   7.299 122.480 -0.18 -0.00    +0.000 HD
DOCKED: ENDBRANCH   8  10
DOCKED: ENDBRANCH   5   7
DOCKED: ENDBRANCH   4   5
DOCKED: ENDBRANCH   3   4
DOCKED: ENDBRANCH   2   3
DOCKED: ENDBRANCH   1   2
DOCKED: BRANCH   1  12
DOCKED: ATOM     12  C   UNL     1      36.381  15.620 121.787 -0.16 -0.00    +0.000 C 
DOCKED: BRANCH  12  13
DOCKED: ATOM     13  C   UNL     1      37.121  15.227 120.542 -0.24 -0.00    +0.000 C 
DOCKED: ATOM     14  N   UNL     1      36.513  15.413 119.255 -0.19 -0.00    +0.000 N 
DOCKED: ATOM     15  O   UNL     1      38.273  14.724 120.641 -0.30 -0.00    +0.000 OA
DOCKED: ATOM     16  H   UNL     1      35.776  16.062 119.181 -0.01 -0.00    +0.000 HD
DOCKED: BRANCH  14  17
DOCKED: ATOM     17  C   UNL     1      36.912  14.710 118.064 -0.26 -0.00    +0.000 A 
DOCKED: ATOM     18  C   UNL     1      36.728  15.311 116.812 -0.18 -0.00    +0.000 A 
DOCKED: ATOM     19  C   UNL     1      37.080  14.627 115.647 -0.24 -0.00    +0.000 A 
DOCKED: ATOM     20  C   UNL     1      37.600  13.336 115.744 -0.39 -0.00    +0.000 A 
DOCKED: ATOM     21  N   UNL     1      37.749  12.752 116.962 -0.36 -0.00    +0.000 NA
DOCKED: ATOM     22  C   UNL     1      37.420  13.399 118.111 -0.37 -0.00    +0.000 A 
DOCKED: ATOM     23  CM  UNL     1      37.261  13.988 116.892 +0.00 -0.00    +0.000 AC
DOCKED: ENDBRANCH  14  17
DOCKED: ENDBRANCH  12  13
DOCKED: ENDBRANCH   1  12
DOCKED: TORSDOF 9DOCKED: TER
DOCKED: ENDMDL
________________________________________________________________________________


	BEGINNING GENETIC ALGORITHM DOCKING 5 of 100
Run: 5 Seed: 2000323404 1137660080 [ Run 5 of 100 GA/GALS ]
Beginning LAMARCKIAN GENETIC ALGORITHM (LGA), with a maximum of 2500000 energy evaluations.

Final-Value: -13.950


	FINAL GENETIC ALGORITHM DOCKED STATE
	_______________________________________________


Detailed state:  trans 37.296 11.411 119.395 quatxyzw 0.611638 0.765014 -0.151101 -0.133495 center -0.029 -0.207 0.469 ntor 9 17.5659 134.3850 177.9153 -97.2005 145.6999 -25.3241 -88.6897 179.8737 -29.5200
State:	 37.296  11.411 119.395   0.617  0.772 -0.152 -164.657     17.57  134.39  177.92  -97.20  145.70  -25.32  -88.69  179.87  -29.52

DOCKED: MODEL        5
DOCKED: USER    Run = 5
DOCKED: USER    DPF = ligand_dock.biased.dpf
DOCKED: USER  
DOCKED: USER    Estimated Free Energy of Binding    =   -9.93 kcal/mol  [=(1)+(2)+(3)-(4)]
DOCKED: USER    Estimated Inhibition Constant, Ki   =   52.38 nM (nanomolar)  [Temperature = 298.15 K]
DOCKED: USER    
DOCKED: USER    (1) Final Intermolecular Energy     =  -12.62 kcal/mol
DOCKED: USER        vdW + Hbond + desolv Energy     =  -12.62 kcal/mol
DOCKED: USER        Electrostatic Energy            =   +0.00 kcal/mol
DOCKED: USER    (2) Final Total Internal Energy     =   -1.33 kcal/mol
DOCKED: USER    (3) Torsional Free Energy           =   +2.68 kcal/mol
DOCKED: USER    (4) Unbound System's Energy  [=(2)] =   -1.33 kcal/mol
DOCKED: USER    
DOCKED: USER    
DOCKED: USER    NEWDPF move ligand.dum.pdbqt
DOCKED: USER    NEWDPF about -0.029000 -0.207000 0.469000
DOCKED: USER    NEWDPF tran0 37.295957 11.411265 119.394761
DOCKED: USER    NEWDPF quaternion0 0.611638 0.765014 -0.151101 -0.133495
DOCKED: USER    NEWDPF axisangle0 0.617162 0.771923 -0.152466 -164.656827
DOCKED: USER    NEWDPF quat0 0.617162 0.771923 -0.152466 -164.656827
DOCKED: USER    NEWDPF dihe0 17.57 134.39 177.92 -97.20 145.70 -25.32 -88.69 179.87 -29.52 
DOCKED: USER  keepresnum = 1 
DOCKED: USER  
DOCKED: REMARK  Name = 
DOCKED: REMARK  9 active torsions:
DOCKED: REMARK  status: ('A' for Active; 'I' for Inactive)
DOCKED: REMARK    1  A    between atoms: C_2  and  C_5
DOCKED: REMARK    2  A    between atoms: N_3  and  O_4
DOCKED: REMARK    3  A    between atoms: C_5  and  C_6
DOCKED: REMARK    4  A    between atoms: C_6  and  C_7
DOCKED: REMARK    5  A    between atoms: C_7  and  C_8
DOCKED: REMARK    6  A    between atoms: C_8  and  C_9
DOCKED: REMARK    7  A    between atoms: C_9  and  C_10
DOCKED: REMARK    8  A    between atoms: C_10  and  C_11
DOCKED: REMARK    9  A    between atoms: N_12  and  C_13
DOCKED: REMARK                            x       y       z     vdW  Elec       q    Type
DOCKED: REMARK                         _______ _______ _______ _____ _____    ______ ____
DOCKED: USER                              x       y       z     vdW  Elec       q    Type
DOCKED: USER                           _______ _______ _______ _____ _____    ______ ____
DOCKED: ROOT
DOCKED: ATOM      1  C   UNL     1      36.678  12.527 122.338 -0.57 -0.00    +0.000 C 
DOCKED: ENDROOT
DOCKED: BRANCH   1   2
DOCKED: ATOM      2  C   UNL     1      37.682  13.043 121.295 -0.49 -0.00    +0.000 C 
DOCKED: BRANCH   2   3
DOCKED: ATOM      3  C   UNL     1      37.289  12.592 119.881 -0.48 -0.00    +0.000 C 
DOCKED: BRANCH   3   4
DOCKED: ATOM      4  C   UNL     1      37.711  13.599 118.795 -0.34 -0.00    +0.000 C 
DOCKED: BRANCH   4   5
DOCKED: ATOM      5  C   UNL     1      36.768  13.657 117.582 -0.40 -0.00    +0.000 C 
DOCKED: BRANCH   5   7
DOCKED: ATOM      6  O   UNL     1      37.086  13.842 115.220 -0.36 -0.00    +0.000 OA
DOCKED: ATOM      7  C   UNL     1      37.475  13.320 116.300 -0.42 -0.00    +0.000 C 
DOCKED: ATOM      8  N   UNL     1      38.562  12.392 116.294 -0.43 -0.00    +0.000 N 
DOCKED: ATOM      9  H   UNL     1      38.859  11.982 117.139 -0.11 -0.00    +0.000 HD
DOCKED: BRANCH   8  10
DOCKED: ATOM     10  O   UNL     1      39.188  12.072 115.137 -0.77 -0.00    +0.000 OA
DOCKED: ATOM     11  H   UNL     1      38.983  12.739 114.464 -0.05 -0.00    +0.000 HD
DOCKED: ENDBRANCH   8  10
DOCKED: ENDBRANCH   5   7
DOCKED: ENDBRANCH   4   5
DOCKED: ENDBRANCH   3   4
DOCKED: ENDBRANCH   2   3
DOCKED: ENDBRANCH   1   2
DOCKED: BRANCH   1  12
DOCKED: ATOM     12  C   UNL     1      37.076  11.156 122.900 -0.61 -0.00    +0.000 C 
DOCKED: BRANCH  12  13
DOCKED: ATOM     13  C   UNL     1      36.319  10.048 122.230 -0.66 -0.00    +0.000 C 
DOCKED: ATOM     14  N   UNL     1      35.023   9.666 122.714 -0.59 -0.00    +0.000 N 
DOCKED: ATOM     15  O   UNL     1      36.837   9.452 121.246 -2.44 -0.00    +0.000 OA
DOCKED: ATOM     16  H   UNL     1      34.523  10.315 123.260 -0.37 -0.00    +0.000 HD
DOCKED: BRANCH  14  17
DOCKED: ATOM     17  C   UNL     1      34.406   8.392 122.453 -0.61 -0.00    +0.000 A 
DOCKED: ATOM     18  C   UNL     1      34.271   7.463 123.493 -0.64 -0.00    +0.000 A 
DOCKED: ATOM     19  C   UNL     1      33.704   6.211 123.246 -0.64 -0.00    +0.000 A 
DOCKED: ATOM     20  C   UNL     1      33.292   5.891 121.952 -0.53 -0.00    +0.000 A 
DOCKED: ATOM     21  N   UNL     1      33.452   6.790 120.945 -0.54 -0.00    +0.000 NA
DOCKED: ATOM     22  C   UNL     1      33.995   8.018 121.161 -0.56 -0.00    +0.000 A 
DOCKED: ATOM     23  CM  UNL     1      33.843   7.118 122.174 +0.00 -0.00    +0.000 AC
DOCKED: ENDBRANCH  14  17
DOCKED: ENDBRANCH  12  13
DOCKED: ENDBRANCH   1  12
DOCKED: TORSDOF 9DOCKED: TER
DOCKED: ENDMDL
________________________________________________________________________________


	BEGINNING GENETIC ALGORITHM DOCKING 6 of 100
Run: 6 Seed: 245356243 139282848 [ Run 6 of 100 GA/GALS ]
Beginning LAMARCKIAN GENETIC ALGORITHM (LGA), with a maximum of 2500000 energy evaluations.

Final-Value: -14.414


	FINAL GENETIC ALGORITHM DOCKED STATE
	_______________________________________________


Detailed state:  trans 37.735 12.174 123.200 quatxyzw -0.600698 0.469693 -0.635352 0.121980 center -0.029 -0.207 0.469 ntor 9 18.7438 167.2343 -154.8988 -20.6791 -144.8205 90.2946 -96.5815 8.6820 -63.6074
State:	 37.735  12.174 123.200  -0.605  0.473 -0.640 165.987     18.74  167.23 -154.90  -20.68 -144.82   90.29  -96.58    8.68  -63.61

DOCKED: MODEL        6
DOCKED: USER    Run = 6
DOCKED: USER    DPF = ligand_dock.biased.dpf
DOCKED: USER  
DOCKED: USER    Estimated Free Energy of Binding    =  -10.29 kcal/mol  [=(1)+(2)+(3)-(4)]
DOCKED: USER    Estimated Inhibition Constant, Ki   =   28.62 nM (nanomolar)  [Temperature = 298.15 K]
DOCKED: USER    
DOCKED: USER    (1) Final Intermolecular Energy     =  -12.98 kcal/mol
DOCKED: USER        vdW + Hbond + desolv Energy     =  -12.98 kcal/mol
DOCKED: USER        Electrostatic Energy            =   +0.00 kcal/mol
DOCKED: USER    (2) Final Total Internal Energy     =   -1.44 kcal/mol
DOCKED: USER    (3) Torsional Free Energy           =   +2.68 kcal/mol
DOCKED: USER    (4) Unbound System's Energy  [=(2)] =   -1.44 kcal/mol
DOCKED: USER    
DOCKED: USER    
DOCKED: USER    NEWDPF move ligand.dum.pdbqt
DOCKED: USER    NEWDPF about -0.029000 -0.207000 0.469000
DOCKED: USER    NEWDPF tran0 37.734885 12.174078 123.199889
DOCKED: USER    NEWDPF quaternion0 -0.600698 0.469693 -0.635352 0.121980
DOCKED: USER    NEWDPF axisangle0 -0.605217 0.473226 -0.640132 165.987224
DOCKED: USER    NEWDPF quat0 -0.605217 0.473226 -0.640132 165.987224
DOCKED: USER    NEWDPF dihe0 18.74 167.23 -154.90 -20.68 -144.82 90.29 -96.58 8.68 -63.61 
DOCKED: USER  keepresnum = 1 
DOCKED: USER  
DOCKED: REMARK  Name = 
DOCKED: REMARK  9 active torsions:
DOCKED: REMARK  status: ('A' for Active; 'I' for Inactive)
DOCKED: REMARK    1  A    between atoms: C_2  and  C_5
DOCKED: REMARK    2  A    between atoms: N_3  and  O_4
DOCKED: REMARK    3  A    between atoms: C_5  and  C_6
DOCKED: REMARK    4  A    between atoms: C_6  and  C_7
DOCKED: REMARK    5  A    between atoms: C_7  and  C_8
DOCKED: REMARK    6  A    between atoms: C_8  and  C_9
DOCKED: REMARK    7  A    between atoms: C_9  and  C_10
DOCKED: REMARK    8  A    between atoms: C_10  and  C_11
DOCKED: REMARK    9  A    between atoms: N_12  and  C_13
DOCKED: REMARK                            x       y       z     vdW  Elec       q    Type
DOCKED: REMARK                         _______ _______ _______ _____ _____    ______ ____
DOCKED: USER                              x       y       z     vdW  Elec       q    Type
DOCKED: USER                           _______ _______ _______ _____ _____    ______ ____
DOCKED: ROOT
DOCKED: ATOM      1  C   UNL     1      36.103  14.828 123.961 -0.47 -0.00    +0.000 C 
DOCKED: ENDROOT
DOCKED: BRANCH   1   2
DOCKED: ATOM      2  C   UNL     1      35.611  13.375 123.885 -0.43 -0.00    +0.000 C 
DOCKED: BRANCH   2   3
DOCKED: ATOM      3  C   UNL     1      36.792  12.396 123.823 -0.63 -0.00    +0.000 C 
DOCKED: BRANCH   3   4
DOCKED: ATOM      4  C   UNL     1      37.156  11.991 122.383 -0.56 -0.00    +0.000 C 
DOCKED: BRANCH   4   5
DOCKED: ATOM      5  C   UNL     1      36.231  10.929 121.768 -0.38 -0.00    +0.000 C 
DOCKED: BRANCH   5   7
DOCKED: ATOM      6  O   UNL     1      37.075   8.844 120.959 -2.70 -0.00    +0.000 OA
DOCKED: ATOM      7  C   UNL     1      36.760   9.537 121.964 -0.67 -0.00    +0.000 C 
DOCKED: ATOM      8  N   UNL     1      36.879   8.984 123.277 -0.62 -0.00    +0.000 N 
DOCKED: ATOM      9  H   UNL     1      36.626   9.526 124.059 -0.44 -0.00    +0.000 HD
DOCKED: BRANCH   8  10
DOCKED: ATOM     10  O   UNL     1      37.338   7.723 123.455 -2.21 -0.00    +0.000 OA
DOCKED: ATOM     11  H   UNL     1      37.810   7.436 122.658 -0.31 -0.00    +0.000 HD
DOCKED: ENDBRANCH   8  10
DOCKED: ENDBRANCH   5   7
DOCKED: ENDBRANCH   4   5
DOCKED: ENDBRANCH   3   4
DOCKED: ENDBRANCH   2   3
DOCKED: ENDBRANCH   1   2
DOCKED: BRANCH   1  12
DOCKED: ATOM     12  C   UNL     1      36.456  15.396 122.580 -0.35 -0.00    +0.000 C 
DOCKED: BRANCH  12  13
DOCKED: ATOM     13  C   UNL     1      37.779  16.101 122.599 -0.28 -0.00    +0.000 C 
DOCKED: ATOM     14  N   UNL     1      38.945  15.461 122.057 -0.28 -0.00    +0.000 N 
DOCKED: ATOM     15  O   UNL     1      37.859  17.254 123.104 -0.22 -0.00    +0.000 OA
DOCKED: ATOM     16  H   UNL     1      38.811  14.724 121.417 -0.01 -0.00    +0.000 HD
DOCKED: BRANCH  14  17
DOCKED: ATOM     17  C   UNL     1      40.296  15.826 122.389 -0.33 -0.00    +0.000 A 
DOCKED: ATOM     18  C   UNL     1      41.363  15.219 121.714 -0.31 -0.00    +0.000 A 
DOCKED: ATOM     19  C   UNL     1      42.680  15.541 122.049 -0.32 -0.00    +0.000 A 
DOCKED: ATOM     20  C   UNL     1      42.919  16.457 123.075 -0.38 -0.00    +0.000 A 
DOCKED: ATOM     21  N   UNL     1      41.877  17.019 123.741 -0.83 -0.00    +0.000 NA
DOCKED: ATOM     22  C   UNL     1      40.586  16.728 123.429 -0.24 -0.00    +0.000 A 
DOCKED: ATOM     23  CM  UNL     1      41.627  16.156 122.760 +0.00 -0.00    +0.000 AC
DOCKED: ENDBRANCH  14  17
DOCKED: ENDBRANCH  12  13
DOCKED: ENDBRANCH   1  12
DOCKED: TORSDOF 9DOCKED: TER
DOCKED: ENDMDL
________________________________________________________________________________


	BEGINNING GENETIC ALGORITHM DOCKING 7 of 100
Run: 7 Seed: 1975221447 509255827 [ Run 7 of 100 GA/GALS ]
Beginning LAMARCKIAN GENETIC ALGORITHM (LGA), with a maximum of 2500000 energy evaluations.

Final-Value: -13.707


	FINAL GENETIC ALGORITHM DOCKED STATE
	_______________________________________________


Detailed state:  trans 40.046 14.661 119.155 quatxyzw -0.860857 0.293585 -0.318966 -0.266448 center -0.029 -0.207 0.469 ntor 9 13.8716 -52.6475 -148.0327 19.4136 -129.9790 150.2726 111.8192 6.6054 50.1093
State:	 40.046  14.661 119.155  -0.893  0.305 -0.331 -149.094     13.87  -52.65 -148.03   19.41 -129.98  150.27  111.82    6.61   50.11

DOCKED: MODEL        7
DOCKED: USER    Run = 7
DOCKED: USER    DPF = ligand_dock.biased.dpf
DOCKED: USER  
DOCKED: USER    Estimated Free Energy of Binding    =   -9.37 kcal/mol  [=(1)+(2)+(3)-(4)]
DOCKED: USER    Estimated Inhibition Constant, Ki   =  134.50 nM (nanomolar)  [Temperature = 298.15 K]
DOCKED: USER    
DOCKED: USER    (1) Final Intermolecular Energy     =  -12.06 kcal/mol
DOCKED: USER        vdW + Hbond + desolv Energy     =  -12.06 kcal/mol
DOCKED: USER        Electrostatic Energy            =   +0.00 kcal/mol
DOCKED: USER    (2) Final Total Internal Energy     =   -1.65 kcal/mol
DOCKED: USER    (3) Torsional Free Energy           =   +2.68 kcal/mol
DOCKED: USER    (4) Unbound System's Energy  [=(2)] =   -1.65 kcal/mol
DOCKED: USER    
DOCKED: USER    
DOCKED: USER    NEWDPF move ligand.dum.pdbqt
DOCKED: USER    NEWDPF about -0.029000 -0.207000 0.469000
DOCKED: USER    NEWDPF tran0 40.045518 14.661331 119.154937
DOCKED: USER    NEWDPF quaternion0 -0.860857 0.293585 -0.318966 -0.266448
DOCKED: USER    NEWDPF axisangle0 -0.893144 0.304596 -0.330929 -149.094008
DOCKED: USER    NEWDPF quat0 -0.893144 0.304596 -0.330929 -149.094008
DOCKED: USER    NEWDPF dihe0 13.87 -52.65 -148.03 19.41 -129.98 150.27 111.82 6.61 50.11 
DOCKED: USER  keepresnum = 1 
DOCKED: USER  
DOCKED: REMARK  Name = 
DOCKED: REMARK  9 active torsions:
DOCKED: REMARK  status: ('A' for Active; 'I' for Inactive)
DOCKED: REMARK    1  A    between atoms: C_2  and  C_5
DOCKED: REMARK    2  A    between atoms: N_3  and  O_4
DOCKED: REMARK    3  A    between atoms: C_5  and  C_6
DOCKED: REMARK    4  A    between atoms: C_6  and  C_7
DOCKED: REMARK    5  A    between atoms: C_7  and  C_8
DOCKED: REMARK    6  A    between atoms: C_8  and  C_9
DOCKED: REMARK    7  A    between atoms: C_9  and  C_10
DOCKED: REMARK    8  A    between atoms: C_10  and  C_11
DOCKED: REMARK    9  A    between atoms: N_12  and  C_13
DOCKED: REMARK                            x       y       z     vdW  Elec       q    Type
DOCKED: REMARK                         _______ _______ _______ _____ _____    ______ ____
DOCKED: USER                              x       y       z     vdW  Elec       q    Type
DOCKED: USER                           _______ _______ _______ _____ _____    ______ ____
DOCKED: ROOT
DOCKED: ATOM      1  C   UNL     1      38.003  14.206 121.586 -0.41 -0.00    +0.000 C 
DOCKED: ENDROOT
DOCKED: BRANCH   1   2
DOCKED: ATOM      2  C   UNL     1      38.567  13.183 120.587 -0.30 -0.00    +0.000 C 
DOCKED: BRANCH   2   3
DOCKED: ATOM      3  C   UNL     1      37.473  12.219 120.109 -0.51 -0.00    +0.000 C 
DOCKED: BRANCH   3   4
DOCKED: ATOM      4  C   UNL     1      36.452  11.881 121.211 -0.41 -0.00    +0.000 C 
DOCKED: BRANCH   4   5
DOCKED: ATOM      5  C   UNL     1      37.043  11.130 122.416 -0.58 -0.00    +0.000 C 
DOCKED: BRANCH   5   7
DOCKED: ATOM      6  O   UNL     1      37.062   9.186 121.025 -2.74 -0.00    +0.000 OA
DOCKED: ATOM      7  C   UNL     1      37.066   9.644 122.199 -0.60 -0.00    +0.000 C 
DOCKED: ATOM      8  N   UNL     1      37.063   8.749 123.315 -0.65 -0.00    +0.000 N 
DOCKED: ATOM      9  H   UNL     1      37.060   9.111 124.230 -0.55 -0.00    +0.000 HD
DOCKED: BRANCH   8  10
DOCKED: ATOM     10  O   UNL     1      37.064   7.409 123.122 -2.19 -0.00    +0.000 OA
DOCKED: ATOM     11  H   UNL     1      37.286   7.215 122.199 -0.14 -0.00    +0.000 HD
DOCKED: ENDBRANCH   8  10
DOCKED: ENDBRANCH   5   7
DOCKED: ENDBRANCH   4   5
DOCKED: ENDBRANCH   3   4
DOCKED: ENDBRANCH   2   3
DOCKED: ENDBRANCH   1   2
DOCKED: BRANCH   1  12
DOCKED: ATOM     12  C   UNL     1      37.046  15.203 120.919 -0.24 -0.00    +0.000 C 
DOCKED: BRANCH  12  13
DOCKED: ATOM     13  C   UNL     1      37.248  15.247 119.433 -0.24 -0.00    +0.000 C 
DOCKED: ATOM     14  N   UNL     1      36.351  14.540 118.563 -0.29 -0.00    +0.000 N 
DOCKED: ATOM     15  O   UNL     1      38.217  15.900 118.960 -0.15 -0.00    +0.000 OA
DOCKED: ATOM     16  H   UNL     1      35.461  14.302 118.912 -0.01 -0.00    +0.000 HD
DOCKED: BRANCH  14  17
DOCKED: ATOM     17  C   UNL     1      36.669  14.156 117.214 -0.33 -0.00    +0.000 A 
DOCKED: ATOM     18  C   UNL     1      35.736  14.381 116.192 -0.28 -0.00    +0.000 A 
DOCKED: ATOM     19  C   UNL     1      36.019  13.984 114.884 -0.26 -0.00    +0.000 A 
DOCKED: ATOM     20  C   UNL     1      37.230  13.347 114.611 -0.35 -0.00    +0.000 A 
DOCKED: ATOM     21  N   UNL     1      38.116  13.109 115.613 -0.48 -0.00    +0.000 NA
DOCKED: ATOM     22  C   UNL     1      37.867  13.492 116.894 -0.35 -0.00    +0.000 A 
DOCKED: ATOM     23  CM  UNL     1      36.971  13.728 115.894 +0.00 -0.00    +0.000 AC
DOCKED: ENDBRANCH  14  17
DOCKED: ENDBRANCH  12  13
DOCKED: ENDBRANCH   1  12
DOCKED: TORSDOF 9DOCKED: TER
DOCKED: ENDMDL
________________________________________________________________________________


	BEGINNING GENETIC ALGORITHM DOCKING 8 of 100
Run: 8 Seed: 734164957 969286672 [ Run 8 of 100 GA/GALS ]
Beginning LAMARCKIAN GENETIC ALGORITHM (LGA), with a maximum of 2500000 energy evaluations.

Final-Value: -14.440


	FINAL GENETIC ALGORITHM DOCKED STATE
	_______________________________________________


Detailed state:  trans 35.850 14.768 124.549 quatxyzw -0.401250 -0.263689 0.058164 -0.875262 center -0.029 -0.207 0.469 ntor 9 6.8612 155.9582 99.2626 -6.1600 37.1146 -92.2122 -163.9659 32.4444 -134.3556
State:	 35.850  14.768 124.549  -0.830 -0.545  0.120 -57.848      6.86  155.96   99.26   -6.16   37.11  -92.21 -163.97   32.44 -134.36

DOCKED: MODEL        8
DOCKED: USER    Run = 8
DOCKED: USER    DPF = ligand_dock.biased.dpf
DOCKED: USER  
DOCKED: USER    Estimated Free Energy of Binding    =  -10.51 kcal/mol  [=(1)+(2)+(3)-(4)]
DOCKED: USER    Estimated Inhibition Constant, Ki   =   19.66 nM (nanomolar)  [Temperature = 298.15 K]
DOCKED: USER    
DOCKED: USER    (1) Final Intermolecular Energy     =  -13.20 kcal/mol
DOCKED: USER        vdW + Hbond + desolv Energy     =  -13.20 kcal/mol
DOCKED: USER        Electrostatic Energy            =   +0.00 kcal/mol
DOCKED: USER    (2) Final Total Internal Energy     =   -1.24 kcal/mol
DOCKED: USER    (3) Torsional Free Energy           =   +2.68 kcal/mol
DOCKED: USER    (4) Unbound System's Energy  [=(2)] =   -1.24 kcal/mol
DOCKED: USER    
DOCKED: USER    
DOCKED: USER    NEWDPF move ligand.dum.pdbqt
DOCKED: USER    NEWDPF about -0.029000 -0.207000 0.469000
DOCKED: USER    NEWDPF tran0 35.849512 14.768215 124.548949
DOCKED: USER    NEWDPF quaternion0 -0.401250 -0.263689 0.058164 -0.875262
DOCKED: USER    NEWDPF axisangle0 -0.829631 -0.545207 0.120261 -57.847983
DOCKED: USER    NEWDPF quat0 -0.829631 -0.545207 0.120261 -57.847983
DOCKED: USER    NEWDPF dihe0 6.86 155.96 99.26 -6.16 37.11 -92.21 -163.97 32.44 -134.36 
DOCKED: USER  keepresnum = 1 
DOCKED: USER  
DOCKED: REMARK  Name = 
DOCKED: REMARK  9 active torsions:
DOCKED: REMARK  status: ('A' for Active; 'I' for Inactive)
DOCKED: REMARK    1  A    between atoms: C_2  and  C_5
DOCKED: REMARK    2  A    between atoms: N_3  and  O_4
DOCKED: REMARK    3  A    between atoms: C_5  and  C_6
DOCKED: REMARK    4  A    between atoms: C_6  and  C_7
DOCKED: REMARK    5  A    between atoms: C_7  and  C_8
DOCKED: REMARK    6  A    between atoms: C_8  and  C_9
DOCKED: REMARK    7  A    between atoms: C_9  and  C_10
DOCKED: REMARK    8  A    between atoms: C_10  and  C_11
DOCKED: REMARK    9  A    between atoms: N_12  and  C_13
DOCKED: REMARK                            x       y       z     vdW  Elec       q    Type
DOCKED: REMARK                         _______ _______ _______ _____ _____    ______ ____
DOCKED: USER                              x       y       z     vdW  Elec       q    Type
DOCKED: USER                           _______ _______ _______ _____ _____    ______ ____
DOCKED: ROOT
DOCKED: ATOM      1  C   UNL     1      37.380  12.260 123.263 -0.58 -0.00    +0.000 C 
DOCKED: ENDROOT
DOCKED: BRANCH   1   2
DOCKED: ATOM      2  C   UNL     1      37.669  13.760 123.102 -0.53 -0.00    +0.000 C 
DOCKED: BRANCH   2   3
DOCKED: ATOM      3  C   UNL     1      36.413  14.518 122.651 -0.38 -0.00    +0.000 C 
DOCKED: BRANCH   3   4
DOCKED: ATOM      4  C   UNL     1      35.470  14.859 123.820 -0.55 -0.00    +0.000 C 
DOCKED: BRANCH   4   5
DOCKED: ATOM      5  C   UNL     1      35.528  16.327 124.275 -0.42 -0.00    +0.000 C 
DOCKED: BRANCH   5   7
DOCKED: ATOM      6  O   UNL     1      33.663  17.751 124.732 -0.45 -0.00    +0.000 OA
DOCKED: ATOM      7  C   UNL     1      34.313  16.722 125.064 -0.48 -0.00    +0.000 C 
DOCKED: ATOM      8  N   UNL     1      33.907  15.959 126.202 -0.43 -0.00    +0.000 N 
DOCKED: ATOM      9  H   UNL     1      34.420  15.159 126.462 -0.02 -0.00    +0.000 HD
DOCKED: BRANCH   8  10
DOCKED: ATOM     10  O   UNL     1      32.823  16.324 126.926 -1.11 -0.00    +0.000 OA
DOCKED: ATOM     11  H   UNL     1      32.371  17.059 126.483 -0.23 -0.00    +0.000 HD
DOCKED: ENDBRANCH   8  10
DOCKED: ENDBRANCH   5   7
DOCKED: ENDBRANCH   4   5
DOCKED: ENDBRANCH   3   4
DOCKED: ENDBRANCH   2   3
DOCKED: ENDBRANCH   1   2
DOCKED: BRANCH   1  12
DOCKED: ATOM     12  C   UNL     1      36.062  11.847 122.594 -0.60 -0.00    +0.000 C 
DOCKED: BRANCH  12  13
DOCKED: ATOM     13  C   UNL     1      36.058  10.387 122.246 -0.63 -0.00    +0.000 C 
DOCKED: ATOM     14  N   UNL     1      34.988   9.542 122.694 -0.60 -0.00    +0.000 N 
DOCKED: ATOM     15  O   UNL     1      37.008   9.912 121.566 -1.77 -0.00    +0.000 OA
DOCKED: ATOM     16  H   UNL     1      34.137   9.970 122.947 -0.40 -0.00    +0.000 HD
DOCKED: BRANCH  14  17
DOCKED: ATOM     17  C   UNL     1      35.078   8.111 122.799 -0.62 -0.00    +0.000 A 
DOCKED: ATOM     18  C   UNL     1      33.906   7.343 122.827 -0.66 -0.00    +0.000 A 
DOCKED: ATOM     19  C   UNL     1      33.979   5.955 122.960 -0.57 -0.00    +0.000 A 
DOCKED: ATOM     20  C   UNL     1      35.228   5.346 123.083 -0.48 -0.00    +0.000 A 
DOCKED: ATOM     21  N   UNL     1      36.357   6.102 123.082 -1.00 -0.00    +0.000 NA
DOCKED: ATOM     22  C   UNL     1      36.314   7.454 122.947 -0.70 -0.00    +0.000 A 
DOCKED: ATOM     23  CM  UNL     1      35.176   6.702 122.953 +0.00 -0.00    +0.000 AC
DOCKED: ENDBRANCH  14  17
DOCKED: ENDBRANCH  12  13
DOCKED: ENDBRANCH   1  12
DOCKED: TORSDOF 9DOCKED: TER
DOCKED: ENDMDL
________________________________________________________________________________


	BEGINNING GENETIC ALGORITHM DOCKING 9 of 100
Run: 9 Seed: 1633461019 1353599726 [ Run 9 of 100 GA/GALS ]
Beginning LAMARCKIAN GENETIC ALGORITHM (LGA), with a maximum of 2500000 energy evaluations.

Final-Value: -13.626


	FINAL GENETIC ALGORITHM DOCKED STATE
	_______________________________________________


Detailed state:  trans 38.884 11.609 120.622 quatxyzw 0.643227 0.558644 -0.116429 -0.510509 center -0.029 -0.207 0.469 ntor 9 9.1478 -93.2346 63.5538 32.7079 42.5343 -26.4073 78.4094 99.5314 -15.5826
State:	 38.884  11.609 120.622   0.748  0.650 -0.135 -118.605      9.15  -93.23   63.55   32.71   42.53  -26.41   78.41   99.53  -15.58

DOCKED: MODEL        9
DOCKED: USER    Run = 9
DOCKED: USER    DPF = ligand_dock.biased.dpf
DOCKED: USER  
DOCKED: USER    Estimated Free Energy of Binding    =   -9.73 kcal/mol  [=(1)+(2)+(3)-(4)]
DOCKED: USER    Estimated Inhibition Constant, Ki   =   73.87 nM (nanomolar)  [Temperature = 298.15 K]
DOCKED: USER    
DOCKED: USER    (1) Final Intermolecular Energy     =  -12.41 kcal/mol
DOCKED: USER        vdW + Hbond + desolv Energy     =  -12.41 kcal/mol
DOCKED: USER        Electrostatic Energy            =   +0.00 kcal/mol
DOCKED: USER    (2) Final Total Internal Energy     =   -1.21 kcal/mol
DOCKED: USER    (3) Torsional Free Energy           =   +2.68 kcal/mol
DOCKED: USER    (4) Unbound System's Energy  [=(2)] =   -1.21 kcal/mol
DOCKED: USER    
DOCKED: USER    
DOCKED: USER    NEWDPF move ligand.dum.pdbqt
DOCKED: USER    NEWDPF about -0.029000 -0.207000 0.469000
DOCKED: USER    NEWDPF tran0 38.883551 11.609243 120.622183
DOCKED: USER    NEWDPF quaternion0 0.643227 0.558644 -0.116429 -0.510509
DOCKED: USER    NEWDPF axisangle0 0.748050 0.649683 -0.135403 -118.604518
DOCKED: USER    NEWDPF quat0 0.748050 0.649683 -0.135403 -118.604518
DOCKED: USER    NEWDPF dihe0 9.15 -93.23 63.55 32.71 42.53 -26.41 78.41 99.53 -15.58 
DOCKED: USER  keepresnum = 1 
DOCKED: USER  
DOCKED: REMARK  Name = 
DOCKED: REMARK  9 active torsions:
DOCKED: REMARK  status: ('A' for Active; 'I' for Inactive)
DOCKED: REMARK    1  A    between atoms: C_2  and  C_5
DOCKED: REMARK    2  A    between atoms: N_3  and  O_4
DOCKED: REMARK    3  A    between atoms: C_5  and  C_6
DOCKED: REMARK    4  A    between atoms: C_6  and  C_7
DOCKED: REMARK    5  A    between atoms: C_7  and  C_8
DOCKED: REMARK    6  A    between atoms: C_8  and  C_9
DOCKED: REMARK    7  A    between atoms: C_9  and  C_10
DOCKED: REMARK    8  A    between atoms: C_10  and  C_11
DOCKED: REMARK    9  A    between atoms: N_12  and  C_13
DOCKED: REMARK                            x       y       z     vdW  Elec       q    Type
DOCKED: REMARK                         _______ _______ _______ _____ _____    ______ ____
DOCKED: USER                              x       y       z     vdW  Elec       q    Type
DOCKED: USER                           _______ _______ _______ _____ _____    ______ ____
DOCKED: ROOT
DOCKED: ATOM      1  C   UNL     1      37.072  14.002 121.754 -0.40 -0.00    +0.000 C 
DOCKED: ENDROOT
DOCKED: BRANCH   1   2
DOCKED: ATOM      2  C   UNL     1      38.593  13.951 121.546 -0.39 -0.00    +0.000 C 
DOCKED: BRANCH   2   3
DOCKED: ATOM      3  C   UNL     1      39.276  15.177 122.169 -0.38 -0.00    +0.000 C 
DOCKED: BRANCH   3   4
DOCKED: ATOM      4  C   UNL     1      40.689  14.868 122.698 -0.49 -0.00    +0.000 C 
DOCKED: BRANCH   4   5
DOCKED: ATOM      5  C   UNL     1      41.827  15.483 121.867 -0.41 -0.00    +0.000 C 
DOCKED: BRANCH   5   7
DOCKED: ATOM      6  O   UNL     1      42.367  16.720 123.840 -1.01 -0.00    +0.000 OA
DOCKED: ATOM      7  C   UNL     1      42.747  16.325 122.705 -0.45 -0.00    +0.000 C 
DOCKED: ATOM      8  N   UNL     1      44.033  16.705 122.210 -0.34 -0.00    +0.000 N 
DOCKED: ATOM      9  H   UNL     1      44.324  16.400 121.320 -0.01 -0.00    +0.000 HD
DOCKED: BRANCH   8  10
DOCKED: ATOM     10  O   UNL     1      44.856  17.480 122.955 -0.38 -0.00    +0.000 OA
DOCKED: ATOM     11  H   UNL     1      44.491  17.574 123.848 -0.43 -0.00    +0.000 HD
DOCKED: ENDBRANCH   8  10
DOCKED: ENDBRANCH   5   7
DOCKED: ENDBRANCH   4   5
DOCKED: ENDBRANCH   3   4
DOCKED: ENDBRANCH   2   3
DOCKED: ENDBRANCH   1   2
DOCKED: BRANCH   1  12
DOCKED: ATOM     12  C   UNL     1      36.608  13.067 122.880 -0.58 -0.00    +0.000 C 
DOCKED: BRANCH  12  13
DOCKED: ATOM     13  C   UNL     1      36.393  11.670 122.378 -0.64 -0.00    +0.000 C 
DOCKED: ATOM     14  N   UNL     1      35.687  10.715 123.185 -0.62 -0.00    +0.000 N 
DOCKED: ATOM     15  O   UNL     1      36.848  11.342 121.248 -0.65 -0.00    +0.000 OA
DOCKED: ATOM     16  H   UNL     1      35.097  11.057 123.895 -0.32 -0.00    +0.000 HD
DOCKED: BRANCH  14  17
DOCKED: ATOM     17  C   UNL     1      35.786   9.289 123.022 -0.58 -0.00    +0.000 A 
DOCKED: ATOM     18  C   UNL     1      34.634   8.542 122.742 -0.60 -0.00    +0.000 A 
DOCKED: ATOM     19  C   UNL     1      34.711   7.154 122.614 -0.63 -0.00    +0.000 A 
DOCKED: ATOM     20  C   UNL     1      35.942   6.520 122.786 -0.62 -0.00    +0.000 A 
DOCKED: ATOM     21  N   UNL     1      37.048   7.251 123.084 -1.93 -0.00    +0.000 NA
DOCKED: ATOM     22  C   UNL     1      37.001   8.604 123.207 -0.55 -0.00    +0.000 A 
DOCKED: ATOM     23  CM  UNL     1      35.886   7.876 122.914 +0.00 -0.00    +0.000 AC
DOCKED: ENDBRANCH  14  17
DOCKED: ENDBRANCH  12  13
DOCKED: ENDBRANCH   1  12
DOCKED: TORSDOF 9DOCKED: TER
DOCKED: ENDMDL
________________________________________________________________________________


	BEGINNING GENETIC ALGORITHM DOCKING 10 of 100
Run: 10 Seed: 387958810 1148395278 [ Run 10 of 100 GA/GALS ]
Beginning LAMARCKIAN GENETIC ALGORITHM (LGA), with a maximum of 2500000 energy evaluations.

Final-Value: -13.867


	FINAL GENETIC ALGORITHM DOCKED STATE
	_______________________________________________


Detailed state:  trans 37.583 16.097 122.704 quatxyzw -0.171383 -0.335732 -0.759921 -0.529558 center -0.029 -0.207 0.469 ntor 9 -5.0899 -119.2885 -167.3421 37.5029 112.3766 -152.1171 0.5476 -5.6483 57.6658
State:	 37.583  16.097 122.704  -0.202 -0.396 -0.896 -116.049     -5.09 -119.29 -167.34   37.50  112.38 -152.12    0.55   -5.65   57.67

DOCKED: MODEL       10
DOCKED: USER    Run = 10
DOCKED: USER    DPF = ligand_dock.biased.dpf
DOCKED: USER  
DOCKED: USER    Estimated Free Energy of Binding    =   -9.68 kcal/mol  [=(1)+(2)+(3)-(4)]
DOCKED: USER    Estimated Inhibition Constant, Ki   =   80.30 nM (nanomolar)  [Temperature = 298.15 K]
DOCKED: USER    
DOCKED: USER    (1) Final Intermolecular Energy     =  -12.36 kcal/mol
DOCKED: USER        vdW + Hbond + desolv Energy     =  -12.36 kcal/mol
DOCKED: USER        Electrostatic Energy            =   +0.00 kcal/mol
DOCKED: USER    (2) Final Total Internal Energy     =   -1.50 kcal/mol
DOCKED: USER    (3) Torsional Free Energy           =   +2.68 kcal/mol
DOCKED: USER    (4) Unbound System's Energy  [=(2)] =   -1.50 kcal/mol
DOCKED: USER    
DOCKED: USER    
DOCKED: USER    NEWDPF move ligand.dum.pdbqt
DOCKED: USER    NEWDPF about -0.029000 -0.207000 0.469000
DOCKED: USER    NEWDPF tran0 37.582667 16.097494 122.704475
DOCKED: USER    NEWDPF quaternion0 -0.171383 -0.335732 -0.759921 -0.529558
DOCKED: USER    NEWDPF axisangle0 -0.202038 -0.395783 -0.895844 -116.048818
DOCKED: USER    NEWDPF quat0 -0.202038 -0.395783 -0.895844 -116.048818
DOCKED: USER    NEWDPF dihe0 -5.09 -119.29 -167.34 37.50 112.38 -152.12 0.55 -5.65 57.67 
DOCKED: USER  keepresnum = 1 
DOCKED: USER  
DOCKED: REMARK  Name = 
DOCKED: REMARK  9 active torsions:
DOCKED: REMARK  status: ('A' for Active; 'I' for Inactive)
DOCKED: REMARK    1  A    between atoms: C_2  and  C_5
DOCKED: REMARK    2  A    between atoms: N_3  and  O_4
DOCKED: REMARK    3  A    between atoms: C_5  and  C_6
DOCKED: REMARK    4  A    between atoms: C_6  and  C_7
DOCKED: REMARK    5  A    between atoms: C_7  and  C_8
DOCKED: REMARK    6  A    between atoms: C_8  and  C_9
DOCKED: REMARK    7  A    between atoms: C_9  and  C_10
DOCKED: REMARK    8  A    between atoms: C_10  and  C_11
DOCKED: REMARK    9  A    between atoms: N_12  and  C_13
DOCKED: REMARK                            x       y       z     vdW  Elec       q    Type
DOCKED: REMARK                         _______ _______ _______ _____ _____    ______ ____
DOCKED: USER                              x       y       z     vdW  Elec       q    Type
DOCKED: USER                           _______ _______ _______ _____ _____    ______ ____
DOCKED: ROOT
DOCKED: ATOM      1  C   UNL     1      37.360  14.045 120.250 -0.36 -0.00    +0.000 C 
DOCKED: ENDROOT
DOCKED: BRANCH   1   2
DOCKED: ATOM      2  C   UNL     1      38.104  13.885 121.584 -0.43 -0.00    +0.000 C 
DOCKED: BRANCH   2   3
DOCKED: ATOM      3  C   UNL     1      37.433  12.821 122.465 -0.55 -0.00    +0.000 C 
DOCKED: BRANCH   3   4
DOCKED: ATOM      4  C   UNL     1      36.582  11.826 121.654 -0.56 -0.00    +0.000 C 
DOCKED: BRANCH   4   5
DOCKED: ATOM      5  C   UNL     1      35.919  10.724 122.497 -0.67 -0.00    +0.000 C 
DOCKED: BRANCH   5   7
DOCKED: ATOM      6  O   UNL     1      36.931   9.015 121.166 -2.68 -0.00    +0.000 OA
DOCKED: ATOM      7  C   UNL     1      36.595   9.394 122.320 -0.72 -0.00    +0.000 C 
DOCKED: ATOM      8  N   UNL     1      36.831   8.546 123.447 -0.65 -0.00    +0.000 N 
DOCKED: ATOM      9  H   UNL     1      36.562   8.842 124.346 -0.36 -0.00    +0.000 HD
DOCKED: BRANCH   8  10
DOCKED: ATOM     10  O   UNL     1      37.423   7.339 123.288 -1.96 -0.00    +0.000 OA
DOCKED: ATOM     11  H   UNL     1      37.551   7.163 122.343 -0.21 -0.00    +0.000 HD
DOCKED: ENDBRANCH   8  10
DOCKED: ENDBRANCH   5   7
DOCKED: ENDBRANCH   4   5
DOCKED: ENDBRANCH   3   4
DOCKED: ENDBRANCH   2   3
DOCKED: ENDBRANCH   1   2
DOCKED: BRANCH   1  12
DOCKED: ATOM     12  C   UNL     1      38.003  15.110 119.350 -0.23 -0.00    +0.000 C 
DOCKED: BRANCH  12  13
DOCKED: ATOM     13  C   UNL     1      39.012  15.926 120.103 -0.18 -0.00    +0.000 C 
DOCKED: ATOM     14  N   UNL     1      40.380  15.494 120.172 -0.16 -0.00    +0.000 N 
DOCKED: ATOM     15  O   UNL     1      38.645  16.985 120.679 -0.10 -0.00    +0.000 OA
DOCKED: ATOM     16  H   UNL     1      40.699  14.860 119.490 -0.04 -0.00    +0.000 HD
DOCKED: BRANCH  14  17
DOCKED: ATOM     17  C   UNL     1      41.314  15.928 121.176 -0.24 -0.00    +0.000 A 
DOCKED: ATOM     18  C   UNL     1      42.441  16.670 120.799 -0.18 -0.00    +0.000 A 
DOCKED: ATOM     19  C   UNL     1      43.373  17.070 121.759 -0.25 -0.00    +0.000 A 
DOCKED: ATOM     20  C   UNL     1      43.177  16.707 123.092 -0.36 -0.00    +0.000 A 
DOCKED: ATOM     21  N   UNL     1      42.095  15.965 123.444 -1.05 +0.00    +0.000 NA
DOCKED: ATOM     22  C   UNL     1      41.170  15.568 122.529 -0.42 -0.00    +0.000 A 
DOCKED: ATOM     23  CM  UNL     1      42.257  16.309 122.168 +0.00 -0.00    +0.000 AC
DOCKED: ENDBRANCH  14  17
DOCKED: ENDBRANCH  12  13
DOCKED: ENDBRANCH   1  12
DOCKED: TORSDOF 9DOCKED: TER
DOCKED: ENDMDL
________________________________________________________________________________


	BEGINNING GENETIC ALGORITHM DOCKING 11 of 100
Run: 11 Seed: 478441510 993517628 [ Run 11 of 100 GA/GALS ]
Beginning LAMARCKIAN GENETIC ALGORITHM (LGA), with a maximum of 2500000 energy evaluations.

Final-Value: -12.422


	FINAL GENETIC ALGORITHM DOCKED STATE
	_______________________________________________


Detailed state:  trans 34.072 6.690 121.813 quatxyzw 0.753985 -0.415991 -0.202693 -0.466234 center -0.029 -0.207 0.469 ntor 9 -65.1682 154.0576 -165.3956 -175.5526 -109.4230 -71.9418 -166.6044 81.6246 -160.7658
State:	 34.072   6.690 121.813   0.852 -0.470 -0.229 -124.420    -65.17  154.06 -165.40 -175.55 -109.42  -71.94 -166.60   81.62 -160.77

DOCKED: MODEL       11
DOCKED: USER    Run = 11
DOCKED: USER    DPF = ligand_dock.biased.dpf
DOCKED: USER  
DOCKED: USER    Estimated Free Energy of Binding    =   -8.47 kcal/mol  [=(1)+(2)+(3)-(4)]
DOCKED: USER    Estimated Inhibition Constant, Ki   =  621.66 nM (nanomolar)  [Temperature = 298.15 K]
DOCKED: USER    
DOCKED: USER    (1) Final Intermolecular Energy     =  -11.15 kcal/mol
DOCKED: USER        vdW + Hbond + desolv Energy     =  -11.15 kcal/mol
DOCKED: USER        Electrostatic Energy            =   +0.00 kcal/mol
DOCKED: USER    (2) Final Total Internal Energy     =   -1.27 kcal/mol
DOCKED: USER    (3) Torsional Free Energy           =   +2.68 kcal/mol
DOCKED: USER    (4) Unbound System's Energy  [=(2)] =   -1.27 kcal/mol
DOCKED: USER    
DOCKED: USER    
DOCKED: USER    NEWDPF move ligand.dum.pdbqt
DOCKED: USER    NEWDPF about -0.029000 -0.207000 0.469000
DOCKED: USER    NEWDPF tran0 34.072379 6.689998 121.812605
DOCKED: USER    NEWDPF quaternion0 0.753985 -0.415991 -0.202693 -0.466234
DOCKED: USER    NEWDPF axisangle0 0.852286 -0.470227 -0.229119 -124.419823
DOCKED: USER    NEWDPF quat0 0.852286 -0.470227 -0.229119 -124.419823
DOCKED: USER    NEWDPF dihe0 -65.17 154.06 -165.40 -175.55 -109.42 -71.94 -166.60 81.62 -160.77 
DOCKED: USER  keepresnum = 1 
DOCKED: USER  
DOCKED: REMARK  Name = 
DOCKED: REMARK  9 active torsions:
DOCKED: REMARK  status: ('A' for Active; 'I' for Inactive)
DOCKED: REMARK    1  A    between atoms: C_2  and  C_5
DOCKED: REMARK    2  A    between atoms: N_3  and  O_4
DOCKED: REMARK    3  A    between atoms: C_5  and  C_6
DOCKED: REMARK    4  A    between atoms: C_6  and  C_7
DOCKED: REMARK    5  A    between atoms: C_7  and  C_8
DOCKED: REMARK    6  A    between atoms: C_8  and  C_9
DOCKED: REMARK    7  A    between atoms: C_9  and  C_10
DOCKED: REMARK    8  A    between atoms: C_10  and  C_11
DOCKED: REMARK    9  A    between atoms: N_12  and  C_13
DOCKED: REMARK                            x       y       z     vdW  Elec       q    Type
DOCKED: REMARK                         _______ _______ _______ _____ _____    ______ ____
DOCKED: USER                              x       y       z     vdW  Elec       q    Type
DOCKED: USER                           _______ _______ _______ _____ _____    ______ ____
DOCKED: ROOT
DOCKED: ATOM      1  C   UNL     1      36.506   8.512 122.837 -0.77 -0.00    +0.000 C 
DOCKED: ENDROOT
DOCKED: BRANCH   1   2
DOCKED: ATOM      2  C   UNL     1      35.833   7.314 123.525 -0.67 -0.00    +0.000 C 
DOCKED: BRANCH   2   3
DOCKED: ATOM      3  C   UNL     1      34.322   7.541 123.674 -0.67 -0.00    +0.000 C 
DOCKED: BRANCH   3   4
DOCKED: ATOM      4  C   UNL     1      33.497   6.764 122.631 -0.74 -0.00    +0.000 C 
DOCKED: BRANCH   4   5
DOCKED: ATOM      5  C   UNL     1      34.070   6.812 121.205 -0.14 -0.00    +0.000 C 
DOCKED: BRANCH   5   7
DOCKED: ATOM      6  O   UNL     1      32.905   7.357 119.190 -0.74 +0.00    +0.000 OA
DOCKED: ATOM      7  C   UNL     1      33.304   7.752 120.319 -0.58 -0.00    +0.000 C 
DOCKED: ATOM      8  N   UNL     1      33.052   9.097 120.734 -0.57 -0.00    +0.000 N 
DOCKED: ATOM      9  H   UNL     1      33.371   9.404 121.613 -0.07 -0.00    +0.000 HD
DOCKED: BRANCH   8  10
DOCKED: ATOM     10  O   UNL     1      32.379   9.951 119.929 -0.56 -0.00    +0.000 OA
DOCKED: ATOM     11  H   UNL     1      32.900  10.121 119.129 -0.60 -0.00    +0.000 HD
DOCKED: ENDBRANCH   8  10
DOCKED: ENDBRANCH   5   7
DOCKED: ENDBRANCH   4   5
DOCKED: ENDBRANCH   3   4
DOCKED: ENDBRANCH   2   3
DOCKED: ENDBRANCH   1   2
DOCKED: BRANCH   1  12
DOCKED: ATOM     12  C   UNL     1      35.577   9.731 122.754 -0.67 -0.00    +0.000 C 
DOCKED: BRANCH  12  13
DOCKED: ATOM     13  C   UNL     1      36.252  10.970 123.265 -0.69 -0.00    +0.000 C 
DOCKED: ATOM     14  N   UNL     1      35.584  12.239 123.188 -0.55 -0.00    +0.000 N 
DOCKED: ATOM     15  O   UNL     1      37.413  10.885 123.750 -0.66 -0.00    +0.000 OA
DOCKED: ATOM     16  H   UNL     1      34.604  12.239 123.096 -0.02 -0.00    +0.000 HD
DOCKED: BRANCH  14  17
DOCKED: ATOM     17  C   UNL     1      36.256  13.509 123.236 -0.50 -0.00    +0.000 A 
DOCKED: ATOM     18  C   UNL     1      37.557  13.624 122.728 -0.46 -0.00    +0.000 A 
DOCKED: ATOM     19  C   UNL     1      38.233  14.844 122.798 -0.36 -0.00    +0.000 A 
DOCKED: ATOM     20  C   UNL     1      37.606  15.939 123.394 -0.28 -0.00    +0.000 A 
DOCKED: ATOM     21  N   UNL     1      36.355  15.810 123.908 -0.37 -0.00    +0.000 NA
DOCKED: ATOM     22  C   UNL     1      35.673  14.635 123.847 -0.49 -0.00    +0.000 A 
DOCKED: ATOM     23  CM  UNL     1      36.931  14.756 123.335 +0.00 -0.00    +0.000 AC
DOCKED: ENDBRANCH  14  17
DOCKED: ENDBRANCH  12  13
DOCKED: ENDBRANCH   1  12
DOCKED: TORSDOF 9DOCKED: TER
DOCKED: ENDMDL
________________________________________________________________________________


	BEGINNING GENETIC ALGORITHM DOCKING 12 of 100
Run: 12 Seed: 641769455 1859556966 [ Run 12 of 100 GA/GALS ]
Beginning LAMARCKIAN GENETIC ALGORITHM (LGA), with a maximum of 2500000 energy evaluations.

Final-Value: -14.688


	FINAL GENETIC ALGORITHM DOCKED STATE
	_______________________________________________


Detailed state:  trans 35.363 13.778 121.295 quatxyzw 0.338273 -0.805653 -0.065051 -0.481938 center -0.029 -0.207 0.469 ntor 9 1.6797 126.7189 141.1063 -103.4891 180.0000 -166.7702 -42.3866 -164.2434 6.0095
State:	 35.363  13.778 121.295   0.386 -0.919 -0.074 -122.376      1.68  126.72  141.11 -103.49  180.00 -166.77  -42.39 -164.24    6.01

DOCKED: MODEL       12
DOCKED: USER    Run = 12
DOCKED: USER    DPF = ligand_dock.biased.dpf
DOCKED: USER  
DOCKED: USER    Estimated Free Energy of Binding    =  -10.23 kcal/mol  [=(1)+(2)+(3)-(4)]
DOCKED: USER    Estimated Inhibition Constant, Ki   =   31.49 nM (nanomolar)  [Temperature = 298.15 K]
DOCKED: USER    
DOCKED: USER    (1) Final Intermolecular Energy     =  -12.92 kcal/mol
DOCKED: USER        vdW + Hbond + desolv Energy     =  -12.92 kcal/mol
DOCKED: USER        Electrostatic Energy            =   +0.00 kcal/mol
DOCKED: USER    (2) Final Total Internal Energy     =   -1.77 kcal/mol
DOCKED: USER    (3) Torsional Free Energy           =   +2.68 kcal/mol
DOCKED: USER    (4) Unbound System's Energy  [=(2)] =   -1.77 kcal/mol
DOCKED: USER    
DOCKED: USER    
DOCKED: USER    NEWDPF move ligand.dum.pdbqt
DOCKED: USER    NEWDPF about -0.029000 -0.207000 0.469000
DOCKED: USER    NEWDPF tran0 35.362989 13.778115 121.294827
DOCKED: USER    NEWDPF quaternion0 0.338273 -0.805653 -0.065051 -0.481938
DOCKED: USER    NEWDPF axisangle0 0.386066 -0.919479 -0.074241 -122.375952
DOCKED: USER    NEWDPF quat0 0.386066 -0.919479 -0.074241 -122.375952
DOCKED: USER    NEWDPF dihe0 1.68 126.72 141.11 -103.49 180.00 -166.77 -42.39 -164.24 6.01 
DOCKED: USER  keepresnum = 1 
DOCKED: USER  
DOCKED: REMARK  Name = 
DOCKED: REMARK  9 active torsions:
DOCKED: REMARK  status: ('A' for Active; 'I' for Inactive)
DOCKED: REMARK    1  A    between atoms: C_2  and  C_5
DOCKED: REMARK    2  A    between atoms: N_3  and  O_4
DOCKED: REMARK    3  A    between atoms: C_5  and  C_6
DOCKED: REMARK    4  A    between atoms: C_6  and  C_7
DOCKED: REMARK    5  A    between atoms: C_7  and  C_8
DOCKED: REMARK    6  A    between atoms: C_8  and  C_9
DOCKED: REMARK    7  A    between atoms: C_9  and  C_10
DOCKED: REMARK    8  A    between atoms: C_10  and  C_11
DOCKED: REMARK    9  A    between atoms: N_12  and  C_13
DOCKED: REMARK                            x       y       z     vdW  Elec       q    Type
DOCKED: REMARK                         _______ _______ _______ _____ _____    ______ ____
DOCKED: USER                              x       y       z     vdW  Elec       q    Type
DOCKED: USER                           _______ _______ _______ _____ _____    ______ ____
DOCKED: ROOT
DOCKED: ATOM      1  C   UNL     1      38.233  14.047 122.702 -0.48 -0.00    +0.000 C 
DOCKED: ENDROOT
DOCKED: BRANCH   1   2
DOCKED: ATOM      2  C   UNL     1      36.840  14.363 123.269 -0.49 -0.00    +0.000 C 
DOCKED: BRANCH   2   3
DOCKED: ATOM      3  C   UNL     1      36.018  13.080 123.459 -0.62 -0.00    +0.000 C 
DOCKED: BRANCH   3   4
DOCKED: ATOM      4  C   UNL     1      36.843  11.802 123.217 -0.68 -0.00    +0.000 C 
DOCKED: BRANCH   4   5
DOCKED: ATOM      5  C   UNL     1      36.403  10.986 121.991 -0.62 -0.00    +0.000 C 
DOCKED: BRANCH   5   7
DOCKED: ATOM      6  O   UNL     1      36.936   8.858 121.040 -2.67 -0.00    +0.000 OA
DOCKED: ATOM      7  C   UNL     1      36.823   9.547 122.090 -0.67 -0.00    +0.000 C 
DOCKED: ATOM      8  N   UNL     1      37.064   8.948 123.366 -0.61 -0.00    +0.000 N 
DOCKED: ATOM      9  H   UNL     1      36.969   9.487 124.184 -0.55 -0.00    +0.000 HD
DOCKED: BRANCH   8  10
DOCKED: ATOM     10  O   UNL     1      37.423   7.646 123.459 -2.15 -0.00    +0.000 OA
DOCKED: ATOM     11  H   UNL     1      37.498   7.267 122.569 -0.21 -0.00    +0.000 HD
DOCKED: ENDBRANCH   8  10
DOCKED: ENDBRANCH   5   7
DOCKED: ENDBRANCH   4   5
DOCKED: ENDBRANCH   3   4
DOCKED: ENDBRANCH   2   3
DOCKED: ENDBRANCH   1   2
DOCKED: BRANCH   1  12
DOCKED: ATOM     12  C   UNL     1      38.644  15.023 121.592 -0.34 -0.00    +0.000 C 
DOCKED: BRANCH  12  13
DOCKED: ATOM     13  C   UNL     1      37.731  14.919 120.406 -0.28 -0.00    +0.000 C 
DOCKED: ATOM     14  N   UNL     1      37.765  13.751 119.571 -0.34 -0.00    +0.000 N 
DOCKED: ATOM     15  O   UNL     1      36.945  15.870 120.146 -0.21 -0.00    +0.000 OA
DOCKED: ATOM     16  H   UNL     1      38.145  12.925 119.948 -0.09 -0.00    +0.000 HD
DOCKED: BRANCH  14  17
DOCKED: ATOM     17  C   UNL     1      37.279  13.712 118.217 -0.36 -0.00    +0.000 A 
DOCKED: ATOM     18  C   UNL     1      38.192  13.743 117.154 -0.22 -0.00    +0.000 A 
DOCKED: ATOM     19  C   UNL     1      37.733  13.739 115.835 -0.37 -0.00    +0.000 A 
DOCKED: ATOM     20  C   UNL     1      36.359  13.721 115.590 -0.29 -0.00    +0.000 A 
DOCKED: ATOM     21  N   UNL     1      35.483  13.717 116.629 -0.33 -0.00    +0.000 NA
DOCKED: ATOM     22  C   UNL     1      35.904  13.715 117.922 -0.33 -0.00    +0.000 A 
DOCKED: ATOM     23  CM  UNL     1      36.789  13.724 116.884 +0.00 -0.00    +0.000 AC
DOCKED: ENDBRANCH  14  17
DOCKED: ENDBRANCH  12  13
DOCKED: ENDBRANCH   1  12
DOCKED: TORSDOF 9DOCKED: TER
DOCKED: ENDMDL
________________________________________________________________________________


	BEGINNING GENETIC ALGORITHM DOCKING 13 of 100
Run: 13 Seed: 1791040559 420615962 [ Run 13 of 100 GA/GALS ]
Beginning LAMARCKIAN GENETIC ALGORITHM (LGA), with a maximum of 2500000 energy evaluations.

Final-Value: -13.838


	FINAL GENETIC ALGORITHM DOCKED STATE
	_______________________________________________


Detailed state:  trans 39.140 14.121 124.074 quatxyzw 0.446529 0.025343 0.868796 -0.212514 center -0.029 -0.207 0.469 ntor 9 95.9482 -110.2914 176.8165 95.1362 -172.1989 107.4961 -177.3023 -50.1062 -25.5142
State:	 39.140  14.121 124.074   0.457  0.026  0.889 -155.461     95.95 -110.29  176.82   95.14 -172.20  107.50 -177.30  -50.11  -25.51

DOCKED: MODEL       13
DOCKED: USER    Run = 13
DOCKED: USER    DPF = ligand_dock.biased.dpf
DOCKED: USER  
DOCKED: USER    Estimated Free Energy of Binding    =  -10.24 kcal/mol  [=(1)+(2)+(3)-(4)]
DOCKED: USER    Estimated Inhibition Constant, Ki   =   31.05 nM (nanomolar)  [Temperature = 298.15 K]
DOCKED: USER    
DOCKED: USER    (1) Final Intermolecular Energy     =  -12.93 kcal/mol
DOCKED: USER        vdW + Hbond + desolv Energy     =  -12.93 kcal/mol
DOCKED: USER        Electrostatic Energy            =   +0.00 kcal/mol
DOCKED: USER    (2) Final Total Internal Energy     =   -0.91 kcal/mol
DOCKED: USER    (3) Torsional Free Energy           =   +2.68 kcal/mol
DOCKED: USER    (4) Unbound System's Energy  [=(2)] =   -0.91 kcal/mol
DOCKED: USER    
DOCKED: USER    
DOCKED: USER    NEWDPF move ligand.dum.pdbqt
DOCKED: USER    NEWDPF about -0.029000 -0.207000 0.469000
DOCKED: USER    NEWDPF tran0 39.139728 14.120658 124.074074
DOCKED: USER    NEWDPF quaternion0 0.446529 0.025343 0.868796 -0.212514
DOCKED: USER    NEWDPF axisangle0 0.456967 0.025936 0.889105 -155.460546
DOCKED: USER    NEWDPF quat0 0.456967 0.025936 0.889105 -155.460546
DOCKED: USER    NEWDPF dihe0 95.95 -110.29 176.82 95.14 -172.20 107.50 -177.30 -50.11 -25.51 
DOCKED: USER  keepresnum = 1 
DOCKED: USER  
DOCKED: REMARK  Name = 
DOCKED: REMARK  9 active torsions:
DOCKED: REMARK  status: ('A' for Active; 'I' for Inactive)
DOCKED: REMARK    1  A    between atoms: C_2  and  C_5
DOCKED: REMARK    2  A    between atoms: N_3  and  O_4
DOCKED: REMARK    3  A    between atoms: C_5  and  C_6
DOCKED: REMARK    4  A    between atoms: C_6  and  C_7
DOCKED: REMARK    5  A    between atoms: C_7  and  C_8
DOCKED: REMARK    6  A    between atoms: C_8  and  C_9
DOCKED: REMARK    7  A    between atoms: C_9  and  C_10
DOCKED: REMARK    8  A    between atoms: C_10  and  C_11
DOCKED: REMARK    9  A    between atoms: N_12  and  C_13
DOCKED: REMARK                            x       y       z     vdW  Elec       q    Type
DOCKED: REMARK                         _______ _______ _______ _____ _____    ______ ____
DOCKED: USER                              x       y       z     vdW  Elec       q    Type
DOCKED: USER                           _______ _______ _______ _____ _____    ______ ____
DOCKED: ROOT
DOCKED: ATOM      1  C   UNL     1      36.862  15.096 122.038 -0.31 -0.00    +0.000 C 
DOCKED: ENDROOT
DOCKED: BRANCH   1   2
DOCKED: ATOM      2  C   UNL     1      36.738  14.187 123.270 -0.51 -0.00    +0.000 C 
DOCKED: BRANCH   2   3
DOCKED: ATOM      3  C   UNL     1      37.474  12.858 123.051 -0.57 -0.00    +0.000 C 
DOCKED: BRANCH   3   4
DOCKED: ATOM      4  C   UNL     1      36.679  11.874 122.172 -0.61 -0.00    +0.000 C 
DOCKED: BRANCH   4   5
DOCKED: ATOM      5  C   UNL     1      36.047  10.703 122.942 -0.69 -0.00    +0.000 C 
DOCKED: BRANCH   5   7
DOCKED: ATOM      6  O   UNL     1      36.764   9.226 121.205 -2.65 -0.00    +0.000 OA
DOCKED: ATOM      7  C   UNL     1      36.519   9.371 122.433 -0.72 -0.00    +0.000 C 
DOCKED: ATOM      8  N   UNL     1      36.662   8.263 123.325 -0.70 -0.00    +0.000 N 
DOCKED: ATOM      9  H   UNL     1      36.463   8.379 124.282 -0.30 -0.00    +0.000 HD
DOCKED: BRANCH   8  10
DOCKED: ATOM     10  O   UNL     1      37.068   7.057 122.865 -1.79 -0.00    +0.000 OA
DOCKED: ATOM     11  H   UNL     1      38.025   6.967 122.994 -0.48 -0.00    +0.000 HD
DOCKED: ENDBRANCH   8  10
DOCKED: ENDBRANCH   5   7
DOCKED: ENDBRANCH   4   5
DOCKED: ENDBRANCH   3   4
DOCKED: ENDBRANCH   2   3
DOCKED: ENDBRANCH   1   2
DOCKED: BRANCH   1  12
DOCKED: ATOM     12  C   UNL     1      37.647  14.429 120.900 -0.35 -0.00    +0.000 C 
DOCKED: BRANCH  12  13
DOCKED: ATOM     13  C   UNL     1      39.095  14.818 120.931 -0.31 -0.00    +0.000 C 
DOCKED: ATOM     14  N   UNL     1      39.808  14.839 122.178 -0.39 -0.00    +0.000 N 
DOCKED: ATOM     15  O   UNL     1      39.674  15.135 119.857 -0.22 -0.00    +0.000 OA
DOCKED: ATOM     16  H   UNL     1      39.444  14.315 122.927 -0.04 -0.00    +0.000 HD
DOCKED: BRANCH  14  17
DOCKED: ATOM     17  C   UNL     1      41.022  15.579 122.401 -0.40 -0.00    +0.000 A 
DOCKED: ATOM     18  C   UNL     1      42.145  15.324 121.603 -0.27 -0.00    +0.000 A 
DOCKED: ATOM     19  C   UNL     1      43.339  16.011 121.830 -0.27 -0.00    +0.000 A 
DOCKED: ATOM     20  C   UNL     1      43.405  16.939 122.870 -0.34 -0.00    +0.000 A 
DOCKED: ATOM     21  N   UNL     1      42.318  17.159 123.655 -0.75 -0.00    +0.000 NA
DOCKED: ATOM     22  C   UNL     1      41.142  16.508 123.451 -0.26 -0.00    +0.000 A 
DOCKED: ATOM     23  CM  UNL     1      42.231  16.277 122.663 +0.00 -0.00    +0.000 AC
DOCKED: ENDBRANCH  14  17
DOCKED: ENDBRANCH  12  13
DOCKED: ENDBRANCH   1  12
DOCKED: TORSDOF 9DOCKED: TER
DOCKED: ENDMDL
________________________________________________________________________________


	BEGINNING GENETIC ALGORITHM DOCKING 14 of 100
Run: 14 Seed: 2110449295 457158506 [ Run 14 of 100 GA/GALS ]
Beginning LAMARCKIAN GENETIC ALGORITHM (LGA), with a maximum of 2500000 energy evaluations.

Final-Value: -13.265


	FINAL GENETIC ALGORITHM DOCKED STATE
	_______________________________________________


Detailed state:  trans 37.628 13.439 124.747 quatxyzw 0.138048 -0.076333 0.226445 -0.961165 center -0.029 -0.207 0.469 ntor 9 -26.3400 -170.4693 -178.5800 -154.3279 -39.8336 -47.7979 81.4253 179.0415 -16.7683
State:	 37.628  13.439 124.747   0.500 -0.277  0.821 -32.040    -26.34 -170.47 -178.58 -154.33  -39.83  -47.80   81.43  179.04  -16.77

DOCKED: MODEL       14
DOCKED: USER    Run = 14
DOCKED: USER    DPF = ligand_dock.biased.dpf
DOCKED: USER  
DOCKED: USER    Estimated Free Energy of Binding    =   -8.20 kcal/mol  [=(1)+(2)+(3)-(4)]
DOCKED: USER    Estimated Inhibition Constant, Ki   =  973.54 nM (nanomolar)  [Temperature = 298.15 K]
DOCKED: USER    
DOCKED: USER    (1) Final Intermolecular Energy     =  -10.89 kcal/mol
DOCKED: USER        vdW + Hbond + desolv Energy     =  -10.89 kcal/mol
DOCKED: USER        Electrostatic Energy            =   +0.00 kcal/mol
DOCKED: USER    (2) Final Total Internal Energy     =   -2.38 kcal/mol
DOCKED: USER    (3) Torsional Free Energy           =   +2.68 kcal/mol
DOCKED: USER    (4) Unbound System's Energy  [=(2)] =   -2.38 kcal/mol
DOCKED: USER    
DOCKED: USER    
DOCKED: USER    NEWDPF move ligand.dum.pdbqt
DOCKED: USER    NEWDPF about -0.029000 -0.207000 0.469000
DOCKED: USER    NEWDPF tran0 37.628129 13.438965 124.746898
DOCKED: USER    NEWDPF quaternion0 0.138048 -0.076333 0.226445 -0.961165
DOCKED: USER    NEWDPF axisangle0 0.500223 -0.276595 0.820532 -32.040131
DOCKED: USER    NEWDPF quat0 0.500223 -0.276595 0.820532 -32.040131
DOCKED: USER    NEWDPF dihe0 -26.34 -170.47 -178.58 -154.33 -39.83 -47.80 81.43 179.04 -16.77 
DOCKED: USER  keepresnum = 1 
DOCKED: USER  
DOCKED: REMARK  Name = 
DOCKED: REMARK  9 active torsions:
DOCKED: REMARK  status: ('A' for Active; 'I' for Inactive)
DOCKED: REMARK    1  A    between atoms: C_2  and  C_5
DOCKED: REMARK    2  A    between atoms: N_3  and  O_4
DOCKED: REMARK    3  A    between atoms: C_5  and  C_6
DOCKED: REMARK    4  A    between atoms: C_6  and  C_7
DOCKED: REMARK    5  A    between atoms: C_7  and  C_8
DOCKED: REMARK    6  A    between atoms: C_8  and  C_9
DOCKED: REMARK    7  A    between atoms: C_9  and  C_10
DOCKED: REMARK    8  A    between atoms: C_10  and  C_11
DOCKED: REMARK    9  A    between atoms: N_12  and  C_13
DOCKED: REMARK                            x       y       z     vdW  Elec       q    Type
DOCKED: REMARK                         _______ _______ _______ _____ _____    ______ ____
DOCKED: USER                              x       y       z     vdW  Elec       q    Type
DOCKED: USER                           _______ _______ _______ _____ _____    ______ ____
DOCKED: ROOT
DOCKED: ATOM      1  C   UNL     1      38.145  13.888 121.613 -0.43 -0.00    +0.000 C 
DOCKED: ENDROOT
DOCKED: BRANCH   1   2
DOCKED: ATOM      2  C   UNL     1      38.127  14.920 122.752 -0.41 -0.00    +0.000 C 
DOCKED: BRANCH   2   3
DOCKED: ATOM      3  C   UNL     1      38.106  16.351 122.198 -0.23 -0.00    +0.000 C 
DOCKED: BRANCH   3   4
DOCKED: ATOM      4  C   UNL     1      36.951  17.194 122.771 -0.23 -0.00    +0.000 C 
DOCKED: BRANCH   4   5
DOCKED: ATOM      5  C   UNL     1      36.467  16.748 124.160 -0.28 -0.00    +0.000 C 
DOCKED: BRANCH   5   7
DOCKED: ATOM      6  O   UNL     1      34.117  17.096 124.425 -0.49 -0.00    +0.000 OA
DOCKED: ATOM      7  C   UNL     1      35.038  16.285 124.139 -0.49 -0.00    +0.000 C 
DOCKED: ATOM      8  N   UNL     1      34.721  14.926 123.827 -0.58 -0.00    +0.000 N 
DOCKED: ATOM      9  H   UNL     1      35.444  14.293 123.610 -0.03 -0.00    +0.000 HD
DOCKED: BRANCH   8  10
DOCKED: ATOM     10  O   UNL     1      33.436  14.501 123.826 -0.51 -0.00    +0.000 OA
DOCKED: ATOM     11  H   UNL     1      32.912  15.054 124.426 -0.33 -0.00    +0.000 HD
DOCKED: ENDBRANCH   8  10
DOCKED: ENDBRANCH   5   7
DOCKED: ENDBRANCH   4   5
DOCKED: ENDBRANCH   3   4
DOCKED: ENDBRANCH   2   3
DOCKED: ENDBRANCH   1   2
DOCKED: BRANCH   1  12
DOCKED: ATOM     12  C   UNL     1      36.753  13.302 121.339 -0.31 -0.00    +0.000 C 
DOCKED: BRANCH  12  13
DOCKED: ATOM     13  C   UNL     1      36.467  12.129 122.228 -0.58 -0.00    +0.000 C 
DOCKED: ATOM     14  N   UNL     1      36.880  10.810 121.837 -0.55 -0.00    +0.000 N 
DOCKED: ATOM     15  O   UNL     1      35.854  12.312 123.315 -0.67 -0.00    +0.000 OA
DOCKED: ATOM     16  H   UNL     1      37.597  10.731 121.167 -0.03 -0.00    +0.000 HD
DOCKED: BRANCH  14  17
DOCKED: ATOM     17  C   UNL     1      36.312   9.597 122.362 -0.62 -0.00    +0.000 A 
DOCKED: ATOM     18  C   UNL     1      34.922   9.419 122.344 -0.57 -0.00    +0.000 A 
DOCKED: ATOM     19  C   UNL     1      34.355   8.261 122.879 -0.62 -0.00    +0.000 A 
DOCKED: ATOM     20  C   UNL     1      35.186   7.294 123.447 -0.65 -0.00    +0.000 A 
DOCKED: ATOM     21  N   UNL     1      36.531   7.489 123.484 -1.74 -0.00    +0.000 NA
DOCKED: ATOM     22  C   UNL     1      37.107   8.605 122.963 -0.54 -0.00    +0.000 A 
DOCKED: ATOM     23  CM  UNL     1      35.757   8.419 122.929 +0.00 -0.00    +0.000 AC
DOCKED: ENDBRANCH  14  17
DOCKED: ENDBRANCH  12  13
DOCKED: ENDBRANCH   1  12
DOCKED: TORSDOF 9DOCKED: TER
DOCKED: ENDMDL
________________________________________________________________________________


	BEGINNING GENETIC ALGORITHM DOCKING 15 of 100
Run: 15 Seed: 1819189116 990906059 [ Run 15 of 100 GA/GALS ]
Beginning LAMARCKIAN GENETIC ALGORITHM (LGA), with a maximum of 2500000 energy evaluations.

Final-Value: -14.214


	FINAL GENETIC ALGORITHM DOCKED STATE
	_______________________________________________


Detailed state:  trans 35.757 15.317 121.244 quatxyzw 0.459247 -0.567555 -0.662365 -0.168069 center -0.029 -0.207 0.469 ntor 9 52.7971 -177.5282 2.2886 88.2531 11.2351 15.4333 93.9640 -14.5140 31.8605
State:	 35.757  15.317 121.244   0.466 -0.576 -0.672 -160.649     52.80 -177.53    2.29   88.25   11.24   15.43   93.96  -14.51   31.86

DOCKED: MODEL       15
DOCKED: USER    Run = 15
DOCKED: USER    DPF = ligand_dock.biased.dpf
DOCKED: USER  
DOCKED: USER    Estimated Free Energy of Binding    =  -10.13 kcal/mol  [=(1)+(2)+(3)-(4)]
DOCKED: USER    Estimated Inhibition Constant, Ki   =   37.43 nM (nanomolar)  [Temperature = 298.15 K]
DOCKED: USER    
DOCKED: USER    (1) Final Intermolecular Energy     =  -12.82 kcal/mol
DOCKED: USER        vdW + Hbond + desolv Energy     =  -12.82 kcal/mol
DOCKED: USER        Electrostatic Energy            =   +0.00 kcal/mol
DOCKED: USER    (2) Final Total Internal Energy     =   -1.40 kcal/mol
DOCKED: USER    (3) Torsional Free Energy           =   +2.68 kcal/mol
DOCKED: USER    (4) Unbound System's Energy  [=(2)] =   -1.40 kcal/mol
DOCKED: USER    
DOCKED: USER    
DOCKED: USER    NEWDPF move ligand.dum.pdbqt
DOCKED: USER    NEWDPF about -0.029000 -0.207000 0.469000
DOCKED: USER    NEWDPF tran0 35.757059 15.317338 121.243615
DOCKED: USER    NEWDPF quaternion0 0.459247 -0.567555 -0.662365 -0.168069
DOCKED: USER    NEWDPF axisangle0 0.465874 -0.575745 -0.671923 -160.648833
DOCKED: USER    NEWDPF quat0 0.465874 -0.575745 -0.671923 -160.648833
DOCKED: USER    NEWDPF dihe0 52.80 -177.53 2.29 88.25 11.24 15.43 93.96 -14.51 31.86 
DOCKED: USER  keepresnum = 1 
DOCKED: USER  
DOCKED: REMARK  Name = 
DOCKED: REMARK  9 active torsions:
DOCKED: REMARK  status: ('A' for Active; 'I' for Inactive)
DOCKED: REMARK    1  A    between atoms: C_2  and  C_5
DOCKED: REMARK    2  A    between atoms: N_3  and  O_4
DOCKED: REMARK    3  A    between atoms: C_5  and  C_6
DOCKED: REMARK    4  A    between atoms: C_6  and  C_7
DOCKED: REMARK    5  A    between atoms: C_7  and  C_8
DOCKED: REMARK    6  A    between atoms: C_8  and  C_9
DOCKED: REMARK    7  A    between atoms: C_9  and  C_10
DOCKED: REMARK    8  A    between atoms: C_10  and  C_11
DOCKED: REMARK    9  A    between atoms: N_12  and  C_13
DOCKED: REMARK                            x       y       z     vdW  Elec       q    Type
DOCKED: REMARK                         _______ _______ _______ _____ _____    ______ ____
DOCKED: USER                              x       y       z     vdW  Elec       q    Type
DOCKED: USER                           _______ _______ _______ _____ _____    ______ ____
DOCKED: ROOT
DOCKED: ATOM      1  C   UNL     1      38.457  13.612 120.938 -0.40 -0.00    +0.000 C 
DOCKED: ENDROOT
DOCKED: BRANCH   1   2
DOCKED: ATOM      2  C   UNL     1      37.153  13.245 121.664 -0.48 -0.00    +0.000 C 
DOCKED: BRANCH   2   3
DOCKED: ATOM      3  C   UNL     1      37.410  12.209 122.768 -0.53 -0.00    +0.000 C 
DOCKED: BRANCH   3   4
DOCKED: ATOM      4  C   UNL     1      36.110  11.634 123.359 -0.70 -0.00    +0.000 C 
DOCKED: BRANCH   4   5
DOCKED: ATOM      5  C   UNL     1      35.426  10.576 122.478 -0.62 -0.00    +0.000 C 
DOCKED: BRANCH   5   7
DOCKED: ATOM      6  O   UNL     1      36.922   9.187 121.235 -2.67 -0.00    +0.000 OA
DOCKED: ATOM      7  C   UNL     1      36.275   9.349 122.304 -0.71 -0.00    +0.000 C 
DOCKED: ATOM      8  N   UNL     1      36.330   8.354 123.329 -0.65 -0.00    +0.000 N 
DOCKED: ATOM      9  H   UNL     1      35.818   8.481 124.161 -0.14 -0.00    +0.000 HD
DOCKED: BRANCH   8  10
DOCKED: ATOM     10  O   UNL     1      37.079   7.238 123.167 -2.04 -0.00    +0.000 OA
DOCKED: ATOM     11  H   UNL     1      37.985   7.489 122.927 -0.33 -0.00    +0.000 HD
DOCKED: ENDBRANCH   8  10
DOCKED: ENDBRANCH   5   7
DOCKED: ENDBRANCH   4   5
DOCKED: ENDBRANCH   3   4
DOCKED: ENDBRANCH   2   3
DOCKED: ENDBRANCH   1   2
DOCKED: BRANCH   1  12
DOCKED: ATOM     12  C   UNL     1      39.210  14.751 121.638 -0.37 -0.00    +0.000 C 
DOCKED: BRANCH  12  13
DOCKED: ATOM     13  C   UNL     1      38.265  15.779 122.185 -0.29 -0.00    +0.000 C 
DOCKED: ATOM     14  N   UNL     1      37.582  15.542 123.426 -0.35 -0.00    +0.000 N 
DOCKED: ATOM     15  O   UNL     1      38.069  16.845 121.540 -0.15 -0.00    +0.000 OA
DOCKED: ATOM     16  H   UNL     1      37.963  14.875 124.042 -0.02 -0.00    +0.000 HD
DOCKED: BRANCH  14  17
DOCKED: ATOM     17  C   UNL     1      36.376  16.216 123.826 -0.32 -0.00    +0.000 A 
DOCKED: ATOM     18  C   UNL     1      36.402  17.596 124.067 -0.23 -0.00    +0.000 A 
DOCKED: ATOM     19  C   UNL     1      35.247  18.258 124.487 -0.27 -0.00    +0.000 A 
DOCKED: ATOM     20  C   UNL     1      34.074  17.526 124.681 -0.38 -0.00    +0.000 A 
DOCKED: ATOM     21  N   UNL     1      34.067  16.184 124.471 -0.52 -0.00    +0.000 NA
DOCKED: ATOM     22  C   UNL     1      35.177  15.518 124.055 -0.49 -0.00    +0.000 A 
DOCKED: ATOM     23  CM  UNL     1      35.193  16.864 124.270 -0.18 -0.00    +0.000 AC
DOCKED: ENDBRANCH  14  17
DOCKED: ENDBRANCH  12  13
DOCKED: ENDBRANCH   1  12
DOCKED: TORSDOF 9DOCKED: TER
DOCKED: ENDMDL
________________________________________________________________________________


	BEGINNING GENETIC ALGORITHM DOCKING 16 of 100
Run: 16 Seed: 1193330474 740321929 [ Run 16 of 100 GA/GALS ]
Beginning LAMARCKIAN GENETIC ALGORITHM (LGA), with a maximum of 2500000 energy evaluations.

Final-Value: -13.074


	FINAL GENETIC ALGORITHM DOCKED STATE
	_______________________________________________


Detailed state:  trans 35.894 15.528 124.295 quatxyzw -0.250768 -0.243731 0.269984 -0.897117 center -0.029 -0.207 0.469 ntor 9 -0.9357 -157.9882 -137.6190 -126.3193 -168.4272 141.6957 -91.2121 139.2913 -70.3392
State:	 35.894  15.528 124.295  -0.568 -0.552  0.611 -52.437     -0.94 -157.99 -137.62 -126.32 -168.43  141.70  -91.21  139.29  -70.34

DOCKED: MODEL       16
DOCKED: USER    Run = 16
DOCKED: USER    DPF = ligand_dock.biased.dpf
DOCKED: USER  
DOCKED: USER    Estimated Free Energy of Binding    =   -8.94 kcal/mol  [=(1)+(2)+(3)-(4)]
DOCKED: USER    Estimated Inhibition Constant, Ki   =  279.30 nM (nanomolar)  [Temperature = 298.15 K]
DOCKED: USER    
DOCKED: USER    (1) Final Intermolecular Energy     =  -11.63 kcal/mol
DOCKED: USER        vdW + Hbond + desolv Energy     =  -11.63 kcal/mol
DOCKED: USER        Electrostatic Energy            =   +0.00 kcal/mol
DOCKED: USER    (2) Final Total Internal Energy     =   -1.45 kcal/mol
DOCKED: USER    (3) Torsional Free Energy           =   +2.68 kcal/mol
DOCKED: USER    (4) Unbound System's Energy  [=(2)] =   -1.45 kcal/mol
DOCKED: USER    
DOCKED: USER    
DOCKED: USER    NEWDPF move ligand.dum.pdbqt
DOCKED: USER    NEWDPF about -0.029000 -0.207000 0.469000
DOCKED: USER    NEWDPF tran0 35.894157 15.527552 124.294737
DOCKED: USER    NEWDPF quaternion0 -0.250768 -0.243731 0.269984 -0.897117
DOCKED: USER    NEWDPF axisangle0 -0.567614 -0.551687 0.611111 -52.436632
DOCKED: USER    NEWDPF quat0 -0.567614 -0.551687 0.611111 -52.436632
DOCKED: USER    NEWDPF dihe0 -0.94 -157.99 -137.62 -126.32 -168.43 141.70 -91.21 139.29 -70.34 
DOCKED: USER  keepresnum = 1 
DOCKED: USER  
DOCKED: REMARK  Name = 
DOCKED: REMARK  9 active torsions:
DOCKED: REMARK  status: ('A' for Active; 'I' for Inactive)
DOCKED: REMARK    1  A    between atoms: C_2  and  C_5
DOCKED: REMARK    2  A    between atoms: N_3  and  O_4
DOCKED: REMARK    3  A    between atoms: C_5  and  C_6
DOCKED: REMARK    4  A    between atoms: C_6  and  C_7
DOCKED: REMARK    5  A    between atoms: C_7  and  C_8
DOCKED: REMARK    6  A    between atoms: C_8  and  C_9
DOCKED: REMARK    7  A    between atoms: C_9  and  C_10
DOCKED: REMARK    8  A    between atoms: C_10  and  C_11
DOCKED: REMARK    9  A    between atoms: N_12  and  C_13
DOCKED: REMARK                            x       y       z     vdW  Elec       q    Type
DOCKED: REMARK                         _______ _______ _______ _____ _____    ______ ____
DOCKED: USER                              x       y       z     vdW  Elec       q    Type
DOCKED: USER                           _______ _______ _______ _____ _____    ______ ____
DOCKED: ROOT
DOCKED: ATOM      1  C   UNL     1      37.900  14.098 122.240 -0.46 -0.00    +0.000 C 
DOCKED: ENDROOT
DOCKED: BRANCH   1   2
DOCKED: ATOM      2  C   UNL     1      37.516  15.582 122.348 -0.32 -0.00    +0.000 C 
DOCKED: BRANCH   2   3
DOCKED: ATOM      3  C   UNL     1      36.924  15.899 123.729 -0.32 -0.00    +0.000 C 
DOCKED: BRANCH   3   4
DOCKED: ATOM      4  C   UNL     1      35.915  14.836 124.203 -0.48 -0.00    +0.000 C 
DOCKED: BRANCH   4   5
DOCKED: ATOM      5  C   UNL     1      34.442  15.249 124.054 -0.59 -0.00    +0.000 C 
DOCKED: BRANCH   5   7
DOCKED: ATOM      6  O   UNL     1      33.688  15.806 126.253 -0.98 -0.00    +0.000 OA
DOCKED: ATOM      7  C   UNL     1      34.018  16.227 125.112 -0.47 -0.00    +0.000 C 
DOCKED: ATOM      8  N   UNL     1      33.958  17.626 124.823 -0.40 -0.00    +0.000 N 
DOCKED: ATOM      9  H   UNL     1      34.210  17.951 123.929 -0.02 -0.00    +0.000 HD
DOCKED: BRANCH   8  10
DOCKED: ATOM     10  O   UNL     1      33.558  18.508 125.769 -0.38 -0.00    +0.000 OA
DOCKED: ATOM     11  H   UNL     1      33.332  18.030 126.582 -0.01 -0.00    +0.000 HD
DOCKED: ENDBRANCH   8  10
DOCKED: ENDBRANCH   5   7
DOCKED: ENDBRANCH   4   5
DOCKED: ENDBRANCH   3   4
DOCKED: ENDBRANCH   2   3
DOCKED: ENDBRANCH   1   2
DOCKED: BRANCH   1  12
DOCKED: ATOM     12  C   UNL     1      36.730  13.228 121.762 -0.40 -0.00    +0.000 C 
DOCKED: BRANCH  12  13
DOCKED: ATOM     13  C   UNL     1      36.681  11.923 122.500 -0.64 -0.00    +0.000 C 
DOCKED: ATOM     14  N   UNL     1      36.649  10.685 121.773 -0.55 -0.00    +0.000 N 
DOCKED: ATOM     15  O   UNL     1      36.657  11.926 123.761 -0.74 -0.00    +0.000 OA
DOCKED: ATOM     16  H   UNL     1      36.967  10.689 120.841 -0.02 -0.00    +0.000 HD
DOCKED: BRANCH  14  17
DOCKED: ATOM     17  C   UNL     1      36.182   9.439 122.319 -0.62 -0.00    +0.000 A 
DOCKED: ATOM     18  C   UNL     1      34.805   9.185 122.386 -0.58 -0.00    +0.000 A 
DOCKED: ATOM     19  C   UNL     1      34.337   7.994 122.943 -0.63 -0.00    +0.000 A 
DOCKED: ATOM     20  C   UNL     1      35.253   7.070 123.448 -0.66 -0.00    +0.000 A 
DOCKED: ATOM     21  N   UNL     1      36.585   7.338 123.403 -1.75 -0.00    +0.000 NA
DOCKED: ATOM     22  C   UNL     1      37.066   8.487 122.859 -0.60 -0.00    +0.000 A 
DOCKED: ATOM     23  CM  UNL     1      35.729   8.228 122.907 +0.00 -0.00    +0.000 AC
DOCKED: ENDBRANCH  14  17
DOCKED: ENDBRANCH  12  13
DOCKED: ENDBRANCH   1  12
DOCKED: TORSDOF 9DOCKED: TER
DOCKED: ENDMDL
________________________________________________________________________________


	BEGINNING GENETIC ALGORITHM DOCKING 17 of 100
Run: 17 Seed: 775201307 967253074 [ Run 17 of 100 GA/GALS ]
Beginning LAMARCKIAN GENETIC ALGORITHM (LGA), with a maximum of 2500000 energy evaluations.

Final-Value: -13.885


	FINAL GENETIC ALGORITHM DOCKED STATE
	_______________________________________________


Detailed state:  trans 35.453 11.557 120.202 quatxyzw -0.529252 -0.810811 0.213816 -0.129464 center -0.029 -0.207 0.469 ntor 9 7.8635 177.1950 -20.0315 94.8839 74.7918 -11.0491 95.0329 -163.6356 -14.2275
State:	 35.453  11.557 120.202  -0.534 -0.818  0.216 -165.123      7.86  177.20  -20.03   94.88   74.79  -11.05   95.03 -163.64  -14.23

DOCKED: MODEL       17
DOCKED: USER    Run = 17
DOCKED: USER    DPF = ligand_dock.biased.dpf
DOCKED: USER  
DOCKED: USER    Estimated Free Energy of Binding    =   -9.84 kcal/mol  [=(1)+(2)+(3)-(4)]
DOCKED: USER    Estimated Inhibition Constant, Ki   =   61.58 nM (nanomolar)  [Temperature = 298.15 K]
DOCKED: USER    
DOCKED: USER    (1) Final Intermolecular Energy     =  -12.52 kcal/mol
DOCKED: USER        vdW + Hbond + desolv Energy     =  -12.52 kcal/mol
DOCKED: USER        Electrostatic Energy            =   +0.00 kcal/mol
DOCKED: USER    (2) Final Total Internal Energy     =   -1.36 kcal/mol
DOCKED: USER    (3) Torsional Free Energy           =   +2.68 kcal/mol
DOCKED: USER    (4) Unbound System's Energy  [=(2)] =   -1.36 kcal/mol
DOCKED: USER    
DOCKED: USER    
DOCKED: USER    NEWDPF move ligand.dum.pdbqt
DOCKED: USER    NEWDPF about -0.029000 -0.207000 0.469000
DOCKED: USER    NEWDPF tran0 35.453431 11.556932 120.201958
DOCKED: USER    NEWDPF quaternion0 -0.529252 -0.810811 0.213816 -0.129464
DOCKED: USER    NEWDPF axisangle0 -0.533744 -0.817693 0.215631 -165.122720
DOCKED: USER    NEWDPF quat0 -0.533744 -0.817693 0.215631 -165.122720
DOCKED: USER    NEWDPF dihe0 7.86 177.20 -20.03 94.88 74.79 -11.05 95.03 -163.64 -14.23 
DOCKED: USER  keepresnum = 1 
DOCKED: USER  
DOCKED: REMARK  Name = 
DOCKED: REMARK  9 active torsions:
DOCKED: REMARK  status: ('A' for Active; 'I' for Inactive)
DOCKED: REMARK    1  A    between atoms: C_2  and  C_5
DOCKED: REMARK    2  A    between atoms: N_3  and  O_4
DOCKED: REMARK    3  A    between atoms: C_5  and  C_6
DOCKED: REMARK    4  A    between atoms: C_6  and  C_7
DOCKED: REMARK    5  A    between atoms: C_7  and  C_8
DOCKED: REMARK    6  A    between atoms: C_8  and  C_9
DOCKED: REMARK    7  A    between atoms: C_9  and  C_10
DOCKED: REMARK    8  A    between atoms: C_10  and  C_11
DOCKED: REMARK    9  A    between atoms: N_12  and  C_13
DOCKED: REMARK                            x       y       z     vdW  Elec       q    Type
DOCKED: REMARK                         _______ _______ _______ _____ _____    ______ ____
DOCKED: USER                              x       y       z     vdW  Elec       q    Type
DOCKED: USER                           _______ _______ _______ _____ _____    ______ ____
DOCKED: ROOT
DOCKED: ATOM      1  C   UNL     1      36.375  12.008 123.241 -0.69 -0.00    +0.000 C 
DOCKED: ENDROOT
DOCKED: BRANCH   1   2
DOCKED: ATOM      2  C   UNL     1      36.702  12.843 121.993 -0.51 -0.00    +0.000 C 
DOCKED: BRANCH   2   3
DOCKED: ATOM      3  C   UNL     1      38.026  13.600 122.168 -0.46 -0.00    +0.000 C 
DOCKED: BRANCH   3   4
DOCKED: ATOM      4  C   UNL     1      38.601  14.111 120.834 -0.36 -0.00    +0.000 C 
DOCKED: BRANCH   4   5
DOCKED: ATOM      5  C   UNL     1      39.242  15.507 120.912 -0.25 -0.00    +0.000 C 
DOCKED: BRANCH   5   7
DOCKED: ATOM      6  O   UNL     1      39.624  16.414 123.090 -0.31 -0.00    +0.000 OA
DOCKED: ATOM      7  C   UNL     1      40.060  15.685 122.159 -0.35 -0.00    +0.000 C 
DOCKED: ATOM      8  N   UNL     1      41.339  15.059 122.282 -0.47 -0.00    +0.000 N 
DOCKED: ATOM      9  H   UNL     1      41.679  14.495 121.550 -0.02 -0.00    +0.000 HD
DOCKED: BRANCH   8  10
DOCKED: ATOM     10  O   UNL     1      42.087  15.233 123.397 -1.07 +0.00    +0.000 OA
DOCKED: ATOM     11  H   UNL     1      41.566  15.706 124.065 +0.02 +0.00    +0.000 HD
DOCKED: ENDBRANCH   8  10
DOCKED: ENDBRANCH   5   7
DOCKED: ENDBRANCH   4   5
DOCKED: ENDBRANCH   3   4
DOCKED: ENDBRANCH   2   3
DOCKED: ENDBRANCH   1   2
DOCKED: BRANCH   1  12
DOCKED: ATOM     12  C   UNL     1      37.039  10.625 123.205 -0.60 -0.00    +0.000 C 
DOCKED: BRANCH  12  13
DOCKED: ATOM     13  C   UNL     1      36.220   9.645 122.418 -0.70 -0.00    +0.000 C 
DOCKED: ATOM     14  N   UNL     1      34.959   9.184 122.930 -0.59 -0.00    +0.000 N 
DOCKED: ATOM     15  O   UNL     1      36.654   9.224 121.311 -2.50 -0.00    +0.000 OA
DOCKED: ATOM     16  H   UNL     1      34.511   9.732 123.614 -0.50 -0.00    +0.000 HD
DOCKED: BRANCH  14  17
DOCKED: ATOM     17  C   UNL     1      34.310   7.972 122.506 -0.62 -0.00    +0.000 A 
DOCKED: ATOM     18  C   UNL     1      33.979   7.800 121.155 -0.55 -0.00    +0.000 A 
DOCKED: ATOM     19  C   UNL     1      33.320   6.643 120.736 -0.34 -0.00    +0.000 A 
DOCKED: ATOM     20  C   UNL     1      32.980   5.671 121.679 -0.33 -0.00    +0.000 A 
DOCKED: ATOM     21  N   UNL     1      33.282   5.860 122.990 -0.65 -0.00    +0.000 NA
DOCKED: ATOM     22  C   UNL     1      33.929   6.975 123.423 -0.67 -0.00    +0.000 A 
DOCKED: ATOM     23  CM  UNL     1      33.624   6.794 122.106 +0.00 -0.00    +0.000 AC
DOCKED: ENDBRANCH  14  17
DOCKED: ENDBRANCH  12  13
DOCKED: ENDBRANCH   1  12
DOCKED: TORSDOF 9DOCKED: TER
DOCKED: ENDMDL
________________________________________________________________________________


	BEGINNING GENETIC ALGORITHM DOCKING 18 of 100
Run: 18 Seed: 1628399663 417249899 [ Run 18 of 100 GA/GALS ]
Beginning LAMARCKIAN GENETIC ALGORITHM (LGA), with a maximum of 2500000 energy evaluations.

Final-Value: -14.150


	FINAL GENETIC ALGORITHM DOCKED STATE
	_______________________________________________


Detailed state:  trans 35.436 12.271 121.331 quatxyzw -0.574531 0.698110 -0.145709 0.401653 center -0.029 -0.207 0.469 ntor 9 18.4078 109.2827 -178.8630 50.4882 -136.9769 150.9587 -23.1275 74.8642 -27.2226
State:	 35.436  12.271 121.331  -0.627  0.762 -0.159 132.637     18.41  109.28 -178.86   50.49 -136.98  150.96  -23.13   74.86  -27.22

DOCKED: MODEL       18
DOCKED: USER    Run = 18
DOCKED: USER    DPF = ligand_dock.biased.dpf
DOCKED: USER  
DOCKED: USER    Estimated Free Energy of Binding    =   -9.88 kcal/mol  [=(1)+(2)+(3)-(4)]
DOCKED: USER    Estimated Inhibition Constant, Ki   =   57.43 nM (nanomolar)  [Temperature = 298.15 K]
DOCKED: USER    
DOCKED: USER    (1) Final Intermolecular Energy     =  -12.56 kcal/mol
DOCKED: USER        vdW + Hbond + desolv Energy     =  -12.56 kcal/mol
DOCKED: USER        Electrostatic Energy            =   +0.00 kcal/mol
DOCKED: USER    (2) Final Total Internal Energy     =   -1.59 kcal/mol
DOCKED: USER    (3) Torsional Free Energy           =   +2.68 kcal/mol
DOCKED: USER    (4) Unbound System's Energy  [=(2)] =   -1.59 kcal/mol
DOCKED: USER    
DOCKED: USER    
DOCKED: USER    NEWDPF move ligand.dum.pdbqt
DOCKED: USER    NEWDPF about -0.029000 -0.207000 0.469000
DOCKED: USER    NEWDPF tran0 35.435528 12.270561 121.331249
DOCKED: USER    NEWDPF quaternion0 -0.574531 0.698110 -0.145709 0.401653
DOCKED: USER    NEWDPF axisangle0 -0.627360 0.762302 -0.159107 132.636920
DOCKED: USER    NEWDPF quat0 -0.627360 0.762302 -0.159107 132.636920
DOCKED: USER    NEWDPF dihe0 18.41 109.28 -178.86 50.49 -136.98 150.96 -23.13 74.86 -27.22 
DOCKED: USER  keepresnum = 1 
DOCKED: USER  
DOCKED: REMARK  Name = 
DOCKED: REMARK  9 active torsions:
DOCKED: REMARK  status: ('A' for Active; 'I' for Inactive)
DOCKED: REMARK    1  A    between atoms: C_2  and  C_5
DOCKED: REMARK    2  A    between atoms: N_3  and  O_4
DOCKED: REMARK    3  A    between atoms: C_5  and  C_6
DOCKED: REMARK    4  A    between atoms: C_6  and  C_7
DOCKED: REMARK    5  A    between atoms: C_7  and  C_8
DOCKED: REMARK    6  A    between atoms: C_8  and  C_9
DOCKED: REMARK    7  A    between atoms: C_9  and  C_10
DOCKED: REMARK    8  A    between atoms: C_10  and  C_11
DOCKED: REMARK    9  A    between atoms: N_12  and  C_13
DOCKED: REMARK                            x       y       z     vdW  Elec       q    Type
DOCKED: REMARK                         _______ _______ _______ _____ _____    ______ ____
DOCKED: USER                              x       y       z     vdW  Elec       q    Type
DOCKED: USER                           _______ _______ _______ _____ _____    ______ ____
DOCKED: ROOT
DOCKED: ATOM      1  C   UNL     1      37.204  14.207 123.178 -0.50 -0.00    +0.000 C 
DOCKED: ENDROOT
DOCKED: BRANCH   1   2
DOCKED: ATOM      2  C   UNL     1      35.825  13.591 123.459 -0.55 -0.00    +0.000 C 
DOCKED: BRANCH   2   3
DOCKED: ATOM      3  C   UNL     1      35.961  12.201 124.097 -0.52 -0.00    +0.000 C 
DOCKED: BRANCH   3   4
DOCKED: ATOM      4  C   UNL     1      37.178  11.420 123.568 -0.58 -0.00    +0.000 C 
DOCKED: BRANCH   4   5
DOCKED: ATOM      5  C   UNL     1      37.041  10.938 122.115 -0.55 -0.00    +0.000 C 
DOCKED: BRANCH   5   7
DOCKED: ATOM      6  O   UNL     1      37.064   8.894 120.874 -2.72 -0.00    +0.000 OA
DOCKED: ATOM      7  C   UNL     1      37.065   9.440 122.011 -0.63 -0.00    +0.000 C 
DOCKED: ATOM      8  N   UNL     1      37.059   8.631 123.190 -0.69 -0.00    +0.000 N 
DOCKED: ATOM      9  H   UNL     1      37.053   9.060 124.076 -0.52 -0.00    +0.000 HD
DOCKED: BRANCH   8  10
DOCKED: ATOM     10  O   UNL     1      37.061   7.280 123.099 -2.10 -0.00    +0.000 OA
DOCKED: ATOM     11  H   UNL     1      37.354   7.016 122.213 -0.20 -0.00    +0.000 HD
DOCKED: ENDBRANCH   8  10
DOCKED: ENDBRANCH   5   7
DOCKED: ENDBRANCH   4   5
DOCKED: ENDBRANCH   3   4
DOCKED: ENDBRANCH   2   3
DOCKED: ENDBRANCH   1   2
DOCKED: BRANCH   1  12
DOCKED: ATOM     12  C   UNL     1      37.155  15.256 122.059 -0.33 -0.00    +0.000 C 
DOCKED: BRANCH  12  13
DOCKED: ATOM     13  C   UNL     1      37.551  14.667 120.738 -0.32 -0.00    +0.000 C 
DOCKED: ATOM     14  N   UNL     1      37.347  15.411 119.527 -0.20 -0.00    +0.000 N 
DOCKED: ATOM     15  O   UNL     1      38.054  13.511 120.702 -0.43 -0.00    +0.000 OA
DOCKED: ATOM     16  H   UNL     1      37.245  16.388 119.596 +0.00 -0.00    +0.000 HD
DOCKED: BRANCH  14  17
DOCKED: ATOM     17  C   UNL     1      37.279  14.819 118.217 -0.24 -0.00    +0.000 A 
DOCKED: ATOM     18  C   UNL     1      38.382  14.914 117.357 -0.19 -0.00    +0.000 A 
DOCKED: ATOM     19  C   UNL     1      38.318  14.373 116.072 -0.30 -0.00    +0.000 A 
DOCKED: ATOM     20  C   UNL     1      37.141  13.754 115.649 -0.34 -0.00    +0.000 A 
DOCKED: ATOM     21  N   UNL     1      36.068  13.692 116.481 -0.34 -0.00    +0.000 NA
DOCKED: ATOM     22  C   UNL     1      36.107  14.205 117.739 -0.33 -0.00    +0.000 A 
DOCKED: ATOM     23  CM  UNL     1      37.185  14.277 116.908 +0.00 -0.00    +0.000 AC
DOCKED: ENDBRANCH  14  17
DOCKED: ENDBRANCH  12  13
DOCKED: ENDBRANCH   1  12
DOCKED: TORSDOF 9DOCKED: TER
DOCKED: ENDMDL
________________________________________________________________________________


	BEGINNING GENETIC ALGORITHM DOCKING 19 of 100
Run: 19 Seed: 395765499 1838279669 [ Run 19 of 100 GA/GALS ]
Beginning LAMARCKIAN GENETIC ALGORITHM (LGA), with a maximum of 2500000 energy evaluations.

Final-Value: -14.706


	FINAL GENETIC ALGORITHM DOCKED STATE
	_______________________________________________


Detailed state:  trans 36.133 12.379 121.136 quatxyzw 0.297848 -0.821521 0.231288 -0.427663 center -0.029 -0.207 0.469 ntor 9 -4.8292 149.9183 121.6734 93.5766 -144.1706 138.4893 -27.8892 167.0959 51.6458
State:	 36.133  12.379 121.136   0.330 -0.909  0.256 -129.361     -4.83  149.92  121.67   93.58 -144.17  138.49  -27.89  167.10   51.65

DOCKED: MODEL       19
DOCKED: USER    Run = 19
DOCKED: USER    DPF = ligand_dock.biased.dpf
DOCKED: USER  
DOCKED: USER    Estimated Free Energy of Binding    =  -10.30 kcal/mol  [=(1)+(2)+(3)-(4)]
DOCKED: USER    Estimated Inhibition Constant, Ki   =   27.96 nM (nanomolar)  [Temperature = 298.15 K]
DOCKED: USER    
DOCKED: USER    (1) Final Intermolecular Energy     =  -12.99 kcal/mol
DOCKED: USER        vdW + Hbond + desolv Energy     =  -12.99 kcal/mol
DOCKED: USER        Electrostatic Energy            =   +0.00 kcal/mol
DOCKED: USER    (2) Final Total Internal Energy     =   -1.72 kcal/mol
DOCKED: USER    (3) Torsional Free Energy           =   +2.68 kcal/mol
DOCKED: USER    (4) Unbound System's Energy  [=(2)] =   -1.72 kcal/mol
DOCKED: USER    
DOCKED: USER    
DOCKED: USER    NEWDPF move ligand.dum.pdbqt
DOCKED: USER    NEWDPF about -0.029000 -0.207000 0.469000
DOCKED: USER    NEWDPF tran0 36.132896 12.379303 121.135555
DOCKED: USER    NEWDPF quaternion0 0.297848 -0.821521 0.231288 -0.427663
DOCKED: USER    NEWDPF axisangle0 0.329501 -0.908824 0.255867 -129.361293
DOCKED: USER    NEWDPF quat0 0.329501 -0.908824 0.255867 -129.361293
DOCKED: USER    NEWDPF dihe0 -4.83 149.92 121.67 93.58 -144.17 138.49 -27.89 167.10 51.65 
DOCKED: USER  keepresnum = 1 
DOCKED: USER  
DOCKED: REMARK  Name = 
DOCKED: REMARK  9 active torsions:
DOCKED: REMARK  status: ('A' for Active; 'I' for Inactive)
DOCKED: REMARK    1  A    between atoms: C_2  and  C_5
DOCKED: REMARK    2  A    between atoms: N_3  and  O_4
DOCKED: REMARK    3  A    between atoms: C_5  and  C_6
DOCKED: REMARK    4  A    between atoms: C_6  and  C_7
DOCKED: REMARK    5  A    between atoms: C_7  and  C_8
DOCKED: REMARK    6  A    between atoms: C_8  and  C_9
DOCKED: REMARK    7  A    between atoms: C_9  and  C_10
DOCKED: REMARK    8  A    between atoms: C_10  and  C_11
DOCKED: REMARK    9  A    between atoms: N_12  and  C_13
DOCKED: REMARK                            x       y       z     vdW  Elec       q    Type
DOCKED: REMARK                         _______ _______ _______ _____ _____    ______ ____
DOCKED: USER                              x       y       z     vdW  Elec       q    Type
DOCKED: USER                           _______ _______ _______ _____ _____    ______ ____
DOCKED: ROOT
DOCKED: ATOM      1  C   UNL     1      38.315  13.976 122.861 -0.46 -0.00    +0.000 C 
DOCKED: ENDROOT
DOCKED: BRANCH   1   2
DOCKED: ATOM      2  C   UNL     1      36.786  14.123 122.854 -0.50 -0.00    +0.000 C 
DOCKED: BRANCH   2   3
DOCKED: ATOM      3  C   UNL     1      36.127  13.069 123.755 -0.61 -0.00    +0.000 C 
DOCKED: BRANCH   3   4
DOCKED: ATOM      4  C   UNL     1      36.682  11.652 123.519 -0.70 -0.00    +0.000 C 
DOCKED: BRANCH   4   5
DOCKED: ATOM      5  C   UNL     1      36.133  10.956 122.263 -0.65 -0.00    +0.000 C 
DOCKED: BRANCH   5   7
DOCKED: ATOM      6  O   UNL     1      37.075   9.154 121.007 -2.73 -0.00    +0.000 OA
DOCKED: ATOM      7  C   UNL     1      36.647   9.552 122.124 -0.69 -0.00    +0.000 C 
DOCKED: ATOM      8  N   UNL     1      36.626   8.658 123.240 -0.66 -0.00    +0.000 N 
DOCKED: ATOM      9  H   UNL     1      36.285   8.971 124.109 -0.31 -0.00    +0.000 HD
DOCKED: BRANCH   8  10
DOCKED: ATOM     10  O   UNL     1      37.071   7.387 123.113 -2.18 -0.00    +0.000 OA
DOCKED: ATOM     11  H   UNL     1      37.298   7.215 122.186 -0.14 -0.00    +0.000 HD
DOCKED: ENDBRANCH   8  10
DOCKED: ENDBRANCH   5   7
DOCKED: ENDBRANCH   4   5
DOCKED: ENDBRANCH   3   4
DOCKED: ENDBRANCH   2   3
DOCKED: ENDBRANCH   1   2
DOCKED: BRANCH   1  12
DOCKED: ATOM     12  C   UNL     1      38.950  14.451 121.547 -0.39 -0.00    +0.000 C 
DOCKED: BRANCH  12  13
DOCKED: ATOM     13  C   UNL     1      37.936  14.531 120.445 -0.32 -0.00    +0.000 C 
DOCKED: ATOM     14  N   UNL     1      37.824  13.463 119.491 -0.37 -0.00    +0.000 N 
DOCKED: ATOM     15  O   UNL     1      37.193  15.546 120.361 -0.23 -0.00    +0.000 OA
DOCKED: ATOM     16  H   UNL     1      38.180  12.580 119.742 -0.12 -0.00    +0.000 HD
DOCKED: BRANCH  14  17
DOCKED: ATOM     17  C   UNL     1      37.224  13.602 118.191 -0.36 -0.00    +0.000 A 
DOCKED: ATOM     18  C   UNL     1      35.882  13.992 118.086 -0.30 -0.00    +0.000 A 
DOCKED: ATOM     19  C   UNL     1      35.278  14.099 116.832 -0.32 -0.00    +0.000 A 
DOCKED: ATOM     20  C   UNL     1      36.020  13.796 115.689 -0.26 -0.00    +0.000 A 
DOCKED: ATOM     21  N   UNL     1      37.312  13.393 115.804 -0.39 -0.00    +0.000 NA
DOCKED: ATOM     22  C   UNL     1      37.925  13.287 117.013 -0.31 -0.00    +0.000 A 
DOCKED: ATOM     23  CM  UNL     1      36.626  13.687 116.905 +0.00 -0.00    +0.000 AC
DOCKED: ENDBRANCH  14  17
DOCKED: ENDBRANCH  12  13
DOCKED: ENDBRANCH   1  12
DOCKED: TORSDOF 9DOCKED: TER
DOCKED: ENDMDL
________________________________________________________________________________


	BEGINNING GENETIC ALGORITHM DOCKING 20 of 100
Run: 20 Seed: 1857077704 2075450439 [ Run 20 of 100 GA/GALS ]
Beginning LAMARCKIAN GENETIC ALGORITHM (LGA), with a maximum of 2500000 energy evaluations.

Final-Value: -14.189


	FINAL GENETIC ALGORITHM DOCKED STATE
	_______________________________________________


Detailed state:  trans 35.019 12.016 120.942 quatxyzw 0.440405 0.855328 -0.122610 0.243770 center -0.029 -0.207 0.469 ntor 9 16.5742 -144.9229 -1.8765 -91.5435 -166.2823 11.4977 124.4123 -144.3039 -17.2915
State:	 35.019  12.016 120.942   0.454  0.882 -0.126 151.782     16.57 -144.92   -1.88  -91.54 -166.28   11.50  124.41 -144.30  -17.29

DOCKED: MODEL       20
DOCKED: USER    Run = 20
DOCKED: USER    DPF = ligand_dock.biased.dpf
DOCKED: USER  
DOCKED: USER    Estimated Free Energy of Binding    =   -9.82 kcal/mol  [=(1)+(2)+(3)-(4)]
DOCKED: USER    Estimated Inhibition Constant, Ki   =   63.33 nM (nanomolar)  [Temperature = 298.15 K]
DOCKED: USER    
DOCKED: USER    (1) Final Intermolecular Energy     =  -12.51 kcal/mol
DOCKED: USER        vdW + Hbond + desolv Energy     =  -12.51 kcal/mol
DOCKED: USER        Electrostatic Energy            =   +0.00 kcal/mol
DOCKED: USER    (2) Final Total Internal Energy     =   -1.68 kcal/mol
DOCKED: USER    (3) Torsional Free Energy           =   +2.68 kcal/mol
DOCKED: USER    (4) Unbound System's Energy  [=(2)] =   -1.68 kcal/mol
DOCKED: USER    
DOCKED: USER    
DOCKED: USER    NEWDPF move ligand.dum.pdbqt
DOCKED: USER    NEWDPF about -0.029000 -0.207000 0.469000
DOCKED: USER    NEWDPF tran0 35.019306 12.015909 120.942120
DOCKED: USER    NEWDPF quaternion0 0.440405 0.855328 -0.122610 0.243770
DOCKED: USER    NEWDPF axisangle0 0.454104 0.881934 -0.126423 151.781700
DOCKED: USER    NEWDPF quat0 0.454104 0.881934 -0.126423 151.781700
DOCKED: USER    NEWDPF dihe0 16.57 -144.92 -1.88 -91.54 -166.28 11.50 124.41 -144.30 -17.29 
DOCKED: USER  keepresnum = 1 
DOCKED: USER  
DOCKED: REMARK  Name = 
DOCKED: REMARK  9 active torsions:
DOCKED: REMARK  status: ('A' for Active; 'I' for Inactive)
DOCKED: REMARK    1  A    between atoms: C_2  and  C_5
DOCKED: REMARK    2  A    between atoms: N_3  and  O_4
DOCKED: REMARK    3  A    between atoms: C_5  and  C_6
DOCKED: REMARK    4  A    between atoms: C_6  and  C_7
DOCKED: REMARK    5  A    between atoms: C_7  and  C_8
DOCKED: REMARK    6  A    between atoms: C_8  and  C_9
DOCKED: REMARK    7  A    between atoms: C_9  and  C_10
DOCKED: REMARK    8  A    between atoms: C_10  and  C_11
DOCKED: REMARK    9  A    between atoms: N_12  and  C_13
DOCKED: REMARK                            x       y       z     vdW  Elec       q    Type
DOCKED: REMARK                         _______ _______ _______ _____ _____    ______ ____
DOCKED: USER                              x       y       z     vdW  Elec       q    Type
DOCKED: USER                           _______ _______ _______ _____ _____    ______ ____
DOCKED: ROOT
DOCKED: ATOM      1  C   UNL     1      36.285  11.657 123.868 -0.69 -0.00    +0.000 C 
DOCKED: ENDROOT
DOCKED: BRANCH   1   2
DOCKED: ATOM      2  C   UNL     1      36.360  12.863 122.919 -0.59 -0.00    +0.000 C 
DOCKED: BRANCH   2   3
DOCKED: ATOM      3  C   UNL     1      37.818  13.265 122.653 -0.50 -0.00    +0.000 C 
DOCKED: BRANCH   3   4
DOCKED: ATOM      4  C   UNL     1      37.938  14.556 121.823 -0.39 -0.00    +0.000 C 
DOCKED: BRANCH   4   5
DOCKED: ATOM      5  C   UNL     1      38.226  14.327 120.330 -0.33 -0.00    +0.000 C 
DOCKED: BRANCH   5   7
DOCKED: ATOM      6  O   UNL     1      37.018  12.297 119.963 -0.51 -0.00    +0.000 OA
DOCKED: ATOM      7  C   UNL     1      37.151  13.515 119.665 -0.42 -0.00    +0.000 C 
DOCKED: ATOM      8  N   UNL     1      36.301  14.106 118.679 -0.32 -0.00    +0.000 N 
DOCKED: ATOM      9  H   UNL     1      36.412  15.056 118.445 -0.01 -0.00    +0.000 HD
DOCKED: BRANCH   8  10
DOCKED: ATOM     10  O   UNL     1      35.345  13.371 118.065 -0.41 -0.00    +0.000 OA
DOCKED: ATOM     11  H   UNL     1      35.186  12.560 118.570 -0.40 -0.00    +0.000 HD
DOCKED: ENDBRANCH   8  10
DOCKED: ENDBRANCH   5   7
DOCKED: ENDBRANCH   4   5
DOCKED: ENDBRANCH   3   4
DOCKED: ENDBRANCH   2   3
DOCKED: ENDBRANCH   1   2
DOCKED: BRANCH   1  12
DOCKED: ATOM     12  C   UNL     1      37.071  10.450 123.338 -0.53 -0.00    +0.000 C 
DOCKED: BRANCH  12  13
DOCKED: ATOM     13  C   UNL     1      36.232   9.608 122.423 -0.70 -0.00    +0.000 C 
DOCKED: ATOM     14  N   UNL     1      34.924   9.182 122.833 -0.60 -0.00    +0.000 N 
DOCKED: ATOM     15  O   UNL     1      36.692   9.272 121.297 -2.51 -0.00    +0.000 OA
DOCKED: ATOM     16  H   UNL     1      34.478   9.688 123.551 -0.50 -0.00    +0.000 HD
DOCKED: BRANCH  14  17
DOCKED: ATOM     17  C   UNL     1      34.223   8.063 122.262 -0.61 -0.00    +0.000 A 
DOCKED: ATOM     18  C   UNL     1      33.945   6.943 123.056 -0.69 -0.00    +0.000 A 
DOCKED: ATOM     19  C   UNL     1      33.294   5.837 122.507 -0.59 -0.00    +0.000 A 
DOCKED: ATOM     20  C   UNL     1      32.941   5.854 121.156 -0.14 -0.00    +0.000 A 
DOCKED: ATOM     21  N   UNL     1      33.239   6.935 120.389 -0.52 -0.00    +0.000 NA
DOCKED: ATOM     22  C   UNL     1      33.866   8.026 120.902 -0.55 -0.00    +0.000 A 
DOCKED: ATOM     23  CM  UNL     1      33.575   6.943 121.676 +0.00 -0.00    +0.000 AC
DOCKED: ENDBRANCH  14  17
DOCKED: ENDBRANCH  12  13
DOCKED: ENDBRANCH   1  12
DOCKED: TORSDOF 9DOCKED: TER
DOCKED: ENDMDL
________________________________________________________________________________


	BEGINNING GENETIC ALGORITHM DOCKING 21 of 100
Run: 21 Seed: 84528742 531252655 [ Run 21 of 100 GA/GALS ]
Beginning LAMARCKIAN GENETIC ALGORITHM (LGA), with a maximum of 2500000 energy evaluations.

Final-Value: -14.143


	FINAL GENETIC ALGORITHM DOCKED STATE
	_______________________________________________


Detailed state:  trans 36.623 13.976 123.028 quatxyzw 0.243663 0.033731 -0.761778 -0.599321 center -0.029 -0.207 0.469 ntor 9 11.3341 -174.6878 106.0010 52.1860 -172.3205 -18.5669 -95.8895 15.3624 -27.1372
State:	 36.623  13.976 123.028   0.304  0.042 -0.952 -106.357     11.33 -174.69  106.00   52.19 -172.32  -18.57  -95.89   15.36  -27.14

DOCKED: MODEL       21
DOCKED: USER    Run = 21
DOCKED: USER    DPF = ligand_dock.biased.dpf
DOCKED: USER  
DOCKED: USER    Estimated Free Energy of Binding    =   -9.93 kcal/mol  [=(1)+(2)+(3)-(4)]
DOCKED: USER    Estimated Inhibition Constant, Ki   =   52.67 nM (nanomolar)  [Temperature = 298.15 K]
DOCKED: USER    
DOCKED: USER    (1) Final Intermolecular Energy     =  -12.61 kcal/mol
DOCKED: USER        vdW + Hbond + desolv Energy     =  -12.61 kcal/mol
DOCKED: USER        Electrostatic Energy            =   +0.00 kcal/mol
DOCKED: USER    (2) Final Total Internal Energy     =   -1.53 kcal/mol
DOCKED: USER    (3) Torsional Free Energy           =   +2.68 kcal/mol
DOCKED: USER    (4) Unbound System's Energy  [=(2)] =   -1.53 kcal/mol
DOCKED: USER    
DOCKED: USER    
DOCKED: USER    NEWDPF move ligand.dum.pdbqt
DOCKED: USER    NEWDPF about -0.029000 -0.207000 0.469000
DOCKED: USER    NEWDPF tran0 36.623233 13.975541 123.027516
DOCKED: USER    NEWDPF quaternion0 0.243663 0.033731 -0.761778 -0.599321
DOCKED: USER    NEWDPF axisangle0 0.304385 0.042137 -0.951617 -106.357476
DOCKED: USER    NEWDPF quat0 0.304385 0.042137 -0.951617 -106.357476
DOCKED: USER    NEWDPF dihe0 11.33 -174.69 106.00 52.19 -172.32 -18.57 -95.89 15.36 -27.14 
DOCKED: USER  keepresnum = 1 
DOCKED: USER  
DOCKED: REMARK  Name = 
DOCKED: REMARK  9 active torsions:
DOCKED: REMARK  status: ('A' for Active; 'I' for Inactive)
DOCKED: REMARK    1  A    between atoms: C_2  and  C_5
DOCKED: REMARK    2  A    between atoms: N_3  and  O_4
DOCKED: REMARK    3  A    between atoms: C_5  and  C_6
DOCKED: REMARK    4  A    between atoms: C_6  and  C_7
DOCKED: REMARK    5  A    between atoms: C_7  and  C_8
DOCKED: REMARK    6  A    between atoms: C_8  and  C_9
DOCKED: REMARK    7  A    between atoms: C_9  and  C_10
DOCKED: REMARK    8  A    between atoms: C_10  and  C_11
DOCKED: REMARK    9  A    between atoms: N_12  and  C_13
DOCKED: REMARK                            x       y       z     vdW  Elec       q    Type
DOCKED: REMARK                         _______ _______ _______ _____ _____    ______ ____
DOCKED: USER                              x       y       z     vdW  Elec       q    Type
DOCKED: USER                           _______ _______ _______ _____ _____    ______ ____
DOCKED: ROOT
DOCKED: ATOM      1  C   UNL     1      37.137  15.230 120.120 -0.24 -0.00    +0.000 C 
DOCKED: ENDROOT
DOCKED: BRANCH   1   2
DOCKED: ATOM      2  C   UNL     1      37.850  14.058 120.812 -0.38 -0.00    +0.000 C 
DOCKED: BRANCH   2   3
DOCKED: ATOM      3  C   UNL     1      37.053  13.568 122.029 -0.47 -0.00    +0.000 C 
DOCKED: BRANCH   3   4
DOCKED: ATOM      4  C   UNL     1      37.359  12.103 122.391 -0.50 -0.00    +0.000 C 
DOCKED: BRANCH   4   5
DOCKED: ATOM      5  C   UNL     1      36.244  11.111 122.022 -0.61 -0.00    +0.000 C 
DOCKED: BRANCH   5   7
DOCKED: ATOM      6  O   UNL     1      37.056   9.075 121.070 -2.72 -0.00    +0.000 OA
DOCKED: ATOM      7  C   UNL     1      36.702   9.684 122.115 -0.69 -0.00    +0.000 C 
DOCKED: ATOM      8  N   UNL     1      36.711   9.006 123.374 -0.58 -0.00    +0.000 N 
DOCKED: ATOM      9  H   UNL     1      36.427   9.483 124.188 -0.39 -0.00    +0.000 HD
DOCKED: BRANCH   8  10
DOCKED: ATOM     10  O   UNL     1      37.105   7.714 123.458 -2.28 -0.00    +0.000 OA
DOCKED: ATOM     11  H   UNL     1      37.516   7.446 122.621 -0.18 -0.00    +0.000 HD
DOCKED: ENDBRANCH   8  10
DOCKED: ENDBRANCH   5   7
DOCKED: ENDBRANCH   4   5
DOCKED: ENDBRANCH   3   4
DOCKED: ENDBRANCH   2   3
DOCKED: ENDBRANCH   1   2
DOCKED: BRANCH   1  12
DOCKED: ATOM     12  C   UNL     1      37.439  16.575 120.796 -0.16 -0.00    +0.000 C 
DOCKED: BRANCH  12  13
DOCKED: ATOM     13  C   UNL     1      36.358  16.957 121.764 -0.23 -0.00    +0.000 C 
DOCKED: ATOM     14  N   UNL     1      36.614  16.931 123.176 -0.24 -0.00    +0.000 N 
DOCKED: ATOM     15  O   UNL     1      35.224  17.291 121.324 -0.29 -0.00    +0.000 OA
DOCKED: ATOM     16  H   UNL     1      37.551  16.966 123.477 -0.01 -0.00    +0.000 HD
DOCKED: BRANCH  14  17
DOCKED: ATOM     17  C   UNL     1      35.587  16.854 124.181 -0.34 -0.00    +0.000 A 
DOCKED: ATOM     18  C   UNL     1      35.205  18.014 124.870 -0.28 -0.00    +0.000 A 
DOCKED: ATOM     19  C   UNL     1      34.233  17.948 125.870 -0.32 -0.00    +0.000 A 
DOCKED: ATOM     20  C   UNL     1      33.662  16.715 126.187 -0.36 -0.00    +0.000 A 
DOCKED: ATOM     21  N   UNL     1      34.059  15.593 125.532 -0.66 -0.00    +0.000 NA
DOCKED: ATOM     22  C   UNL     1      34.998  15.631 124.550 -0.47 -0.00    +0.000 A 
DOCKED: ATOM     23  CM  UNL     1      34.609  16.760 125.207 -0.22 -0.00    +0.000 AC
DOCKED: ENDBRANCH  14  17
DOCKED: ENDBRANCH  12  13
DOCKED: ENDBRANCH   1  12
DOCKED: TORSDOF 9DOCKED: TER
DOCKED: ENDMDL
________________________________________________________________________________


	BEGINNING GENETIC ALGORITHM DOCKING 22 of 100
Run: 22 Seed: 2037532608 1714093846 [ Run 22 of 100 GA/GALS ]
Beginning LAMARCKIAN GENETIC ALGORITHM (LGA), with a maximum of 2500000 energy evaluations.

Final-Value: -15.132


	FINAL GENETIC ALGORITHM DOCKED STATE
	_______________________________________________


Detailed state:  trans 35.261 13.050 121.692 quatxyzw 0.743703 -0.500056 -0.030590 -0.442622 center -0.029 -0.207 0.469 ntor 9 11.7489 114.4083 44.4636 -1.6671 50.0870 40.6018 -31.6477 -17.3660 111.4541
State:	 35.261  13.050 121.692   0.829 -0.558 -0.034 -127.457     11.75  114.41   44.46   -1.67   50.09   40.60  -31.65  -17.37  111.45

DOCKED: MODEL       22
DOCKED: USER    Run = 22
DOCKED: USER    DPF = ligand_dock.biased.dpf
DOCKED: USER  
DOCKED: USER    Estimated Free Energy of Binding    =  -11.05 kcal/mol  [=(1)+(2)+(3)-(4)]
DOCKED: USER    Estimated Inhibition Constant, Ki   =    7.95 nM (nanomolar)  [Temperature = 298.15 K]
DOCKED: USER    
DOCKED: USER    (1) Final Intermolecular Energy     =  -13.73 kcal/mol
DOCKED: USER        vdW + Hbond + desolv Energy     =  -13.73 kcal/mol
DOCKED: USER        Electrostatic Energy            =   +0.00 kcal/mol
DOCKED: USER    (2) Final Total Internal Energy     =   -1.40 kcal/mol
DOCKED: USER    (3) Torsional Free Energy           =   +2.68 kcal/mol
DOCKED: USER    (4) Unbound System's Energy  [=(2)] =   -1.40 kcal/mol
DOCKED: USER    
DOCKED: USER    
DOCKED: USER    NEWDPF move ligand.dum.pdbqt
DOCKED: USER    NEWDPF about -0.029000 -0.207000 0.469000
DOCKED: USER    NEWDPF tran0 35.260617 13.049960 121.692025
DOCKED: USER    NEWDPF quaternion0 0.743703 -0.500056 -0.030590 -0.442622
DOCKED: USER    NEWDPF axisangle0 0.829370 -0.557658 -0.034113 -127.457381
DOCKED: USER    NEWDPF quat0 0.829370 -0.557658 -0.034113 -127.457381
DOCKED: USER    NEWDPF dihe0 11.75 114.41 44.46 -1.67 50.09 40.60 -31.65 -17.37 111.45 
DOCKED: USER  keepresnum = 1 
DOCKED: USER  
DOCKED: REMARK  Name = 
DOCKED: REMARK  9 active torsions:
DOCKED: REMARK  status: ('A' for Active; 'I' for Inactive)
DOCKED: REMARK    1  A    between atoms: C_2  and  C_5
DOCKED: REMARK    2  A    between atoms: N_3  and  O_4
DOCKED: REMARK    3  A    between atoms: C_5  and  C_6
DOCKED: REMARK    4  A    between atoms: C_6  and  C_7
DOCKED: REMARK    5  A    between atoms: C_7  and  C_8
DOCKED: REMARK    6  A    between atoms: C_8  and  C_9
DOCKED: REMARK    7  A    between atoms: C_9  and  C_10
DOCKED: REMARK    8  A    between atoms: C_10  and  C_11
DOCKED: REMARK    9  A    between atoms: N_12  and  C_13
DOCKED: REMARK                            x       y       z     vdW  Elec       q    Type
DOCKED: REMARK                         _______ _______ _______ _____ _____    ______ ____
DOCKED: USER                              x       y       z     vdW  Elec       q    Type
DOCKED: USER                           _______ _______ _______ _____ _____    ______ ____
DOCKED: ROOT
DOCKED: ATOM      1  C   UNL     1      37.206  15.102 123.206 -0.41 -0.00    +0.000 C 
DOCKED: ENDROOT
DOCKED: BRANCH   1   2
DOCKED: ATOM      2  C   UNL     1      36.323  13.990 123.792 -0.53 -0.00    +0.000 C 
DOCKED: BRANCH   2   3
DOCKED: ATOM      3  C   UNL     1      36.982  12.615 123.622 -0.61 -0.00    +0.000 C 
DOCKED: BRANCH   3   4
DOCKED: ATOM      4  C   UNL     1      35.961  11.492 123.360 -0.70 -0.00    +0.000 C 
DOCKED: BRANCH   4   5
DOCKED: ATOM      5  C   UNL     1      36.099  10.815 121.987 -0.56 -0.00    +0.000 C 
DOCKED: BRANCH   5   7
DOCKED: ATOM      6  O   UNL     1      37.062   8.841 121.043 -2.70 -0.00    +0.000 OA
DOCKED: ATOM      7  C   UNL     1      36.702   9.443 122.090 -0.70 -0.00    +0.000 C 
DOCKED: ATOM      8  N   UNL     1      36.841   8.807 123.363 -0.62 -0.00    +0.000 N 
DOCKED: ATOM      9  H   UNL     1      36.553   9.278 124.178 -0.43 -0.00    +0.000 HD
DOCKED: BRANCH   8  10
DOCKED: ATOM     10  O   UNL     1      37.366   7.563 123.457 -2.12 -0.00    +0.000 OA
DOCKED: ATOM     11  H   UNL     1      37.765   7.315 122.609 -0.31 -0.00    +0.000 HD
DOCKED: ENDBRANCH   8  10
DOCKED: ENDBRANCH   5   7
DOCKED: ENDBRANCH   4   5
DOCKED: ENDBRANCH   3   4
DOCKED: ENDBRANCH   2   3
DOCKED: ENDBRANCH   1   2
DOCKED: BRANCH   1  12
DOCKED: ATOM     12  C   UNL     1      36.378  16.257 122.625 -0.31 -0.00    +0.000 C 
DOCKED: BRANCH  12  13
DOCKED: ATOM     13  C   UNL     1      35.220  16.602 123.513 -0.43 -0.00    +0.000 C 
DOCKED: ATOM     14  N   UNL     1      35.435  17.359 124.715 -0.31 -0.00    +0.000 N 
DOCKED: ATOM     15  O   UNL     1      34.062  16.214 123.199 -0.53 -0.00    +0.000 OA
DOCKED: ATOM     16  H   UNL     1      36.258  17.895 124.782 -0.01 -0.00    +0.000 HD
DOCKED: BRANCH  14  17
DOCKED: ATOM     17  C   UNL     1      34.524  17.383 125.827 -0.30 -0.00    +0.000 A 
DOCKED: ATOM     18  C   UNL     1      34.518  18.485 126.694 -0.22 -0.00    +0.000 A 
DOCKED: ATOM     19  C   UNL     1      33.662  18.507 127.796 -0.19 -0.00    +0.000 A 
DOCKED: ATOM     20  C   UNL     1      32.827  17.414 128.034 -0.32 -0.00    +0.000 A 
DOCKED: ATOM     21  N   UNL     1      32.860  16.339 127.203 -1.07 -0.00    +0.000 NA
DOCKED: ATOM     22  C   UNL     1      33.680  16.296 126.119 -0.34 -0.00    +0.000 A 
DOCKED: ATOM     23  CM  UNL     1      33.656  17.375 126.953 -0.01 -0.00    +0.000 AC
DOCKED: ENDBRANCH  14  17
DOCKED: ENDBRANCH  12  13
DOCKED: ENDBRANCH   1  12
DOCKED: TORSDOF 9DOCKED: TER
DOCKED: ENDMDL
________________________________________________________________________________


	BEGINNING GENETIC ALGORITHM DOCKING 23 of 100
Run: 23 Seed: 674302738 1628096294 [ Run 23 of 100 GA/GALS ]
Beginning LAMARCKIAN GENETIC ALGORITHM (LGA), with a maximum of 2500000 energy evaluations.

Final-Value: -14.610


	FINAL GENETIC ALGORITHM DOCKED STATE
	_______________________________________________


Detailed state:  trans 35.497 14.061 121.701 quatxyzw -0.284942 0.787959 0.128458 0.530498 center -0.029 -0.207 0.469 ntor 9 6.4286 138.9503 122.4727 -105.2323 172.7113 -143.4768 -60.5570 -167.4723 0.8821
State:	 35.497  14.061 121.701  -0.336  0.930  0.152 115.922      6.43  138.95  122.47 -105.23  172.71 -143.48  -60.56 -167.47    0.88

DOCKED: MODEL       23
DOCKED: USER    Run = 23
DOCKED: USER    DPF = ligand_dock.biased.dpf
DOCKED: USER  
DOCKED: USER    Estimated Free Energy of Binding    =  -10.08 kcal/mol  [=(1)+(2)+(3)-(4)]
DOCKED: USER    Estimated Inhibition Constant, Ki   =   40.74 nM (nanomolar)  [Temperature = 298.15 K]
DOCKED: USER    
DOCKED: USER    (1) Final Intermolecular Energy     =  -12.77 kcal/mol
DOCKED: USER        vdW + Hbond + desolv Energy     =  -12.77 kcal/mol
DOCKED: USER        Electrostatic Energy            =   +0.00 kcal/mol
DOCKED: USER    (2) Final Total Internal Energy     =   -1.84 kcal/mol
DOCKED: USER    (3) Torsional Free Energy           =   +2.68 kcal/mol
DOCKED: USER    (4) Unbound System's Energy  [=(2)] =   -1.84 kcal/mol
DOCKED: USER    
DOCKED: USER    
DOCKED: USER    NEWDPF move ligand.dum.pdbqt
DOCKED: USER    NEWDPF about -0.029000 -0.207000 0.469000
DOCKED: USER    NEWDPF tran0 35.497057 14.061122 121.700885
DOCKED: USER    NEWDPF quaternion0 -0.284942 0.787959 0.128458 0.530498
DOCKED: USER    NEWDPF axisangle0 -0.336141 0.929540 0.151540 115.921829
DOCKED: USER    NEWDPF quat0 -0.336141 0.929540 0.151540 115.921829
DOCKED: USER    NEWDPF dihe0 6.43 138.95 122.47 -105.23 172.71 -143.48 -60.56 -167.47 0.88 
DOCKED: USER  keepresnum = 1 
DOCKED: USER  
DOCKED: REMARK  Name = 
DOCKED: REMARK  9 active torsions:
DOCKED: REMARK  status: ('A' for Active; 'I' for Inactive)
DOCKED: REMARK    1  A    between atoms: C_2  and  C_5
DOCKED: REMARK    2  A    between atoms: N_3  and  O_4
DOCKED: REMARK    3  A    between atoms: C_5  and  C_6
DOCKED: REMARK    4  A    between atoms: C_6  and  C_7
DOCKED: REMARK    5  A    between atoms: C_7  and  C_8
DOCKED: REMARK    6  A    between atoms: C_8  and  C_9
DOCKED: REMARK    7  A    between atoms: C_9  and  C_10
DOCKED: REMARK    8  A    between atoms: C_10  and  C_11
DOCKED: REMARK    9  A    between atoms: N_12  and  C_13
DOCKED: REMARK                            x       y       z     vdW  Elec       q    Type
DOCKED: REMARK                         _______ _______ _______ _____ _____    ______ ____
DOCKED: USER                              x       y       z     vdW  Elec       q    Type
DOCKED: USER                           _______ _______ _______ _____ _____    ______ ____
DOCKED: ROOT
DOCKED: ATOM      1  C   UNL     1      38.549  13.922 122.678 -0.41 -0.00    +0.000 C 
DOCKED: ENDROOT
DOCKED: BRANCH   1   2
DOCKED: ATOM      2  C   UNL     1      37.305  14.395 123.445 -0.45 -0.00    +0.000 C 
DOCKED: BRANCH   2   3
DOCKED: ATOM      3  C   UNL     1      36.173  13.363 123.351 -0.58 -0.00    +0.000 C 
DOCKED: BRANCH   3   4
DOCKED: ATOM      4  C   UNL     1      36.693  11.917 123.236 -0.69 -0.00    +0.000 C 
DOCKED: BRANCH   4   5
DOCKED: ATOM      5  C   UNL     1      36.237  11.178 121.968 -0.60 -0.00    +0.000 C 
DOCKED: BRANCH   5   7
DOCKED: ATOM      6  O   UNL     1      37.013   9.205 120.861 -2.72 -0.00    +0.000 OA
DOCKED: ATOM      7  C   UNL     1      36.691   9.746 121.954 -0.67 -0.00    +0.000 C 
DOCKED: ATOM      8  N   UNL     1      36.733   8.987 123.165 -0.65 -0.00    +0.000 N 
DOCKED: ATOM      9  H   UNL     1      36.475   9.411 124.015 -0.39 -0.00    +0.000 HD
DOCKED: BRANCH   8  10
DOCKED: ATOM     10  O   UNL     1      37.124   7.691 123.152 -2.30 -0.00    +0.000 OA
DOCKED: ATOM     11  H   UNL     1      37.437   7.456 122.266 -0.13 -0.00    +0.000 HD
DOCKED: ENDBRANCH   8  10
DOCKED: ENDBRANCH   5   7
DOCKED: ENDBRANCH   4   5
DOCKED: ENDBRANCH   3   4
DOCKED: ENDBRANCH   2   3
DOCKED: ENDBRANCH   1   2
DOCKED: BRANCH   1  12
DOCKED: ATOM     12  C   UNL     1      38.920  14.871 121.530 -0.35 -0.00    +0.000 C 
DOCKED: BRANCH  12  13
DOCKED: ATOM     13  C   UNL     1      37.901  14.825 120.430 -0.29 -0.00    +0.000 C 
DOCKED: ATOM     14  N   UNL     1      37.832  13.687 119.558 -0.34 -0.00    +0.000 N 
DOCKED: ATOM     15  O   UNL     1      37.114  15.799 120.275 -0.21 -0.00    +0.000 OA
DOCKED: ATOM     16  H   UNL     1      38.227  12.841 119.871 -0.11 -0.00    +0.000 HD
DOCKED: BRANCH  14  17
DOCKED: ATOM     17  C   UNL     1      37.224  13.703 118.255 -0.36 -0.00    +0.000 A 
DOCKED: ATOM     18  C   UNL     1      38.034  13.791 117.114 -0.28 -0.00    +0.000 A 
DOCKED: ATOM     19  C   UNL     1      37.456  13.841 115.845 -0.35 -0.00    +0.000 A 
DOCKED: ATOM     20  C   UNL     1      36.065  13.820 115.727 -0.27 -0.00    +0.000 A 
DOCKED: ATOM     21  N   UNL     1      35.288  13.761 116.840 -0.33 -0.00    +0.000 NA
DOCKED: ATOM     22  C   UNL     1      35.827  13.705 118.087 -0.29 -0.00    +0.000 A 
DOCKED: ATOM     23  CM  UNL     1      36.612  13.770 116.974 +0.00 -0.00    +0.000 AC
DOCKED: ENDBRANCH  14  17
DOCKED: ENDBRANCH  12  13
DOCKED: ENDBRANCH   1  12
DOCKED: TORSDOF 9DOCKED: TER
DOCKED: ENDMDL
________________________________________________________________________________


	BEGINNING GENETIC ALGORITHM DOCKING 24 of 100
Run: 24 Seed: 1287104863 1645481868 [ Run 24 of 100 GA/GALS ]
Beginning LAMARCKIAN GENETIC ALGORITHM (LGA), with a maximum of 2500000 energy evaluations.

Final-Value: -13.630


	FINAL GENETIC ALGORITHM DOCKED STATE
	_______________________________________________


Detailed state:  trans 37.371 12.284 123.652 quatxyzw 0.110003 0.508900 -0.838606 0.160187 center -0.029 -0.207 0.469 ntor 9 -163.3988 -110.4936 -179.5501 158.7953 -131.5852 -8.6997 171.0025 149.0626 -143.7258
State:	 37.371  12.284 123.652   0.111  0.516 -0.850 161.564   -163.40 -110.49 -179.55  158.80 -131.59   -8.70  171.00  149.06 -143.73

DOCKED: MODEL       24
DOCKED: USER    Run = 24
DOCKED: USER    DPF = ligand_dock.biased.dpf
DOCKED: USER  
DOCKED: USER    Estimated Free Energy of Binding    =  -10.27 kcal/mol  [=(1)+(2)+(3)-(4)]
DOCKED: USER    Estimated Inhibition Constant, Ki   =   29.83 nM (nanomolar)  [Temperature = 298.15 K]
DOCKED: USER    
DOCKED: USER    (1) Final Intermolecular Energy     =  -12.95 kcal/mol
DOCKED: USER        vdW + Hbond + desolv Energy     =  -12.95 kcal/mol
DOCKED: USER        Electrostatic Energy            =   +0.00 kcal/mol
DOCKED: USER    (2) Final Total Internal Energy     =   -0.68 kcal/mol
DOCKED: USER    (3) Torsional Free Energy           =   +2.68 kcal/mol
DOCKED: USER    (4) Unbound System's Energy  [=(2)] =   -0.68 kcal/mol
DOCKED: USER    
DOCKED: USER    
DOCKED: USER    NEWDPF move ligand.dum.pdbqt
DOCKED: USER    NEWDPF about -0.029000 -0.207000 0.469000
DOCKED: USER    NEWDPF tran0 37.371097 12.284148 123.652185
DOCKED: USER    NEWDPF quaternion0 0.110003 0.508900 -0.838606 0.160187
DOCKED: USER    NEWDPF axisangle0 0.111443 0.515558 -0.849577 161.564460
DOCKED: USER    NEWDPF quat0 0.111443 0.515558 -0.849577 161.564460
DOCKED: USER    NEWDPF dihe0 -163.40 -110.49 -179.55 158.80 -131.59 -8.70 171.00 149.06 -143.73 
DOCKED: USER  keepresnum = 1 
DOCKED: USER  
DOCKED: REMARK  Name = 
DOCKED: REMARK  9 active torsions:
DOCKED: REMARK  status: ('A' for Active; 'I' for Inactive)
DOCKED: REMARK    1  A    between atoms: C_2  and  C_5
DOCKED: REMARK    2  A    between atoms: N_3  and  O_4
DOCKED: REMARK    3  A    between atoms: C_5  and  C_6
DOCKED: REMARK    4  A    between atoms: C_6  and  C_7
DOCKED: REMARK    5  A    between atoms: C_7  and  C_8
DOCKED: REMARK    6  A    between atoms: C_8  and  C_9
DOCKED: REMARK    7  A    between atoms: C_9  and  C_10
DOCKED: REMARK    8  A    between atoms: C_10  and  C_11
DOCKED: REMARK    9  A    between atoms: N_12  and  C_13
DOCKED: REMARK                            x       y       z     vdW  Elec       q    Type
DOCKED: REMARK                         _______ _______ _______ _____ _____    ______ ____
DOCKED: USER                              x       y       z     vdW  Elec       q    Type
DOCKED: USER                           _______ _______ _______ _____ _____    ______ ____
DOCKED: ROOT
DOCKED: ATOM      1  C   UNL     1      38.569  15.109 122.717 -0.39 -0.00    +0.000 C 
DOCKED: ENDROOT
DOCKED: BRANCH   1   2
DOCKED: ATOM      2  C   UNL     1      37.518  14.225 122.029 -0.43 -0.00    +0.000 C 
DOCKED: BRANCH   2   3
DOCKED: ATOM      3  C   UNL     1      38.180  13.051 121.295 -0.39 -0.00    +0.000 C 
DOCKED: BRANCH   3   4
DOCKED: ATOM      4  C   UNL     1      37.175  11.955 120.893 -0.52 -0.00    +0.000 C 
DOCKED: BRANCH   4   5
DOCKED: ATOM      5  C   UNL     1      36.522  11.227 122.080 -0.63 -0.00    +0.000 C 
DOCKED: BRANCH   5   7
DOCKED: ATOM      6  O   UNL     1      36.973   9.142 121.000 -2.70 -0.00    +0.000 OA
DOCKED: ATOM      7  C   UNL     1      36.847   9.760 122.091 -0.64 -0.00    +0.000 C 
DOCKED: ATOM      8  N   UNL     1      36.983   9.058 123.329 -0.60 -0.00    +0.000 N 
DOCKED: ATOM      9  H   UNL     1      36.877   9.542 124.180 -0.53 -0.00    +0.000 HD
DOCKED: BRANCH   8  10
DOCKED: ATOM     10  O   UNL     1      37.256   7.732 123.342 -2.24 -0.00    +0.000 OA
DOCKED: ATOM     11  H   UNL     1      37.059   7.370 124.220 -0.51 -0.00    +0.000 HD
DOCKED: ENDBRANCH   8  10
DOCKED: ENDBRANCH   5   7
DOCKED: ENDBRANCH   4   5
DOCKED: ENDBRANCH   3   4
DOCKED: ENDBRANCH   2   3
DOCKED: ENDBRANCH   1   2
DOCKED: BRANCH   1  12
DOCKED: ATOM     12  C   UNL     1      39.964  14.470 122.704 -0.30 -0.00    +0.000 C 
DOCKED: BRANCH  12  13
DOCKED: ATOM     13  C   UNL     1      41.042  15.509 122.599 -0.47 -0.00    +0.000 C 
DOCKED: ATOM     14  N   UNL     1      41.907  15.536 121.453 -0.31 -0.00    +0.000 N 
DOCKED: ATOM     15  O   UNL     1      41.184  16.348 123.529 -0.88 -0.00    +0.000 OA
DOCKED: ATOM     16  H   UNL     1      41.598  15.091 120.631 +0.01 -0.00    +0.000 HD
DOCKED: BRANCH  14  17
DOCKED: ATOM     17  C   UNL     1      43.197  16.171 121.430 -0.28 -0.00    +0.000 A 
DOCKED: ATOM     18  C   UNL     1      43.720  16.719 122.610 -0.33 -0.00    +0.000 A 
DOCKED: ATOM     19  C   UNL     1      44.956  17.367 122.595 -0.29 -0.00    +0.000 A 
DOCKED: ATOM     20  C   UNL     1      45.654  17.478 121.392 -0.17 -0.00    +0.000 A 
DOCKED: ATOM     21  N   UNL     1      45.126  16.968 120.249 -0.14 -0.00    +0.000 NA
DOCKED: ATOM     22  C   UNL     1      43.927  16.326 120.238 -0.20 -0.00    +0.000 A 
DOCKED: ATOM     23  CM  UNL     1      44.449  16.842 121.387 +0.00 -0.00    +0.000 AC
DOCKED: ENDBRANCH  14  17
DOCKED: ENDBRANCH  12  13
DOCKED: ENDBRANCH   1  12
DOCKED: TORSDOF 9DOCKED: TER
DOCKED: ENDMDL
________________________________________________________________________________


	BEGINNING GENETIC ALGORITHM DOCKING 25 of 100
Run: 25 Seed: 1416092324 2007679668 [ Run 25 of 100 GA/GALS ]
Beginning LAMARCKIAN GENETIC ALGORITHM (LGA), with a maximum of 2500000 energy evaluations.

Final-Value: -14.377


	FINAL GENETIC ALGORITHM DOCKED STATE
	_______________________________________________


Detailed state:  trans 38.653 12.784 121.642 quatxyzw -0.448466 -0.791806 -0.118139 0.397447 center -0.029 -0.207 0.469 ntor 9 5.0520 -154.0811 -120.7272 -174.8841 -152.5405 -80.4540 -111.1824 -147.3603 -54.2803
State:	 38.653  12.784 121.642  -0.489 -0.863 -0.129 133.163      5.05 -154.08 -120.73 -174.88 -152.54  -80.45 -111.18 -147.36  -54.28

DOCKED: MODEL       25
DOCKED: USER    Run = 25
DOCKED: USER    DPF = ligand_dock.biased.dpf
DOCKED: USER  
DOCKED: USER    Estimated Free Energy of Binding    =   -9.29 kcal/mol  [=(1)+(2)+(3)-(4)]
DOCKED: USER    Estimated Inhibition Constant, Ki   =  154.14 nM (nanomolar)  [Temperature = 298.15 K]
DOCKED: USER    
DOCKED: USER    (1) Final Intermolecular Energy     =  -11.98 kcal/mol
DOCKED: USER        vdW + Hbond + desolv Energy     =  -11.98 kcal/mol
DOCKED: USER        Electrostatic Energy            =   +0.00 kcal/mol
DOCKED: USER    (2) Final Total Internal Energy     =   -2.40 kcal/mol
DOCKED: USER    (3) Torsional Free Energy           =   +2.68 kcal/mol
DOCKED: USER    (4) Unbound System's Energy  [=(2)] =   -2.40 kcal/mol
DOCKED: USER    
DOCKED: USER    
DOCKED: USER    NEWDPF move ligand.dum.pdbqt
DOCKED: USER    NEWDPF about -0.029000 -0.207000 0.469000
DOCKED: USER    NEWDPF tran0 38.652954 12.783563 121.641928
DOCKED: USER    NEWDPF quaternion0 -0.448466 -0.791806 -0.118139 0.397447
DOCKED: USER    NEWDPF axisangle0 -0.488725 -0.862886 -0.128744 133.162612
DOCKED: USER    NEWDPF quat0 -0.488725 -0.862886 -0.128744 133.162612
DOCKED: USER    NEWDPF dihe0 5.05 -154.08 -120.73 -174.88 -152.54 -80.45 -111.18 -147.36 -54.28 
DOCKED: USER  keepresnum = 1 
DOCKED: USER  
DOCKED: REMARK  Name = 
DOCKED: REMARK  9 active torsions:
DOCKED: REMARK  status: ('A' for Active; 'I' for Inactive)
DOCKED: REMARK    1  A    between atoms: C_2  and  C_5
DOCKED: REMARK    2  A    between atoms: N_3  and  O_4
DOCKED: REMARK    3  A    between atoms: C_5  and  C_6
DOCKED: REMARK    4  A    between atoms: C_6  and  C_7
DOCKED: REMARK    5  A    between atoms: C_7  and  C_8
DOCKED: REMARK    6  A    between atoms: C_8  and  C_9
DOCKED: REMARK    7  A    between atoms: C_9  and  C_10
DOCKED: REMARK    8  A    between atoms: C_10  and  C_11
DOCKED: REMARK    9  A    between atoms: N_12  and  C_13
DOCKED: REMARK                            x       y       z     vdW  Elec       q    Type
DOCKED: REMARK                         _______ _______ _______ _____ _____    ______ ____
DOCKED: USER                              x       y       z     vdW  Elec       q    Type
DOCKED: USER                           _______ _______ _______ _____ _____    ______ ____
DOCKED: ROOT
DOCKED: ATOM      1  C   UNL     1      35.982  12.982 123.408 -0.61 -0.00    +0.000 C 
DOCKED: ENDROOT
DOCKED: BRANCH   1   2
DOCKED: ATOM      2  C   UNL     1      37.081  14.033 123.188 -0.52 -0.00    +0.000 C 
DOCKED: BRANCH   2   3
DOCKED: ATOM      3  C   UNL     1      38.186  13.492 122.270 -0.41 -0.00    +0.000 C 
DOCKED: BRANCH   3   4
DOCKED: ATOM      4  C   UNL     1      37.965  13.860 120.791 -0.40 -0.00    +0.000 C 
DOCKED: BRANCH   4   5
DOCKED: ATOM      5  C   UNL     1      37.068  12.878 120.019 -0.47 -0.00    +0.000 C 
DOCKED: BRANCH   5   7
DOCKED: ATOM      6  O   UNL     1      38.574  11.190 119.245 -0.34 -0.00    +0.000 OA
DOCKED: ATOM      7  C   UNL     1      37.625  11.483 120.022 -0.21 -0.00    +0.000 C 
DOCKED: ATOM      8  N   UNL     1      37.067  10.481 120.876 -0.20 -0.00    +0.000 N 
DOCKED: ATOM      9  H   UNL     1      36.322  10.711 121.477 -0.03 -0.00    +0.000 HD
DOCKED: BRANCH   8  10
DOCKED: ATOM     10  O   UNL     1      37.554   9.218 120.866 -2.27 -0.00    +0.000 OA
DOCKED: ATOM     11  H   UNL     1      38.329   9.175 120.285 -0.51 -0.00    +0.000 HD
DOCKED: ENDBRANCH   8  10
DOCKED: ENDBRANCH   5   7
DOCKED: ENDBRANCH   4   5
DOCKED: ENDBRANCH   3   4
DOCKED: ENDBRANCH   2   3
DOCKED: ENDBRANCH   1   2
DOCKED: BRANCH   1  12
DOCKED: ATOM     12  C   UNL     1      36.480  11.783 124.226 -0.57 -0.00    +0.000 C 
DOCKED: BRANCH  12  13
DOCKED: ATOM     13  C   UNL     1      36.271  10.492 123.490 -0.51 -0.00    +0.000 C 
DOCKED: ATOM     14  N   UNL     1      34.970  10.155 122.982 -0.40 -0.00    +0.000 N 
DOCKED: ATOM     15  O   UNL     1      37.244   9.706 123.332 -0.78 -0.00    +0.000 OA
DOCKED: ATOM     16  H   UNL     1      34.323  10.885 122.848 -0.20 -0.00    +0.000 HD
DOCKED: BRANCH  14  17
DOCKED: ATOM     17  C   UNL     1      34.552   8.818 122.657 -0.58 -0.00    +0.000 A 
DOCKED: ATOM     18  C   UNL     1      35.070   7.735 123.381 -0.62 -0.00    +0.000 A 
DOCKED: ATOM     19  C   UNL     1      34.698   6.430 123.054 -0.69 -0.00    +0.000 A 
DOCKED: ATOM     20  C   UNL     1      33.820   6.216 121.990 -0.50 -0.00    +0.000 A 
DOCKED: ATOM     21  N   UNL     1      33.345   7.271 121.278 -0.55 -0.00    +0.000 NA
DOCKED: ATOM     22  C   UNL     1      33.687   8.552 121.580 -0.61 -0.00    +0.000 A 
DOCKED: ATOM     23  CM  UNL     1      34.172   7.498 122.295 +0.00 -0.00    +0.000 AC
DOCKED: ENDBRANCH  14  17
DOCKED: ENDBRANCH  12  13
DOCKED: ENDBRANCH   1  12
DOCKED: TORSDOF 9DOCKED: TER
DOCKED: ENDMDL
________________________________________________________________________________


	BEGINNING GENETIC ALGORITHM DOCKING 26 of 100
Run: 26 Seed: 239727432 1266123330 [ Run 26 of 100 GA/GALS ]
Beginning LAMARCKIAN GENETIC ALGORITHM (LGA), with a maximum of 2500000 energy evaluations.

Final-Value: -13.995


	FINAL GENETIC ALGORITHM DOCKED STATE
	_______________________________________________


Detailed state:  trans 39.037 12.194 123.730 quatxyzw 0.629606 -0.292874 0.719584 0.004538 center -0.029 -0.207 0.469 ntor 9 18.3164 -118.1096 -120.3898 119.4182 -144.6287 93.2903 -177.8257 3.4309 -49.4635
State:	 39.037  12.194 123.730   0.630 -0.293  0.720 179.480     18.32 -118.11 -120.39  119.42 -144.63   93.29 -177.83    3.43  -49.46

DOCKED: MODEL       26
DOCKED: USER    Run = 26
DOCKED: USER    DPF = ligand_dock.biased.dpf
DOCKED: USER  
DOCKED: USER    Estimated Free Energy of Binding    =   -9.95 kcal/mol  [=(1)+(2)+(3)-(4)]
DOCKED: USER    Estimated Inhibition Constant, Ki   =   50.88 nM (nanomolar)  [Temperature = 298.15 K]
DOCKED: USER    
DOCKED: USER    (1) Final Intermolecular Energy     =  -12.63 kcal/mol
DOCKED: USER        vdW + Hbond + desolv Energy     =  -12.63 kcal/mol
DOCKED: USER        Electrostatic Energy            =   +0.00 kcal/mol
DOCKED: USER    (2) Final Total Internal Energy     =   -1.36 kcal/mol
DOCKED: USER    (3) Torsional Free Energy           =   +2.68 kcal/mol
DOCKED: USER    (4) Unbound System's Energy  [=(2)] =   -1.36 kcal/mol
DOCKED: USER    
DOCKED: USER    
DOCKED: USER    NEWDPF move ligand.dum.pdbqt
DOCKED: USER    NEWDPF about -0.029000 -0.207000 0.469000
DOCKED: USER    NEWDPF tran0 39.037475 12.193916 123.729986
DOCKED: USER    NEWDPF quaternion0 0.629606 -0.292874 0.719584 0.004538
DOCKED: USER    NEWDPF axisangle0 0.629612 -0.292877 0.719591 179.479991
DOCKED: USER    NEWDPF quat0 0.629612 -0.292877 0.719591 179.479991
DOCKED: USER    NEWDPF dihe0 18.32 -118.11 -120.39 119.42 -144.63 93.29 -177.83 3.43 -49.46 
DOCKED: USER  keepresnum = 1 
DOCKED: USER  
DOCKED: REMARK  Name = 
DOCKED: REMARK  9 active torsions:
DOCKED: REMARK  status: ('A' for Active; 'I' for Inactive)
DOCKED: REMARK    1  A    between atoms: C_2  and  C_5
DOCKED: REMARK    2  A    between atoms: N_3  and  O_4
DOCKED: REMARK    3  A    between atoms: C_5  and  C_6
DOCKED: REMARK    4  A    between atoms: C_6  and  C_7
DOCKED: REMARK    5  A    between atoms: C_7  and  C_8
DOCKED: REMARK    6  A    between atoms: C_8  and  C_9
DOCKED: REMARK    7  A    between atoms: C_9  and  C_10
DOCKED: REMARK    8  A    between atoms: C_10  and  C_11
DOCKED: REMARK    9  A    between atoms: N_12  and  C_13
DOCKED: REMARK                            x       y       z     vdW  Elec       q    Type
DOCKED: REMARK                         _______ _______ _______ _____ _____    ______ ____
DOCKED: USER                              x       y       z     vdW  Elec       q    Type
DOCKED: USER                           _______ _______ _______ _____ _____    ______ ____
DOCKED: ROOT
DOCKED: ATOM      1  C   UNL     1      36.379  13.985 123.851 -0.51 -0.00    +0.000 C 
DOCKED: ENDROOT
DOCKED: BRANCH   1   2
DOCKED: ATOM      2  C   UNL     1      36.529  12.461 123.972 -0.56 -0.00    +0.000 C 
DOCKED: BRANCH   2   3
DOCKED: ATOM      3  C   UNL     1      36.994  11.846 122.644 -0.63 -0.00    +0.000 C 
DOCKED: BRANCH   3   4
DOCKED: ATOM      4  C   UNL     1      35.822  11.390 121.756 -0.24 -0.00    +0.000 C 
DOCKED: BRANCH   4   5
DOCKED: ATOM      5  C   UNL     1      35.193  10.050 122.172 -0.52 -0.00    +0.000 C 
DOCKED: BRANCH   5   7
DOCKED: ATOM      6  O   UNL     1      37.020   8.842 121.214 -2.67 -0.00    +0.000 OA
DOCKED: ATOM      7  C   UNL     1      36.192   8.929 122.161 -0.71 -0.00    +0.000 C 
DOCKED: ATOM      8  N   UNL     1      36.190   7.945 123.199 -0.69 -0.00    +0.000 N 
DOCKED: ATOM      9  H   UNL     1      35.538   8.013 123.934 -0.04 -0.00    +0.000 HD
DOCKED: BRANCH   8  10
DOCKED: ATOM     10  O   UNL     1      37.076   6.923 123.181 -1.71 -0.00    +0.000 OA
DOCKED: ATOM     11  H   UNL     1      37.811   7.143 122.588 -0.40 -0.00    +0.000 HD
DOCKED: ENDBRANCH   8  10
DOCKED: ENDBRANCH   5   7
DOCKED: ENDBRANCH   4   5
DOCKED: ENDBRANCH   3   4
DOCKED: ENDBRANCH   2   3
DOCKED: ENDBRANCH   1   2
DOCKED: BRANCH   1  12
DOCKED: ATOM     12  C   UNL     1      36.701  14.491 122.439 -0.40 -0.00    +0.000 C 
DOCKED: BRANCH  12  13
DOCKED: ATOM     13  C   UNL     1      37.858  15.447 122.449 -0.34 -0.00    +0.000 C 
DOCKED: ATOM     14  N   UNL     1      39.179  14.982 122.133 -0.35 -0.00    +0.000 N 
DOCKED: ATOM     15  O   UNL     1      37.658  16.656 122.747 -0.24 -0.00    +0.000 OA
DOCKED: ATOM     16  H   UNL     1      39.264  14.143 121.624 -0.02 -0.00    +0.000 HD
DOCKED: BRANCH  14  17
DOCKED: ATOM     17  C   UNL     1      40.387  15.663 122.513 -0.35 -0.00    +0.000 A 
DOCKED: ATOM     18  C   UNL     1      40.407  17.064 122.560 -0.21 -0.00    +0.000 A 
DOCKED: ATOM     19  C   UNL     1      41.582  17.739 122.896 -0.23 -0.00    +0.000 A 
DOCKED: ATOM     20  C   UNL     1      42.737  17.005 123.166 -0.35 -0.00    +0.000 A 
DOCKED: ATOM     21  N   UNL     1      42.715  15.649 123.092 -0.97 +0.00    +0.000 NA
DOCKED: ATOM     22  C   UNL     1      41.582  14.967 122.774 -0.51 -0.00    +0.000 A 
DOCKED: ATOM     23  CM  UNL     1      41.599  16.329 122.840 +0.00 -0.00    +0.000 AC
DOCKED: ENDBRANCH  14  17
DOCKED: ENDBRANCH  12  13
DOCKED: ENDBRANCH   1  12
DOCKED: TORSDOF 9DOCKED: TER
DOCKED: ENDMDL
________________________________________________________________________________


	BEGINNING GENETIC ALGORITHM DOCKING 27 of 100
Run: 27 Seed: 184023281 1172904557 [ Run 27 of 100 GA/GALS ]
Beginning LAMARCKIAN GENETIC ALGORITHM (LGA), with a maximum of 2500000 energy evaluations.

Final-Value: -14.212


	FINAL GENETIC ALGORITHM DOCKED STATE
	_______________________________________________


Detailed state:  trans 37.196 11.115 121.995 quatxyzw 0.629862 -0.301482 0.102026 -0.708501 center -0.029 -0.207 0.469 ntor 9 175.5323 163.7294 62.5509 -132.3587 -164.8738 -41.1896 -179.8238 -170.9302 -50.9522
State:	 37.196  11.115 121.995   0.893 -0.427  0.145 -89.774    175.53  163.73   62.55 -132.36 -164.87  -41.19 -179.82 -170.93  -50.95

DOCKED: MODEL       27
DOCKED: USER    Run = 27
DOCKED: USER    DPF = ligand_dock.biased.dpf
DOCKED: USER  
DOCKED: USER    Estimated Free Energy of Binding    =  -10.36 kcal/mol  [=(1)+(2)+(3)-(4)]
DOCKED: USER    Estimated Inhibition Constant, Ki   =   25.43 nM (nanomolar)  [Temperature = 298.15 K]
DOCKED: USER    
DOCKED: USER    (1) Final Intermolecular Energy     =  -13.05 kcal/mol
DOCKED: USER        vdW + Hbond + desolv Energy     =  -13.05 kcal/mol
DOCKED: USER        Electrostatic Energy            =   +0.00 kcal/mol
DOCKED: USER    (2) Final Total Internal Energy     =   -1.17 kcal/mol
DOCKED: USER    (3) Torsional Free Energy           =   +2.68 kcal/mol
DOCKED: USER    (4) Unbound System's Energy  [=(2)] =   -1.17 kcal/mol
DOCKED: USER    
DOCKED: USER    
DOCKED: USER    NEWDPF move ligand.dum.pdbqt
DOCKED: USER    NEWDPF about -0.029000 -0.207000 0.469000
DOCKED: USER    NEWDPF tran0 37.196273 11.114571 121.995113
DOCKED: USER    NEWDPF quaternion0 0.629862 -0.301482 0.102026 -0.708501
DOCKED: USER    NEWDPF axisangle0 0.892522 -0.427203 0.144572 -89.773870
DOCKED: USER    NEWDPF quat0 0.892522 -0.427203 0.144572 -89.773870
DOCKED: USER    NEWDPF dihe0 175.53 163.73 62.55 -132.36 -164.87 -41.19 -179.82 -170.93 -50.95 
DOCKED: USER  keepresnum = 1 
DOCKED: USER  
DOCKED: REMARK  Name = 
DOCKED: REMARK  9 active torsions:
DOCKED: REMARK  status: ('A' for Active; 'I' for Inactive)
DOCKED: REMARK    1  A    between atoms: C_2  and  C_5
DOCKED: REMARK    2  A    between atoms: N_3  and  O_4
DOCKED: REMARK    3  A    between atoms: C_5  and  C_6
DOCKED: REMARK    4  A    between atoms: C_6  and  C_7
DOCKED: REMARK    5  A    between atoms: C_7  and  C_8
DOCKED: REMARK    6  A    between atoms: C_8  and  C_9
DOCKED: REMARK    7  A    between atoms: C_9  and  C_10
DOCKED: REMARK    8  A    between atoms: C_10  and  C_11
DOCKED: REMARK    9  A    between atoms: N_12  and  C_13
DOCKED: REMARK                            x       y       z     vdW  Elec       q    Type
DOCKED: REMARK                         _______ _______ _______ _____ _____    ______ ____
DOCKED: USER                              x       y       z     vdW  Elec       q    Type
DOCKED: USER                           _______ _______ _______ _____ _____    ______ ____
DOCKED: ROOT
DOCKED: ATOM      1  C   UNL     1      38.430  14.022 121.434 -0.41 -0.00    +0.000 C 
DOCKED: ENDROOT
DOCKED: BRANCH   1   2
DOCKED: ATOM      2  C   UNL     1      38.110  13.345 122.776 -0.40 -0.00    +0.000 C 
DOCKED: BRANCH   2   3
DOCKED: ATOM      3  C   UNL     1      36.595  13.208 122.977 -0.58 -0.00    +0.000 C 
DOCKED: BRANCH   3   4
DOCKED: ATOM      4  C   UNL     1      36.182  11.803 123.453 -0.70 -0.00    +0.000 C 
DOCKED: BRANCH   4   5
DOCKED: ATOM      5  C   UNL     1      35.672  10.877 122.336 -0.62 -0.00    +0.000 C 
DOCKED: BRANCH   5   7
DOCKED: ATOM      6  O   UNL     1      37.063   9.292 121.211 -2.67 -0.00    +0.000 OA
DOCKED: ATOM      7  C   UNL     1      36.447   9.592 122.269 -0.69 -0.00    +0.000 C 
DOCKED: ATOM      8  N   UNL     1      36.465   8.697 123.384 -0.61 -0.00    +0.000 N 
DOCKED: ATOM      9  H   UNL     1      35.977   8.932 124.206 -0.21 -0.00    +0.000 HD
DOCKED: BRANCH   8  10
DOCKED: ATOM     10  O   UNL     1      37.146   7.530 123.319 -2.19 -0.00    +0.000 OA
DOCKED: ATOM     11  H   UNL     1      37.110   7.086 124.180 -0.49 -0.00    +0.000 HD
DOCKED: ENDBRANCH   8  10
DOCKED: ENDBRANCH   5   7
DOCKED: ENDBRANCH   4   5
DOCKED: ENDBRANCH   3   4
DOCKED: ENDBRANCH   2   3
DOCKED: ENDBRANCH   1   2
DOCKED: BRANCH   1  12
DOCKED: ATOM     12  C   UNL     1      37.162  14.365 120.639 -0.30 -0.00    +0.000 C 
DOCKED: BRANCH  12  13
DOCKED: ATOM     13  C   UNL     1      37.151  13.682 119.304 -0.41 -0.00    +0.000 C 
DOCKED: ATOM     14  N   UNL     1      37.961  14.186 118.231 -0.26 -0.00    +0.000 N 
DOCKED: ATOM     15  O   UNL     1      36.418  12.670 119.133 -0.34 -0.00    +0.000 OA
DOCKED: ATOM     16  H   UNL     1      38.727  14.761 118.460 -0.08 -0.00    +0.000 HD
DOCKED: BRANCH  14  17
DOCKED: ATOM     17  C   UNL     1      37.725  13.904 116.840 -0.33 -0.00    +0.000 A 
DOCKED: ATOM     18  C   UNL     1      36.659  14.528 116.178 -0.26 -0.00    +0.000 A 
DOCKED: ATOM     19  C   UNL     1      36.399  14.239 114.838 -0.26 -0.00    +0.000 A 
DOCKED: ATOM     20  C   UNL     1      37.200  13.311 114.171 -0.33 -0.00    +0.000 A 
DOCKED: ATOM     21  N   UNL     1      38.215  12.692 114.829 -0.51 -0.00    +0.000 NA
DOCKED: ATOM     22  C   UNL     1      38.493  12.961 116.133 -0.41 -0.00    +0.000 A 
DOCKED: ATOM     23  CM  UNL     1      37.469  13.581 115.480 +0.00 -0.00    +0.000 AC
DOCKED: ENDBRANCH  14  17
DOCKED: ENDBRANCH  12  13
DOCKED: ENDBRANCH   1  12
DOCKED: TORSDOF 9DOCKED: TER
DOCKED: ENDMDL
________________________________________________________________________________


	BEGINNING GENETIC ALGORITHM DOCKING 28 of 100
Run: 28 Seed: 474087727 831651901 [ Run 28 of 100 GA/GALS ]
Beginning LAMARCKIAN GENETIC ALGORITHM (LGA), with a maximum of 2500000 energy evaluations.

Final-Value: -14.741


	FINAL GENETIC ALGORITHM DOCKED STATE
	_______________________________________________


Detailed state:  trans 37.719 14.446 121.417 quatxyzw -0.415641 -0.825984 -0.377544 0.049537 center -0.029 -0.207 0.469 ntor 9 -13.0669 -161.4542 3.7750 36.2008 -173.8316 -21.4519 -66.1700 -142.6524 -102.6042
State:	 37.719  14.446 121.417  -0.416 -0.827 -0.378 174.321    -13.07 -161.45    3.78   36.20 -173.83  -21.45  -66.17 -142.65 -102.60

DOCKED: MODEL       28
DOCKED: USER    Run = 28
DOCKED: USER    DPF = ligand_dock.biased.dpf
DOCKED: USER  
DOCKED: USER    Estimated Free Energy of Binding    =  -10.67 kcal/mol  [=(1)+(2)+(3)-(4)]
DOCKED: USER    Estimated Inhibition Constant, Ki   =   15.09 nM (nanomolar)  [Temperature = 298.15 K]
DOCKED: USER    
DOCKED: USER    (1) Final Intermolecular Energy     =  -13.35 kcal/mol
DOCKED: USER        vdW + Hbond + desolv Energy     =  -13.35 kcal/mol
DOCKED: USER        Electrostatic Energy            =   +0.00 kcal/mol
DOCKED: USER    (2) Final Total Internal Energy     =   -1.39 kcal/mol
DOCKED: USER    (3) Torsional Free Energy           =   +2.68 kcal/mol
DOCKED: USER    (4) Unbound System's Energy  [=(2)] =   -1.39 kcal/mol
DOCKED: USER    
DOCKED: USER    
DOCKED: USER    NEWDPF move ligand.dum.pdbqt
DOCKED: USER    NEWDPF about -0.029000 -0.207000 0.469000
DOCKED: USER    NEWDPF tran0 37.719332 14.446468 121.416565
DOCKED: USER    NEWDPF quaternion0 -0.415641 -0.825984 -0.377544 0.049537
DOCKED: USER    NEWDPF axisangle0 -0.416152 -0.826999 -0.378008 174.321146
DOCKED: USER    NEWDPF quat0 -0.416152 -0.826999 -0.378008 174.321146
DOCKED: USER    NEWDPF dihe0 -13.07 -161.45 3.78 36.20 -173.83 -21.45 -66.17 -142.65 -102.60 
DOCKED: USER  keepresnum = 1 
DOCKED: USER  
DOCKED: REMARK  Name = 
DOCKED: REMARK  9 active torsions:
DOCKED: REMARK  status: ('A' for Active; 'I' for Inactive)
DOCKED: REMARK    1  A    between atoms: C_2  and  C_5
DOCKED: REMARK    2  A    between atoms: N_3  and  O_4
DOCKED: REMARK    3  A    between atoms: C_5  and  C_6
DOCKED: REMARK    4  A    between atoms: C_6  and  C_7
DOCKED: REMARK    5  A    between atoms: C_7  and  C_8
DOCKED: REMARK    6  A    between atoms: C_8  and  C_9
DOCKED: REMARK    7  A    between atoms: C_9  and  C_10
DOCKED: REMARK    8  A    between atoms: C_10  and  C_11
DOCKED: REMARK    9  A    between atoms: N_12  and  C_13
DOCKED: REMARK                            x       y       z     vdW  Elec       q    Type
DOCKED: REMARK                         _______ _______ _______ _____ _____    ______ ____
DOCKED: USER                              x       y       z     vdW  Elec       q    Type
DOCKED: USER                           _______ _______ _______ _____ _____    ______ ____
DOCKED: ROOT
DOCKED: ATOM      1  C   UNL     1      36.106  12.388 123.274 -0.65 -0.00    +0.000 C 
DOCKED: ENDROOT
DOCKED: BRANCH   1   2
DOCKED: ATOM      2  C   UNL     1      36.742  13.737 123.644 -0.50 -0.00    +0.000 C 
DOCKED: BRANCH   2   3
DOCKED: ATOM      3  C   UNL     1      36.430  14.802 122.584 -0.35 -0.00    +0.000 C 
DOCKED: BRANCH   3   4
DOCKED: ATOM      4  C   UNL     1      36.431  16.232 123.158 -0.35 -0.00    +0.000 C 
DOCKED: BRANCH   4   5
DOCKED: ATOM      5  C   UNL     1      35.037  16.866 123.285 -0.41 -0.00    +0.000 C 
DOCKED: BRANCH   5   7
DOCKED: ATOM      6  O   UNL     1      33.516  15.137 123.925 -0.63 -0.00    +0.000 OA
DOCKED: ATOM      7  C   UNL     1      34.177  16.148 124.285 -0.53 -0.00    +0.000 C 
DOCKED: ATOM      8  N   UNL     1      34.082  16.619 125.632 -0.47 -0.00    +0.000 N 
DOCKED: ATOM      9  H   UNL     1      34.596  17.413 125.908 -0.01 -0.00    +0.000 HD
DOCKED: BRANCH   8  10
DOCKED: ATOM     10  O   UNL     1      33.294  15.985 126.530 -1.10 -0.00    +0.000 OA
DOCKED: ATOM     11  H   UNL     1      32.708  15.367 126.066 -0.22 -0.00    +0.000 HD
DOCKED: ENDBRANCH   8  10
DOCKED: ENDBRANCH   5   7
DOCKED: ENDBRANCH   4   5
DOCKED: ENDBRANCH   3   4
DOCKED: ENDBRANCH   2   3
DOCKED: ENDBRANCH   1   2
DOCKED: BRANCH   1  12
DOCKED: ATOM     12  C   UNL     1      37.159  11.322 122.940 -0.55 -0.00    +0.000 C 
DOCKED: BRANCH  12  13
DOCKED: ATOM     13  C   UNL     1      36.524  10.074 122.401 -0.69 -0.00    +0.000 C 
DOCKED: ATOM     14  N   UNL     1      35.407   9.482 123.082 -0.60 -0.00    +0.000 N 
DOCKED: ATOM     15  O   UNL     1      36.987   9.548 121.352 -2.32 -0.00    +0.000 OA
DOCKED: ATOM     16  H   UNL     1      34.886  10.050 123.695 -0.44 -0.00    +0.000 HD
DOCKED: BRANCH  14  17
DOCKED: ATOM     17  C   UNL     1      35.000   8.111 122.926 -0.62 -0.00    +0.000 A 
DOCKED: ATOM     18  C   UNL     1      33.736   7.820 122.396 -0.63 -0.00    +0.000 A 
DOCKED: ATOM     19  C   UNL     1      33.316   6.495 122.269 -0.59 -0.00    +0.000 A 
DOCKED: ATOM     20  C   UNL     1      34.161   5.467 122.692 -0.28 -0.00    +0.000 A 
DOCKED: ATOM     21  N   UNL     1      35.374   5.762 123.229 -0.79 -0.00    +0.000 NA
DOCKED: ATOM     22  C   UNL     1      35.809   7.043 123.357 -0.63 -0.00    +0.000 A 
DOCKED: ATOM     23  CM  UNL     1      34.588   6.756 122.823 +0.00 -0.00    +0.000 AC
DOCKED: ENDBRANCH  14  17
DOCKED: ENDBRANCH  12  13
DOCKED: ENDBRANCH   1  12
DOCKED: TORSDOF 9DOCKED: TER
DOCKED: ENDMDL
________________________________________________________________________________


	BEGINNING GENETIC ALGORITHM DOCKING 29 of 100
Run: 29 Seed: 2140982777 302973943 [ Run 29 of 100 GA/GALS ]
Beginning LAMARCKIAN GENETIC ALGORITHM (LGA), with a maximum of 2500000 energy evaluations.

Final-Value: -13.833


	FINAL GENETIC ALGORITHM DOCKED STATE
	_______________________________________________


Detailed state:  trans 34.768 12.171 119.136 quatxyzw 0.418241 -0.446745 -0.157369 -0.775066 center -0.029 -0.207 0.469 ntor 9 9.6295 -147.5479 19.9427 -73.6204 43.9743 -5.3750 -20.5601 49.8282 -71.8899
State:	 34.768  12.171 119.136   0.662 -0.707 -0.249 -78.378      9.63 -147.55   19.94  -73.62   43.97   -5.38  -20.56   49.83  -71.89

DOCKED: MODEL       29
DOCKED: USER    Run = 29
DOCKED: USER    DPF = ligand_dock.biased.dpf
DOCKED: USER  
DOCKED: USER    Estimated Free Energy of Binding    =   -9.98 kcal/mol  [=(1)+(2)+(3)-(4)]
DOCKED: USER    Estimated Inhibition Constant, Ki   =   48.75 nM (nanomolar)  [Temperature = 298.15 K]
DOCKED: USER    
DOCKED: USER    (1) Final Intermolecular Energy     =  -12.66 kcal/mol
DOCKED: USER        vdW + Hbond + desolv Energy     =  -12.66 kcal/mol
DOCKED: USER        Electrostatic Energy            =   +0.00 kcal/mol
DOCKED: USER    (2) Final Total Internal Energy     =   -1.17 kcal/mol
DOCKED: USER    (3) Torsional Free Energy           =   +2.68 kcal/mol
DOCKED: USER    (4) Unbound System's Energy  [=(2)] =   -1.17 kcal/mol
DOCKED: USER    
DOCKED: USER    
DOCKED: USER    NEWDPF move ligand.dum.pdbqt
DOCKED: USER    NEWDPF about -0.029000 -0.207000 0.469000
DOCKED: USER    NEWDPF tran0 34.767533 12.170702 119.136014
DOCKED: USER    NEWDPF quaternion0 0.418241 -0.446745 -0.157369 -0.775066
DOCKED: USER    NEWDPF axisangle0 0.661900 -0.707010 -0.249049 -78.377891
DOCKED: USER    NEWDPF quat0 0.661900 -0.707010 -0.249049 -78.377891
DOCKED: USER    NEWDPF dihe0 9.63 -147.55 19.94 -73.62 43.97 -5.38 -20.56 49.83 -71.89 
DOCKED: USER  keepresnum = 1 
DOCKED: USER  
DOCKED: REMARK  Name = 
DOCKED: REMARK  9 active torsions:
DOCKED: REMARK  status: ('A' for Active; 'I' for Inactive)
DOCKED: REMARK    1  A    between atoms: C_2  and  C_5
DOCKED: REMARK    2  A    between atoms: N_3  and  O_4
DOCKED: REMARK    3  A    between atoms: C_5  and  C_6
DOCKED: REMARK    4  A    between atoms: C_6  and  C_7
DOCKED: REMARK    5  A    between atoms: C_7  and  C_8
DOCKED: REMARK    6  A    between atoms: C_8  and  C_9
DOCKED: REMARK    7  A    between atoms: C_9  and  C_10
DOCKED: REMARK    8  A    between atoms: C_10  and  C_11
DOCKED: REMARK    9  A    between atoms: N_12  and  C_13
DOCKED: REMARK                            x       y       z     vdW  Elec       q    Type
DOCKED: REMARK                         _______ _______ _______ _____ _____    ______ ____
DOCKED: USER                              x       y       z     vdW  Elec       q    Type
DOCKED: USER                           _______ _______ _______ _____ _____    ______ ____
DOCKED: ROOT
DOCKED: ATOM      1  C   UNL     1      37.436  13.436 117.885 -0.41 -0.00    +0.000 C 
DOCKED: ENDROOT
DOCKED: BRANCH   1   2
DOCKED: ATOM      2  C   UNL     1      37.007  13.337 119.357 -0.43 -0.00    +0.000 C 
DOCKED: BRANCH   2   3
DOCKED: ATOM      3  C   UNL     1      37.506  12.030 119.990 -0.44 -0.00    +0.000 C 
DOCKED: BRANCH   3   4
DOCKED: ATOM      4  C   UNL     1      37.337  12.007 121.520 -0.50 -0.00    +0.000 C 
DOCKED: BRANCH   4   5
DOCKED: ATOM      5  C   UNL     1      36.264  11.029 122.026 -0.61 -0.00    +0.000 C 
DOCKED: BRANCH   5   7
DOCKED: ATOM      6  O   UNL     1      36.992   8.973 121.046 -2.70 -0.00    +0.000 OA
DOCKED: ATOM      7  C   UNL     1      36.777   9.619 122.107 -0.67 -0.00    +0.000 C 
DOCKED: ATOM      8  N   UNL     1      36.993   8.998 123.376 -0.60 -0.00    +0.000 N 
DOCKED: ATOM      9  H   UNL     1      36.817   9.504 124.203 -0.51 -0.00    +0.000 HD
DOCKED: BRANCH   8  10
DOCKED: ATOM     10  O   UNL     1      37.436   7.722 123.452 -2.18 -0.00    +0.000 OA
DOCKED: ATOM     11  H   UNL     1      37.702   7.419 122.570 -0.22 -0.00    +0.000 HD
DOCKED: ENDBRANCH   8  10
DOCKED: ENDBRANCH   5   7
DOCKED: ENDBRANCH   4   5
DOCKED: ENDBRANCH   3   4
DOCKED: ENDBRANCH   2   3
DOCKED: ENDBRANCH   1   2
DOCKED: BRANCH   1  12
DOCKED: ATOM     12  C   UNL     1      36.556  14.408 117.087 -0.34 -0.00    +0.000 C 
DOCKED: BRANCH  12  13
DOCKED: ATOM     13  C   UNL     1      36.290  13.895 115.703 -0.32 -0.00    +0.000 C 
DOCKED: ATOM     14  N   UNL     1      35.015  14.123 115.083 -0.25 -0.00    +0.000 N 
DOCKED: ATOM     15  O   UNL     1      37.192  13.255 115.096 -0.44 -0.00    +0.000 OA
DOCKED: ATOM     16  H   UNL     1      34.457  14.857 115.430 +0.00 -0.00    +0.000 HD
DOCKED: BRANCH  14  17
DOCKED: ATOM     17  C   UNL     1      34.499  13.347 113.987 -0.22 -0.00    +0.000 A 
DOCKED: ATOM     18  C   UNL     1      33.182  12.871 114.035 -0.32 -0.00    +0.000 A 
DOCKED: ATOM     19  C   UNL     1      32.679  12.089 112.993 -0.44 -0.00    +0.000 A 
DOCKED: ATOM     20  C   UNL     1      33.508  11.773 111.916 -0.42 -0.00    +0.000 A 
DOCKED: ATOM     21  N   UNL     1      34.792  12.217 111.892 -0.34 -0.00    +0.000 NA
DOCKED: ATOM     22  C   UNL     1      35.303  12.985 112.890 -0.28 -0.00    +0.000 A 
DOCKED: ATOM     23  CM  UNL     1      34.015  12.538 112.924 +0.00 -0.00    +0.000 AC
DOCKED: ENDBRANCH  14  17
DOCKED: ENDBRANCH  12  13
DOCKED: ENDBRANCH   1  12
DOCKED: TORSDOF 9DOCKED: TER
DOCKED: ENDMDL
________________________________________________________________________________


	BEGINNING GENETIC ALGORITHM DOCKING 30 of 100
Run: 30 Seed: 2101583581 1005728635 [ Run 30 of 100 GA/GALS ]
Beginning LAMARCKIAN GENETIC ALGORITHM (LGA), with a maximum of 2500000 energy evaluations.

Final-Value: -13.052


	FINAL GENETIC ALGORITHM DOCKED STATE
	_______________________________________________


Detailed state:  trans 34.707 14.940 121.077 quatxyzw -0.387503 0.478621 0.575644 0.537956 center -0.029 -0.207 0.469 ntor 9 5.2794 -121.6210 47.1717 69.2832 75.3474 -43.0700 -9.4711 -113.4302 165.9177
State:	 34.707  14.940 121.077  -0.460  0.568  0.683 114.911      5.28 -121.62   47.17   69.28   75.35  -43.07   -9.47 -113.43  165.92

DOCKED: MODEL       30
DOCKED: USER    Run = 30
DOCKED: USER    DPF = ligand_dock.biased.dpf
DOCKED: USER  
DOCKED: USER    Estimated Free Energy of Binding    =   -9.03 kcal/mol  [=(1)+(2)+(3)-(4)]
DOCKED: USER    Estimated Inhibition Constant, Ki   =  239.76 nM (nanomolar)  [Temperature = 298.15 K]
DOCKED: USER    
DOCKED: USER    (1) Final Intermolecular Energy     =  -11.72 kcal/mol
DOCKED: USER        vdW + Hbond + desolv Energy     =  -11.72 kcal/mol
DOCKED: USER        Electrostatic Energy            =   +0.00 kcal/mol
DOCKED: USER    (2) Final Total Internal Energy     =   -1.34 kcal/mol
DOCKED: USER    (3) Torsional Free Energy           =   +2.68 kcal/mol
DOCKED: USER    (4) Unbound System's Energy  [=(2)] =   -1.34 kcal/mol
DOCKED: USER    
DOCKED: USER    
DOCKED: USER    NEWDPF move ligand.dum.pdbqt
DOCKED: USER    NEWDPF about -0.029000 -0.207000 0.469000
DOCKED: USER    NEWDPF tran0 34.707029 14.940369 121.077388
DOCKED: USER    NEWDPF quaternion0 -0.387503 0.478621 0.575644 0.537956
DOCKED: USER    NEWDPF axisangle0 -0.459687 0.567778 0.682874 114.910813
DOCKED: USER    NEWDPF quat0 -0.459687 0.567778 0.682874 114.910813
DOCKED: USER    NEWDPF dihe0 5.28 -121.62 47.17 69.28 75.35 -43.07 -9.47 -113.43 165.92 
DOCKED: USER  keepresnum = 1 
DOCKED: USER  
DOCKED: REMARK  Name = 
DOCKED: REMARK  9 active torsions:
DOCKED: REMARK  status: ('A' for Active; 'I' for Inactive)
DOCKED: REMARK    1  A    between atoms: C_2  and  C_5
DOCKED: REMARK    2  A    between atoms: N_3  and  O_4
DOCKED: REMARK    3  A    between atoms: C_5  and  C_6
DOCKED: REMARK    4  A    between atoms: C_6  and  C_7
DOCKED: REMARK    5  A    between atoms: C_7  and  C_8
DOCKED: REMARK    6  A    between atoms: C_8  and  C_9
DOCKED: REMARK    7  A    between atoms: C_9  and  C_10
DOCKED: REMARK    8  A    between atoms: C_10  and  C_11
DOCKED: REMARK    9  A    between atoms: N_12  and  C_13
DOCKED: REMARK                            x       y       z     vdW  Elec       q    Type
DOCKED: REMARK                         _______ _______ _______ _____ _____    ______ ____
DOCKED: USER                              x       y       z     vdW  Elec       q    Type
DOCKED: USER                           _______ _______ _______ _____ _____    ______ ____
DOCKED: ROOT
DOCKED: ATOM      1  C   UNL     1      37.599  14.508 119.760 -0.31 -0.00    +0.000 C 
DOCKED: ENDROOT
DOCKED: BRANCH   1   2
DOCKED: ATOM      2  C   UNL     1      37.064  14.011 121.111 -0.33 -0.00    +0.000 C 
DOCKED: BRANCH   2   3
DOCKED: ATOM      3  C   UNL     1      36.660  12.532 121.034 -0.44 -0.00    +0.000 C 
DOCKED: BRANCH   3   4
DOCKED: ATOM      4  C   UNL     1      37.236  11.695 122.192 -0.48 -0.00    +0.000 C 
DOCKED: BRANCH   4   5
DOCKED: ATOM      5  C   UNL     1      36.279  10.623 122.738 -0.69 -0.00    +0.000 C 
DOCKED: BRANCH   5   7
DOCKED: ATOM      6  O   UNL     1      37.080   8.990 121.186 -2.69 -0.00    +0.000 OA
DOCKED: ATOM      7  C   UNL     1      36.715   9.234 122.368 -0.73 -0.00    +0.000 C 
DOCKED: ATOM      8  N   UNL     1      36.691   8.184 123.338 -0.71 -0.00    +0.000 N 
DOCKED: ATOM      9  H   UNL     1      36.399   8.377 124.259 -0.28 -0.00    +0.000 HD
DOCKED: BRANCH   8  10
DOCKED: ATOM     10  O   UNL     1      37.065   6.928 123.003 -1.72 -0.00    +0.000 OA
DOCKED: ATOM     11  H   UNL     1      37.400   6.922 122.093 -0.25 -0.00    +0.000 HD
DOCKED: ENDBRANCH   8  10
DOCKED: ENDBRANCH   5   7
DOCKED: ENDBRANCH   4   5
DOCKED: ENDBRANCH   3   4
DOCKED: ENDBRANCH   2   3
DOCKED: ENDBRANCH   1   2
DOCKED: BRANCH   1  12
DOCKED: ATOM     12  C   UNL     1      37.771  16.033 119.728 -0.17 -0.00    +0.000 C 
DOCKED: BRANCH  12  13
DOCKED: ATOM     13  C   UNL     1      39.184  16.432 120.035 -0.14 -0.00    +0.000 C 
DOCKED: ATOM     14  N   UNL     1      40.063  15.513 120.703 -0.22 -0.00    +0.000 N 
DOCKED: ATOM     15  O   UNL     1      39.586  17.582 119.711 -0.06 -0.00    +0.000 OA
DOCKED: ATOM     16  H   UNL     1      39.839  14.555 120.673 -0.04 -0.00    +0.000 HD
DOCKED: BRANCH  14  17
DOCKED: ATOM     17  C   UNL     1      41.250  15.905 121.415 -0.26 -0.00    +0.000 A 
DOCKED: ATOM     18  C   UNL     1      42.448  16.090 120.713 -0.21 -0.00    +0.000 A 
DOCKED: ATOM     19  C   UNL     1      43.615  16.438 121.396 -0.26 -0.00    +0.000 A 
DOCKED: ATOM     20  C   UNL     1      43.577  16.581 122.784 -0.30 -0.00    +0.000 A 
DOCKED: ATOM     21  N   UNL     1      42.416  16.373 123.458 -1.03 +0.00    +0.000 NA
DOCKED: ATOM     22  C   UNL     1      41.265  16.040 122.816 -0.38 -0.00    +0.000 A 
DOCKED: ATOM     23  CM  UNL     1      42.428  16.241 122.134 +0.00 -0.00    +0.000 AC
DOCKED: ENDBRANCH  14  17
DOCKED: ENDBRANCH  12  13
DOCKED: ENDBRANCH   1  12
DOCKED: TORSDOF 9DOCKED: TER
DOCKED: ENDMDL
________________________________________________________________________________


	BEGINNING GENETIC ALGORITHM DOCKING 31 of 100
Run: 31 Seed: 1966299894 182458586 [ Run 31 of 100 GA/GALS ]
Beginning LAMARCKIAN GENETIC ALGORITHM (LGA), with a maximum of 2500000 energy evaluations.

Final-Value: -13.753


	FINAL GENETIC ALGORITHM DOCKED STATE
	_______________________________________________


Detailed state:  trans 35.676 14.392 123.250 quatxyzw 0.030567 -0.412818 -0.449802 -0.791407 center -0.029 -0.207 0.469 ntor 9 7.9461 -170.1930 80.4969 -142.4764 -171.1974 -101.2634 -61.8869 171.5514 -120.2845
State:	 35.676  14.392 123.250   0.050 -0.675 -0.736 -75.366      7.95 -170.19   80.50 -142.48 -171.20 -101.26  -61.89  171.55 -120.28

DOCKED: MODEL       31
DOCKED: USER    Run = 31
DOCKED: USER    DPF = ligand_dock.biased.dpf
DOCKED: USER  
DOCKED: USER    Estimated Free Energy of Binding    =   -9.68 kcal/mol  [=(1)+(2)+(3)-(4)]
DOCKED: USER    Estimated Inhibition Constant, Ki   =   80.54 nM (nanomolar)  [Temperature = 298.15 K]
DOCKED: USER    
DOCKED: USER    (1) Final Intermolecular Energy     =  -12.36 kcal/mol
DOCKED: USER        vdW + Hbond + desolv Energy     =  -12.36 kcal/mol
DOCKED: USER        Electrostatic Energy            =   +0.00 kcal/mol
DOCKED: USER    (2) Final Total Internal Energy     =   -1.39 kcal/mol
DOCKED: USER    (3) Torsional Free Energy           =   +2.68 kcal/mol
DOCKED: USER    (4) Unbound System's Energy  [=(2)] =   -1.39 kcal/mol
DOCKED: USER    
DOCKED: USER    
DOCKED: USER    NEWDPF move ligand.dum.pdbqt
DOCKED: USER    NEWDPF about -0.029000 -0.207000 0.469000
DOCKED: USER    NEWDPF tran0 35.675828 14.391602 123.249730
DOCKED: USER    NEWDPF quaternion0 0.030567 -0.412818 -0.449802 -0.791407
DOCKED: USER    NEWDPF axisangle0 0.050004 -0.675323 -0.735825 -75.365609
DOCKED: USER    NEWDPF quat0 0.050004 -0.675323 -0.735825 -75.365609
DOCKED: USER    NEWDPF dihe0 7.95 -170.19 80.50 -142.48 -171.20 -101.26 -61.89 171.55 -120.28 
DOCKED: USER  keepresnum = 1 
DOCKED: USER  
DOCKED: REMARK  Name = 
DOCKED: REMARK  9 active torsions:
DOCKED: REMARK  status: ('A' for Active; 'I' for Inactive)
DOCKED: REMARK    1  A    between atoms: C_2  and  C_5
DOCKED: REMARK    2  A    between atoms: N_3  and  O_4
DOCKED: REMARK    3  A    between atoms: C_5  and  C_6
DOCKED: REMARK    4  A    between atoms: C_6  and  C_7
DOCKED: REMARK    5  A    between atoms: C_7  and  C_8
DOCKED: REMARK    6  A    between atoms: C_8  and  C_9
DOCKED: REMARK    7  A    between atoms: C_9  and  C_10
DOCKED: REMARK    8  A    between atoms: C_10  and  C_11
DOCKED: REMARK    9  A    between atoms: N_12  and  C_13
DOCKED: REMARK                            x       y       z     vdW  Elec       q    Type
DOCKED: REMARK                         _______ _______ _______ _____ _____    ______ ____
DOCKED: USER                              x       y       z     vdW  Elec       q    Type
DOCKED: USER                           _______ _______ _______ _____ _____    ______ ____
DOCKED: ROOT
DOCKED: ATOM      1  C   UNL     1      37.428  13.041 120.927 -0.49 -0.00    +0.000 C 
DOCKED: ENDROOT
DOCKED: BRANCH   1   2
DOCKED: ATOM      2  C   UNL     1      37.861  13.499 122.329 -0.49 -0.00    +0.000 C 
DOCKED: BRANCH   2   3
DOCKED: ATOM      3  C   UNL     1      36.900  12.970 123.402 -0.62 -0.00    +0.000 C 
DOCKED: BRANCH   3   4
DOCKED: ATOM      4  C   UNL     1      37.062  11.460 123.658 -0.66 -0.00    +0.000 C 
DOCKED: BRANCH   4   5
DOCKED: ATOM      5  C   UNL     1      35.945  10.591 123.058 -0.69 -0.00    +0.000 C 
DOCKED: BRANCH   5   7
DOCKED: ATOM      6  O   UNL     1      36.765   9.217 121.282 -2.59 -0.00    +0.000 OA
DOCKED: ATOM      7  C   UNL     1      36.470   9.297 122.505 -0.73 -0.00    +0.000 C 
DOCKED: ATOM      8  N   UNL     1      36.607   8.151 123.349 -0.71 -0.00    +0.000 N 
DOCKED: ATOM      9  H   UNL     1      36.370   8.216 124.302 -0.24 -0.00    +0.000 HD
DOCKED: BRANCH   8  10
DOCKED: ATOM     10  O   UNL     1      37.062   6.979 122.849 -1.71 -0.00    +0.000 OA
DOCKED: ATOM     11  H   UNL     1      37.367   7.112 121.938 -0.17 -0.00    +0.000 HD
DOCKED: ENDBRANCH   8  10
DOCKED: ENDBRANCH   5   7
DOCKED: ENDBRANCH   4   5
DOCKED: ENDBRANCH   3   4
DOCKED: ENDBRANCH   2   3
DOCKED: ENDBRANCH   1   2
DOCKED: BRANCH   1  12
DOCKED: ATOM     12  C   UNL     1      37.063  14.222 120.017 -0.31 -0.00    +0.000 C 
DOCKED: BRANCH  12  13
DOCKED: ATOM     13  C   UNL     1      36.874  13.780 118.596 -0.40 -0.00    +0.000 C 
DOCKED: ATOM     14  N   UNL     1      37.966  13.857 117.667 -0.29 -0.00    +0.000 N 
DOCKED: ATOM     15  O   UNL     1      35.747  13.352 118.226 -0.45 -0.00    +0.000 OA
DOCKED: ATOM     16  H   UNL     1      38.880  13.900 118.031 -0.11 -0.00    +0.000 HD
DOCKED: BRANCH  14  17
DOCKED: ATOM     17  C   UNL     1      37.810  13.878 116.237 -0.35 -0.00    +0.000 A 
DOCKED: ATOM     18  C   UNL     1      37.145  14.952 115.629 -0.20 -0.00    +0.000 A 
DOCKED: ATOM     19  C   UNL     1      36.957  14.968 114.245 -0.18 -0.00    +0.000 A 
DOCKED: ATOM     20  C   UNL     1      37.423  13.898 113.480 -0.25 -0.00    +0.000 A 
DOCKED: ATOM     21  N   UNL     1      38.043  12.850 114.083 -0.29 -0.00    +0.000 NA
DOCKED: ATOM     22  C   UNL     1      38.243  12.812 115.427 -0.44 -0.00    +0.000 A 
DOCKED: ATOM     23  CM  UNL     1      37.615  13.865 114.830 +0.00 -0.00    +0.000 AC
DOCKED: ENDBRANCH  14  17
DOCKED: ENDBRANCH  12  13
DOCKED: ENDBRANCH   1  12
DOCKED: TORSDOF 9DOCKED: TER
DOCKED: ENDMDL
________________________________________________________________________________


	BEGINNING GENETIC ALGORITHM DOCKING 32 of 100
Run: 32 Seed: 525088879 149627263 [ Run 32 of 100 GA/GALS ]
Beginning LAMARCKIAN GENETIC ALGORITHM (LGA), with a maximum of 2500000 energy evaluations.

Final-Value: -13.929


	FINAL GENETIC ALGORITHM DOCKED STATE
	_______________________________________________


Detailed state:  trans 37.421 16.159 124.922 quatxyzw -0.470216 0.168928 -0.346063 -0.794103 center -0.029 -0.207 0.469 ntor 9 20.8892 108.6377 74.7958 -99.3764 47.5913 -159.8003 16.4264 160.4763 8.7093
State:	 37.421  16.159 124.922  -0.774  0.278 -0.569 -74.859     20.89  108.64   74.80  -99.38   47.59 -159.80   16.43  160.48    8.71

DOCKED: MODEL       32
DOCKED: USER    Run = 32
DOCKED: USER    DPF = ligand_dock.biased.dpf
DOCKED: USER  
DOCKED: USER    Estimated Free Energy of Binding    =   -9.99 kcal/mol  [=(1)+(2)+(3)-(4)]
DOCKED: USER    Estimated Inhibition Constant, Ki   =   47.39 nM (nanomolar)  [Temperature = 298.15 K]
DOCKED: USER    
DOCKED: USER    (1) Final Intermolecular Energy     =  -12.68 kcal/mol
DOCKED: USER        vdW + Hbond + desolv Energy     =  -12.68 kcal/mol
DOCKED: USER        Electrostatic Energy            =   +0.00 kcal/mol
DOCKED: USER    (2) Final Total Internal Energy     =   -1.25 kcal/mol
DOCKED: USER    (3) Torsional Free Energy           =   +2.68 kcal/mol
DOCKED: USER    (4) Unbound System's Energy  [=(2)] =   -1.25 kcal/mol
DOCKED: USER    
DOCKED: USER    
DOCKED: USER    NEWDPF move ligand.dum.pdbqt
DOCKED: USER    NEWDPF about -0.029000 -0.207000 0.469000
DOCKED: USER    NEWDPF tran0 37.420665 16.159426 124.921643
DOCKED: USER    NEWDPF quaternion0 -0.470216 0.168928 -0.346063 -0.794103
DOCKED: USER    NEWDPF axisangle0 -0.773658 0.277942 -0.569387 -74.858687
DOCKED: USER    NEWDPF quat0 -0.773658 0.277942 -0.569387 -74.858687
DOCKED: USER    NEWDPF dihe0 20.89 108.64 74.80 -99.38 47.59 -159.80 16.43 160.48 8.71 
DOCKED: USER  keepresnum = 1 
DOCKED: USER  
DOCKED: REMARK  Name = 
DOCKED: REMARK  9 active torsions:
DOCKED: REMARK  status: ('A' for Active; 'I' for Inactive)
DOCKED: REMARK    1  A    between atoms: C_2  and  C_5
DOCKED: REMARK    2  A    between atoms: N_3  and  O_4
DOCKED: REMARK    3  A    between atoms: C_5  and  C_6
DOCKED: REMARK    4  A    between atoms: C_6  and  C_7
DOCKED: REMARK    5  A    between atoms: C_7  and  C_8
DOCKED: REMARK    6  A    between atoms: C_8  and  C_9
DOCKED: REMARK    7  A    between atoms: C_9  and  C_10
DOCKED: REMARK    8  A    between atoms: C_10  and  C_11
DOCKED: REMARK    9  A    between atoms: N_12  and  C_13
DOCKED: REMARK                            x       y       z     vdW  Elec       q    Type
DOCKED: REMARK                         _______ _______ _______ _____ _____    ______ ____
DOCKED: USER                              x       y       z     vdW  Elec       q    Type
DOCKED: USER                           _______ _______ _______ _____ _____    ______ ____
DOCKED: ROOT
DOCKED: ATOM      1  C   UNL     1      35.314  13.998 123.836 -0.45 -0.00    +0.000 C 
DOCKED: ENDROOT
DOCKED: BRANCH   1   2
DOCKED: ATOM      2  C   UNL     1      36.683  14.393 123.261 -0.50 -0.00    +0.000 C 
DOCKED: BRANCH   2   3
DOCKED: ATOM      3  C   UNL     1      37.570  13.158 123.051 -0.55 -0.00    +0.000 C 
DOCKED: BRANCH   3   4
DOCKED: ATOM      4  C   UNL     1      36.780  11.838 123.117 -0.68 -0.00    +0.000 C 
DOCKED: BRANCH   4   5
DOCKED: ATOM      5  C   UNL     1      36.720  11.067 121.788 -0.58 -0.00    +0.000 C 
DOCKED: BRANCH   5   7
DOCKED: ATOM      6  O   UNL     1      37.022   8.841 120.968 -2.70 -0.00    +0.000 OA
DOCKED: ATOM      7  C   UNL     1      36.952   9.595 121.977 -0.63 -0.00    +0.000 C 
DOCKED: ATOM      8  N   UNL     1      37.065   9.042 123.290 -0.62 -0.00    +0.000 N 
DOCKED: ATOM      9  H   UNL     1      37.004   9.632 124.076 -0.53 -0.00    +0.000 HD
DOCKED: BRANCH   8  10
DOCKED: ATOM     10  O   UNL     1      37.255   7.713 123.464 -2.23 -0.00    +0.000 OA
DOCKED: ATOM     11  H   UNL     1      37.615   7.329 122.649 -0.27 -0.00    +0.000 HD
DOCKED: ENDBRANCH   8  10
DOCKED: ENDBRANCH   5   7
DOCKED: ENDBRANCH   4   5
DOCKED: ENDBRANCH   3   4
DOCKED: ENDBRANCH   2   3
DOCKED: ENDBRANCH   1   2
DOCKED: BRANCH   1  12
DOCKED: ATOM     12  C   UNL     1      34.282  15.126 123.705 -0.46 -0.00    +0.000 C 
DOCKED: BRANCH  12  13
DOCKED: ATOM     13  C   UNL     1      34.714  16.353 124.451 -0.52 -0.00    +0.000 C 
DOCKED: ATOM     14  N   UNL     1      34.086  16.698 125.696 -0.46 -0.00    +0.000 N 
DOCKED: ATOM     15  O   UNL     1      35.624  17.081 123.969 -0.34 -0.00    +0.000 OA
DOCKED: ATOM     16  H   UNL     1      33.617  15.987 126.189 -0.06 -0.00    +0.000 HD
DOCKED: BRANCH  14  17
DOCKED: ATOM     17  C   UNL     1      34.099  18.018 126.268 -0.30 -0.00    +0.000 A 
DOCKED: ATOM     18  C   UNL     1      32.930  18.790 126.254 -0.25 -0.00    +0.000 A 
DOCKED: ATOM     19  C   UNL     1      32.937  20.085 126.776 -0.20 -0.00    +0.000 A 
DOCKED: ATOM     20  C   UNL     1      34.123  20.605 127.295 -0.10 -0.00    +0.000 A 
DOCKED: ATOM     21  N   UNL     1      35.258  19.858 127.280 -0.10 -0.00    +0.000 NA
DOCKED: ATOM     22  C   UNL     1      35.276  18.592 126.783 -0.17 -0.00    +0.000 A 
DOCKED: ATOM     23  CM  UNL     1      34.135  19.339 126.789 -0.00 -0.00    +0.000 AC
DOCKED: ENDBRANCH  14  17
DOCKED: ENDBRANCH  12  13
DOCKED: ENDBRANCH   1  12
DOCKED: TORSDOF 9DOCKED: TER
DOCKED: ENDMDL
________________________________________________________________________________


	BEGINNING GENETIC ALGORITHM DOCKING 33 of 100
Run: 33 Seed: 1054040678 637041997 [ Run 33 of 100 GA/GALS ]
Beginning LAMARCKIAN GENETIC ALGORITHM (LGA), with a maximum of 2500000 energy evaluations.

Final-Value: -13.894


	FINAL GENETIC ALGORITHM DOCKED STATE
	_______________________________________________


Detailed state:  trans 36.971 11.251 122.880 quatxyzw 0.311460 -0.195217 0.065818 -0.927659 center -0.029 -0.207 0.469 ntor 9 -13.5482 -178.7729 52.7673 112.6288 -174.1268 -72.5227 -160.2569 -67.5554 -149.3705
State:	 36.971  11.251 122.880   0.834 -0.523  0.176 -43.854    -13.55 -178.77   52.77  112.63 -174.13  -72.52 -160.26  -67.56 -149.37

DOCKED: MODEL       33
DOCKED: USER    Run = 33
DOCKED: USER    DPF = ligand_dock.biased.dpf
DOCKED: USER  
DOCKED: USER    Estimated Free Energy of Binding    =   -9.70 kcal/mol  [=(1)+(2)+(3)-(4)]
DOCKED: USER    Estimated Inhibition Constant, Ki   =   77.74 nM (nanomolar)  [Temperature = 298.15 K]
DOCKED: USER    
DOCKED: USER    (1) Final Intermolecular Energy     =  -12.38 kcal/mol
DOCKED: USER        vdW + Hbond + desolv Energy     =  -12.38 kcal/mol
DOCKED: USER        Electrostatic Energy            =   +0.00 kcal/mol
DOCKED: USER    (2) Final Total Internal Energy     =   -1.51 kcal/mol
DOCKED: USER    (3) Torsional Free Energy           =   +2.68 kcal/mol
DOCKED: USER    (4) Unbound System's Energy  [=(2)] =   -1.51 kcal/mol
DOCKED: USER    
DOCKED: USER    
DOCKED: USER    NEWDPF move ligand.dum.pdbqt
DOCKED: USER    NEWDPF about -0.029000 -0.207000 0.469000
DOCKED: USER    NEWDPF tran0 36.971353 11.251223 122.880334
DOCKED: USER    NEWDPF quaternion0 0.311460 -0.195217 0.065818 -0.927659
DOCKED: USER    NEWDPF axisangle0 0.834055 -0.522768 0.176253 -43.854494
DOCKED: USER    NEWDPF quat0 0.834055 -0.522768 0.176253 -43.854494
DOCKED: USER    NEWDPF dihe0 -13.55 -178.77 52.77 112.63 -174.13 -72.52 -160.26 -67.56 -149.37 
DOCKED: USER  keepresnum = 1 
DOCKED: USER  
DOCKED: REMARK  Name = 
DOCKED: REMARK  9 active torsions:
DOCKED: REMARK  status: ('A' for Active; 'I' for Inactive)
DOCKED: REMARK    1  A    between atoms: C_2  and  C_5
DOCKED: REMARK    2  A    between atoms: N_3  and  O_4
DOCKED: REMARK    3  A    between atoms: C_5  and  C_6
DOCKED: REMARK    4  A    between atoms: C_6  and  C_7
DOCKED: REMARK    5  A    between atoms: C_7  and  C_8
DOCKED: REMARK    6  A    between atoms: C_8  and  C_9
DOCKED: REMARK    7  A    between atoms: C_9  and  C_10
DOCKED: REMARK    8  A    between atoms: C_10  and  C_11
DOCKED: REMARK    9  A    between atoms: N_12  and  C_13
DOCKED: REMARK                            x       y       z     vdW  Elec       q    Type
DOCKED: REMARK                         _______ _______ _______ _____ _____    ______ ____
DOCKED: USER                              x       y       z     vdW  Elec       q    Type
DOCKED: USER                           _______ _______ _______ _____ _____    ______ ____
DOCKED: ROOT
DOCKED: ATOM      1  C   UNL     1      38.114  12.699 120.256 -0.41 -0.00    +0.000 C 
DOCKED: ENDROOT
DOCKED: BRANCH   1   2
DOCKED: ATOM      2  C   UNL     1      38.178  13.155 121.722 -0.34 -0.00    +0.000 C 
DOCKED: BRANCH   2   3
DOCKED: ATOM      3  C   UNL     1      36.795  13.080 122.383 -0.54 -0.00    +0.000 C 
DOCKED: BRANCH   3   4
DOCKED: ATOM      4  C   UNL     1      36.631  11.842 123.285 -0.69 -0.00    +0.000 C 
DOCKED: BRANCH   4   5
DOCKED: ATOM      5  C   UNL     1      35.703  10.758 122.713 -0.67 -0.00    +0.000 C 
DOCKED: BRANCH   5   7
DOCKED: ATOM      6  O   UNL     1      36.735   9.222 121.198 -2.64 -0.00    +0.000 OA
DOCKED: ATOM      7  C   UNL     1      36.443   9.490 122.395 -0.71 -0.00    +0.000 C 
DOCKED: ATOM      8  N   UNL     1      36.790   8.573 123.436 -0.64 -0.00    +0.000 N 
DOCKED: ATOM      9  H   UNL     1      36.555   8.783 124.369 -0.34 -0.00    +0.000 HD
DOCKED: BRANCH   8  10
DOCKED: ATOM     10  O   UNL     1      37.440   7.421 123.151 -1.99 -0.00    +0.000 OA
DOCKED: ATOM     11  H   UNL     1      37.407   7.260 122.195 -0.15 -0.00    +0.000 HD
DOCKED: ENDBRANCH   8  10
DOCKED: ENDBRANCH   5   7
DOCKED: ENDBRANCH   4   5
DOCKED: ENDBRANCH   3   4
DOCKED: ENDBRANCH   2   3
DOCKED: ENDBRANCH   1   2
DOCKED: BRANCH   1  12
DOCKED: ATOM     12  C   UNL     1      36.684  12.733 119.699 -0.31 -0.00    +0.000 C 
DOCKED: BRANCH  12  13
DOCKED: ATOM     13  C   UNL     1      36.661  13.216 118.279 -0.30 -0.00    +0.000 C 
DOCKED: ATOM     14  N   UNL     1      37.812  13.038 117.438 -0.40 -0.00    +0.000 N 
DOCKED: ATOM     15  O   UNL     1      35.626  13.786 117.836 -0.44 -0.00    +0.000 OA
DOCKED: ATOM     16  H   UNL     1      38.466  12.348 117.692 -0.13 -0.00    +0.000 HD
DOCKED: BRANCH  14  17
DOCKED: ATOM     17  C   UNL     1      38.070  13.806 116.250 -0.37 -0.00    +0.000 A 
DOCKED: ATOM     18  C   UNL     1      37.015  14.109 115.378 -0.30 -0.00    +0.000 A 
DOCKED: ATOM     19  C   UNL     1      37.258  14.826 114.205 -0.20 -0.00    +0.000 A 
DOCKED: ATOM     20  C   UNL     1      38.562  15.220 113.903 -0.19 -0.00    +0.000 A 
DOCKED: ATOM     21  N   UNL     1      39.581  14.898 114.742 -0.30 -0.00    +0.000 NA
DOCKED: ATOM     22  C   UNL     1      39.371  14.207 115.893 -0.33 -0.00    +0.000 A 
DOCKED: ATOM     23  CM  UNL     1      38.344  14.521 115.053 +0.00 -0.00    +0.000 AC
DOCKED: ENDBRANCH  14  17
DOCKED: ENDBRANCH  12  13
DOCKED: ENDBRANCH   1  12
DOCKED: TORSDOF 9DOCKED: TER
DOCKED: ENDMDL
________________________________________________________________________________


	BEGINNING GENETIC ALGORITHM DOCKING 34 of 100
Run: 34 Seed: 1859033031 1340551282 [ Run 34 of 100 GA/GALS ]
Beginning LAMARCKIAN GENETIC ALGORITHM (LGA), with a maximum of 2500000 energy evaluations.

Final-Value: -14.506


	FINAL GENETIC ALGORITHM DOCKED STATE
	_______________________________________________


Detailed state:  trans 36.248 12.722 121.816 quatxyzw -0.360197 -0.360918 0.830644 0.223668 center -0.029 -0.207 0.469 ntor 9 13.8523 -111.1836 153.7309 -173.4668 -179.7777 -20.6066 -163.9160 -63.8848 -50.8026
State:	 36.248  12.722 121.816  -0.370 -0.370  0.852 154.151     13.85 -111.18  153.73 -173.47 -179.78  -20.61 -163.92  -63.88  -50.80

DOCKED: MODEL       34
DOCKED: USER    Run = 34
DOCKED: USER    DPF = ligand_dock.biased.dpf
DOCKED: USER  
DOCKED: USER    Estimated Free Energy of Binding    =  -10.39 kcal/mol  [=(1)+(2)+(3)-(4)]
DOCKED: USER    Estimated Inhibition Constant, Ki   =   24.12 nM (nanomolar)  [Temperature = 298.15 K]
DOCKED: USER    
DOCKED: USER    (1) Final Intermolecular Energy     =  -13.08 kcal/mol
DOCKED: USER        vdW + Hbond + desolv Energy     =  -13.08 kcal/mol
DOCKED: USER        Electrostatic Energy            =   +0.00 kcal/mol
DOCKED: USER    (2) Final Total Internal Energy     =   -1.43 kcal/mol
DOCKED: USER    (3) Torsional Free Energy           =   +2.68 kcal/mol
DOCKED: USER    (4) Unbound System's Energy  [=(2)] =   -1.43 kcal/mol
DOCKED: USER    
DOCKED: USER    
DOCKED: USER    NEWDPF move ligand.dum.pdbqt
DOCKED: USER    NEWDPF about -0.029000 -0.207000 0.469000
DOCKED: USER    NEWDPF tran0 36.247963 12.721518 121.815917
DOCKED: USER    NEWDPF quaternion0 -0.360197 -0.360918 0.830644 0.223668
DOCKED: USER    NEWDPF axisangle0 -0.369559 -0.370300 0.852235 154.150924
DOCKED: USER    NEWDPF quat0 -0.369559 -0.370300 0.852235 154.150924
DOCKED: USER    NEWDPF dihe0 13.85 -111.18 153.73 -173.47 -179.78 -20.61 -163.92 -63.88 -50.80 
DOCKED: USER  keepresnum = 1 
DOCKED: USER  
DOCKED: REMARK  Name = 
DOCKED: REMARK  9 active torsions:
DOCKED: REMARK  status: ('A' for Active; 'I' for Inactive)
DOCKED: REMARK    1  A    between atoms: C_2  and  C_5
DOCKED: REMARK    2  A    between atoms: N_3  and  O_4
DOCKED: REMARK    3  A    between atoms: C_5  and  C_6
DOCKED: REMARK    4  A    between atoms: C_6  and  C_7
DOCKED: REMARK    5  A    between atoms: C_7  and  C_8
DOCKED: REMARK    6  A    between atoms: C_8  and  C_9
DOCKED: REMARK    7  A    between atoms: C_9  and  C_10
DOCKED: REMARK    8  A    between atoms: C_10  and  C_11
DOCKED: REMARK    9  A    between atoms: N_12  and  C_13
DOCKED: REMARK                            x       y       z     vdW  Elec       q    Type
DOCKED: REMARK                         _______ _______ _______ _____ _____    ______ ____
DOCKED: USER                              x       y       z     vdW  Elec       q    Type
DOCKED: USER                           _______ _______ _______ _____ _____    ______ ____
DOCKED: ROOT
DOCKED: ATOM      1  C   UNL     1      37.273  15.490 120.561 -0.23 -0.00    +0.000 C 
DOCKED: ENDROOT
DOCKED: BRANCH   1   2
DOCKED: ATOM      2  C   UNL     1      37.249  14.089 119.932 -0.35 -0.00    +0.000 C 
DOCKED: BRANCH   2   3
DOCKED: ATOM      3  C   UNL     1      37.951  13.066 120.836 -0.47 -0.00    +0.000 C 
DOCKED: BRANCH   3   4
DOCKED: ATOM      4  C   UNL     1      37.433  11.631 120.627 -0.48 -0.00    +0.000 C 
DOCKED: BRANCH   4   5
DOCKED: ATOM      5  C   UNL     1      36.685  11.043 121.835 -0.59 -0.00    +0.000 C 
DOCKED: BRANCH   5   7
DOCKED: ATOM      6  O   UNL     1      37.069   8.849 120.966 -2.71 -0.00    +0.000 OA
DOCKED: ATOM      7  C   UNL     1      36.933   9.570 121.991 -0.64 -0.00    +0.000 C 
DOCKED: ATOM      8  N   UNL     1      36.986   8.978 123.292 -0.63 -0.00    +0.000 N 
DOCKED: ATOM      9  H   UNL     1      36.873   9.543 124.090 -0.51 -0.00    +0.000 HD
DOCKED: BRANCH   8  10
DOCKED: ATOM     10  O   UNL     1      37.190   7.647 123.435 -2.22 -0.00    +0.000 OA
DOCKED: ATOM     11  H   UNL     1      37.495   7.275 122.593 -0.21 -0.00    +0.000 HD
DOCKED: ENDBRANCH   8  10
DOCKED: ENDBRANCH   5   7
DOCKED: ENDBRANCH   4   5
DOCKED: ENDBRANCH   3   4
DOCKED: ENDBRANCH   2   3
DOCKED: ENDBRANCH   1   2
DOCKED: BRANCH   1  12
DOCKED: ATOM     12  C   UNL     1      38.284  15.593 121.712 -0.28 -0.00    +0.000 C 
DOCKED: BRANCH  12  13
DOCKED: ATOM     13  C   UNL     1      37.612  15.970 122.999 -0.32 -0.00    +0.000 C 
DOCKED: ATOM     14  N   UNL     1      36.254  15.574 123.246 -0.38 -0.00    +0.000 N 
DOCKED: ATOM     15  O   UNL     1      38.248  16.644 123.854 -0.32 -0.00    +0.000 OA
DOCKED: ATOM     16  H   UNL     1      35.891  14.819 122.728 -0.02 -0.00    +0.000 HD
DOCKED: BRANCH  14  17
DOCKED: ATOM     17  C   UNL     1      35.388  16.210 124.203 -0.41 -0.00    +0.000 A 
DOCKED: ATOM     18  C   UNL     1      35.515  17.585 124.444 -0.29 -0.00    +0.000 A 
DOCKED: ATOM     19  C   UNL     1      34.704  18.209 125.393 -0.29 -0.00    +0.000 A 
DOCKED: ATOM     20  C   UNL     1      33.780  17.446 126.109 -0.35 -0.00    +0.000 A 
DOCKED: ATOM     21  N   UNL     1      33.684  16.109 125.887 -0.74 -0.00    +0.000 NA
DOCKED: ATOM     22  C   UNL     1      34.458  15.479 124.963 -0.42 -0.00    +0.000 A 
DOCKED: ATOM     23  CM  UNL     1      34.564  16.820 125.186 -0.24 -0.00    +0.000 AC
DOCKED: ENDBRANCH  14  17
DOCKED: ENDBRANCH  12  13
DOCKED: ENDBRANCH   1  12
DOCKED: TORSDOF 9DOCKED: TER
DOCKED: ENDMDL
________________________________________________________________________________


	BEGINNING GENETIC ALGORITHM DOCKING 35 of 100
Run: 35 Seed: 1722521283 1543228473 [ Run 35 of 100 GA/GALS ]
Beginning LAMARCKIAN GENETIC ALGORITHM (LGA), with a maximum of 2500000 energy evaluations.

Final-Value: -14.012


	FINAL GENETIC ALGORITHM DOCKED STATE
	_______________________________________________


Detailed state:  trans 36.398 15.146 121.455 quatxyzw 0.569111 -0.202007 -0.436223 0.667094 center -0.029 -0.207 0.469 ntor 9 -16.5808 -36.1161 160.9783 170.3332 87.8451 154.2549 -59.0780 101.4392 -180.0000
State:	 36.398  15.146 121.455   0.764 -0.271 -0.586 96.314    -16.58  -36.12  160.98  170.33   87.85  154.25  -59.08  101.44 -180.00

DOCKED: MODEL       35
DOCKED: USER    Run = 35
DOCKED: USER    DPF = ligand_dock.biased.dpf
DOCKED: USER  
DOCKED: USER    Estimated Free Energy of Binding    =  -10.11 kcal/mol  [=(1)+(2)+(3)-(4)]
DOCKED: USER    Estimated Inhibition Constant, Ki   =   38.63 nM (nanomolar)  [Temperature = 298.15 K]
DOCKED: USER    
DOCKED: USER    (1) Final Intermolecular Energy     =  -12.80 kcal/mol
DOCKED: USER        vdW + Hbond + desolv Energy     =  -12.80 kcal/mol
DOCKED: USER        Electrostatic Energy            =   +0.00 kcal/mol
DOCKED: USER    (2) Final Total Internal Energy     =   -1.21 kcal/mol
DOCKED: USER    (3) Torsional Free Energy           =   +2.68 kcal/mol
DOCKED: USER    (4) Unbound System's Energy  [=(2)] =   -1.21 kcal/mol
DOCKED: USER    
DOCKED: USER    
DOCKED: USER    NEWDPF move ligand.dum.pdbqt
DOCKED: USER    NEWDPF about -0.029000 -0.207000 0.469000
DOCKED: USER    NEWDPF tran0 36.397524 15.145635 121.455013
DOCKED: USER    NEWDPF quaternion0 0.569111 -0.202007 -0.436223 0.667094
DOCKED: USER    NEWDPF axisangle0 0.763935 -0.271160 -0.585556 96.313615
DOCKED: USER    NEWDPF quat0 0.763935 -0.271160 -0.585556 96.313615
DOCKED: USER    NEWDPF dihe0 -16.58 -36.12 160.98 170.33 87.85 154.25 -59.08 101.44 -180.00 
DOCKED: USER  keepresnum = 1 
DOCKED: USER  
DOCKED: REMARK  Name = 
DOCKED: REMARK  9 active torsions:
DOCKED: REMARK  status: ('A' for Active; 'I' for Inactive)
DOCKED: REMARK    1  A    between atoms: C_2  and  C_5
DOCKED: REMARK    2  A    between atoms: N_3  and  O_4
DOCKED: REMARK    3  A    between atoms: C_5  and  C_6
DOCKED: REMARK    4  A    between atoms: C_6  and  C_7
DOCKED: REMARK    5  A    between atoms: C_7  and  C_8
DOCKED: REMARK    6  A    between atoms: C_8  and  C_9
DOCKED: REMARK    7  A    between atoms: C_9  and  C_10
DOCKED: REMARK    8  A    between atoms: C_10  and  C_11
DOCKED: REMARK    9  A    between atoms: N_12  and  C_13
DOCKED: REMARK                            x       y       z     vdW  Elec       q    Type
DOCKED: REMARK                         _______ _______ _______ _____ _____    ______ ____
DOCKED: USER                              x       y       z     vdW  Elec       q    Type
DOCKED: USER                           _______ _______ _______ _____ _____    ______ ____
DOCKED: ROOT
DOCKED: ATOM      1  C   UNL     1      37.573  12.205 120.944 -0.49 -0.00    +0.000 C 
DOCKED: ENDROOT
DOCKED: BRANCH   1   2
DOCKED: ATOM      2  C   UNL     1      36.807  13.125 119.981 -0.37 -0.00    +0.000 C 
DOCKED: BRANCH   2   3
DOCKED: ATOM      3  C   UNL     1      37.443  14.521 119.930 -0.31 -0.00    +0.000 C 
DOCKED: BRANCH   3   4
DOCKED: ATOM      4  C   UNL     1      38.095  14.929 121.265 -0.32 -0.00    +0.000 C 
DOCKED: BRANCH   4   5
DOCKED: ATOM      5  C   UNL     1      39.235  15.951 121.128 -0.22 -0.00    +0.000 C 
DOCKED: BRANCH   5   7
DOCKED: ATOM      6  O   UNL     1      40.764  14.412 122.132 -1.09 -0.00    +0.000 OA
DOCKED: ATOM      7  C   UNL     1      40.405  15.614 122.008 -0.36 -0.00    +0.000 C 
DOCKED: ATOM      8  N   UNL     1      41.093  16.642 122.725 -0.29 -0.00    +0.000 N 
DOCKED: ATOM      9  H   UNL     1      40.806  17.579 122.630 +0.00 -0.00    +0.000 HD
DOCKED: BRANCH   8  10
DOCKED: ATOM     10  O   UNL     1      42.136  16.338 123.533 -1.09 +0.00    +0.000 OA
DOCKED: ATOM     11  H   UNL     1      42.129  15.388 123.726 -0.05 +0.00    +0.000 HD
DOCKED: ENDBRANCH   8  10
DOCKED: ENDBRANCH   5   7
DOCKED: ENDBRANCH   4   5
DOCKED: ENDBRANCH   3   4
DOCKED: ENDBRANCH   2   3
DOCKED: ENDBRANCH   1   2
DOCKED: BRANCH   1  12
DOCKED: ATOM     12  C   UNL     1      36.686  11.693 122.088 -0.62 -0.00    +0.000 C 
DOCKED: BRANCH  12  13
DOCKED: ATOM     13  C   UNL     1      36.412  10.225 121.953 -0.59 -0.00    +0.000 C 
DOCKED: ATOM     14  N   UNL     1      35.351   9.618 122.708 -0.60 -0.00    +0.000 N 
DOCKED: ATOM     15  O   UNL     1      37.127   9.530 121.181 -2.42 -0.00    +0.000 OA
DOCKED: ATOM     16  H   UNL     1      34.637  10.201 123.053 -0.32 -0.00    +0.000 HD
DOCKED: BRANCH  14  17
DOCKED: ATOM     17  C   UNL     1      35.266   8.210 122.992 -0.61 -0.00    +0.000 A 
DOCKED: ATOM     18  C   UNL     1      36.401   7.403 122.840 -0.70 -0.00    +0.000 A 
DOCKED: ATOM     19  C   UNL     1      36.324   6.030 123.081 -0.52 -0.00    +0.000 A 
DOCKED: ATOM     20  C   UNL     1      35.102   5.471 123.457 -0.46 -0.00    +0.000 A 
DOCKED: ATOM     21  N   UNL     1      34.001   6.258 123.575 -0.75 -0.00    +0.000 NA
DOCKED: ATOM     22  C   UNL     1      34.051   7.598 123.352 -0.61 -0.00    +0.000 A 
DOCKED: ATOM     23  CM  UNL     1      35.159   6.813 123.226 +0.00 -0.00    +0.000 AC
DOCKED: ENDBRANCH  14  17
DOCKED: ENDBRANCH  12  13
DOCKED: ENDBRANCH   1  12
DOCKED: TORSDOF 9DOCKED: TER
DOCKED: ENDMDL
________________________________________________________________________________


	BEGINNING GENETIC ALGORITHM DOCKING 36 of 100
Run: 36 Seed: 839082562 79067835 [ Run 36 of 100 GA/GALS ]
Beginning LAMARCKIAN GENETIC ALGORITHM (LGA), with a maximum of 2500000 energy evaluations.

Final-Value: -14.290


	FINAL GENETIC ALGORITHM DOCKED STATE
	_______________________________________________


Detailed state:  trans 38.569 14.297 122.087 quatxyzw 0.422482 0.726770 0.510219 -0.181636 center -0.029 -0.207 0.469 ntor 9 7.2349 -133.2005 -143.8163 -107.1851 -50.6006 77.5009 2.5406 -134.9110 -122.0071
State:	 38.569  14.297 122.087   0.430  0.739  0.519 -159.070      7.23 -133.20 -143.82 -107.19  -50.60   77.50    2.54 -134.91 -122.01

DOCKED: MODEL       36
DOCKED: USER    Run = 36
DOCKED: USER    DPF = ligand_dock.biased.dpf
DOCKED: USER  
DOCKED: USER    Estimated Free Energy of Binding    =  -10.14 kcal/mol  [=(1)+(2)+(3)-(4)]
DOCKED: USER    Estimated Inhibition Constant, Ki   =   36.65 nM (nanomolar)  [Temperature = 298.15 K]
DOCKED: USER    
DOCKED: USER    (1) Final Intermolecular Energy     =  -12.83 kcal/mol
DOCKED: USER        vdW + Hbond + desolv Energy     =  -12.83 kcal/mol
DOCKED: USER        Electrostatic Energy            =   +0.00 kcal/mol
DOCKED: USER    (2) Final Total Internal Energy     =   -1.46 kcal/mol
DOCKED: USER    (3) Torsional Free Energy           =   +2.68 kcal/mol
DOCKED: USER    (4) Unbound System's Energy  [=(2)] =   -1.46 kcal/mol
DOCKED: USER    
DOCKED: USER    
DOCKED: USER    NEWDPF move ligand.dum.pdbqt
DOCKED: USER    NEWDPF about -0.029000 -0.207000 0.469000
DOCKED: USER    NEWDPF tran0 38.569135 14.297285 122.086701
DOCKED: USER    NEWDPF quaternion0 0.422482 0.726770 0.510219 -0.181636
DOCKED: USER    NEWDPF axisangle0 0.429628 0.739064 0.518849 -159.069829
DOCKED: USER    NEWDPF quat0 0.429628 0.739064 0.518849 -159.069829
DOCKED: USER    NEWDPF dihe0 7.23 -133.20 -143.82 -107.19 -50.60 77.50 2.54 -134.91 -122.01 
DOCKED: USER  keepresnum = 1 
DOCKED: USER  
DOCKED: REMARK  Name = 
DOCKED: REMARK  9 active torsions:
DOCKED: REMARK  status: ('A' for Active; 'I' for Inactive)
DOCKED: REMARK    1  A    between atoms: C_2  and  C_5
DOCKED: REMARK    2  A    between atoms: N_3  and  O_4
DOCKED: REMARK    3  A    between atoms: C_5  and  C_6
DOCKED: REMARK    4  A    between atoms: C_6  and  C_7
DOCKED: REMARK    5  A    between atoms: C_7  and  C_8
DOCKED: REMARK    6  A    between atoms: C_8  and  C_9
DOCKED: REMARK    7  A    between atoms: C_9  and  C_10
DOCKED: REMARK    8  A    between atoms: C_10  and  C_11
DOCKED: REMARK    9  A    between atoms: N_12  and  C_13
DOCKED: REMARK                            x       y       z     vdW  Elec       q    Type
DOCKED: REMARK                         _______ _______ _______ _____ _____    ______ ____
DOCKED: USER                              x       y       z     vdW  Elec       q    Type
DOCKED: USER                           _______ _______ _______ _____ _____    ______ ____
DOCKED: ROOT
DOCKED: ATOM      1  C   UNL     1      36.137  12.361 122.876 -0.59 -0.00    +0.000 C 
DOCKED: ENDROOT
DOCKED: BRANCH   1   2
DOCKED: ATOM      2  C   UNL     1      36.796  13.478 123.701 -0.50 -0.00    +0.000 C 
DOCKED: BRANCH   2   3
DOCKED: ATOM      3  C   UNL     1      35.823  14.644 123.926 -0.53 -0.00    +0.000 C 
DOCKED: BRANCH   3   4
DOCKED: ATOM      4  C   UNL     1      36.192  15.895 123.106 -0.39 -0.00    +0.000 C 
DOCKED: BRANCH   4   5
DOCKED: ATOM      5  C   UNL     1      37.192  15.635 121.967 -0.29 -0.00    +0.000 C 
DOCKED: BRANCH   5   7
DOCKED: ATOM      6  O   UNL     1      39.077  16.617 123.061 -0.28 -0.00    +0.000 OA
DOCKED: ATOM      7  C   UNL     1      38.612  15.614 122.455 -0.33 -0.00    +0.000 C 
DOCKED: ATOM      8  N   UNL     1      39.446  14.479 122.210 -0.41 -0.00    +0.000 N 
DOCKED: ATOM      9  H   UNL     1      39.082  13.700 121.731 -0.03 -0.00    +0.000 HD
DOCKED: BRANCH   8  10
DOCKED: ATOM     10  O   UNL     1      40.732  14.465 122.632 -1.08 -0.00    +0.000 OA
DOCKED: ATOM     11  H   UNL     1      40.901  15.247 123.179 -0.03 -0.00    +0.000 HD
DOCKED: ENDBRANCH   8  10
DOCKED: ENDBRANCH   5   7
DOCKED: ENDBRANCH   4   5
DOCKED: ENDBRANCH   3   4
DOCKED: ENDBRANCH   2   3
DOCKED: ENDBRANCH   1   2
DOCKED: BRANCH   1  12
DOCKED: ATOM     12  C   UNL     1      37.073  11.163 122.668 -0.60 -0.00    +0.000 C 
DOCKED: BRANCH  12  13
DOCKED: ATOM     13  C   UNL     1      36.334   9.981 122.112 -0.63 -0.00    +0.000 C 
DOCKED: ATOM     14  N   UNL     1      35.023   9.657 122.599 -0.59 -0.00    +0.000 N 
DOCKED: ATOM     15  O   UNL     1      36.881   9.274 121.222 -2.62 -0.00    +0.000 OA
DOCKED: ATOM     16  H   UNL     1      34.509  10.366 123.048 -0.33 -0.00    +0.000 HD
DOCKED: BRANCH  14  17
DOCKED: ATOM     17  C   UNL     1      34.413   8.360 122.473 -0.61 -0.00    +0.000 A 
DOCKED: ATOM     18  C   UNL     1      34.433   7.477 123.561 -0.64 -0.00    +0.000 A 
DOCKED: ATOM     19  C   UNL     1      33.873   6.204 123.442 -0.62 -0.00    +0.000 A 
DOCKED: ATOM     20  C   UNL     1      33.312   5.816 122.225 -0.59 -0.00    +0.000 A 
DOCKED: ATOM     21  N   UNL     1      33.321   6.670 121.168 -0.57 -0.00    +0.000 NA
DOCKED: ATOM     22  C   UNL     1      33.854   7.917 121.260 -0.57 -0.00    +0.000 A 
DOCKED: ATOM     23  CM  UNL     1      33.853   7.063 122.323 +0.00 -0.00    +0.000 AC
DOCKED: ENDBRANCH  14  17
DOCKED: ENDBRANCH  12  13
DOCKED: ENDBRANCH   1  12
DOCKED: TORSDOF 9DOCKED: TER
DOCKED: ENDMDL
________________________________________________________________________________


	BEGINNING GENETIC ALGORITHM DOCKING 37 of 100
Run: 37 Seed: 973759446 1273461185 [ Run 37 of 100 GA/GALS ]
Beginning LAMARCKIAN GENETIC ALGORITHM (LGA), with a maximum of 2500000 energy evaluations.

Final-Value: -13.249


	FINAL GENETIC ALGORITHM DOCKED STATE
	_______________________________________________


Detailed state:  trans 36.629 11.834 123.801 quatxyzw 0.518878 0.394331 -0.347050 -0.674407 center -0.029 -0.207 0.469 ntor 9 18.4027 -138.3480 -171.0360 90.0888 157.6312 -92.8482 -105.3108 -129.7561 179.6205
State:	 36.629  11.834 123.801   0.703  0.534 -0.470 -95.184     18.40 -138.35 -171.04   90.09  157.63  -92.85 -105.31 -129.76  179.62

DOCKED: MODEL       37
DOCKED: USER    Run = 37
DOCKED: USER    DPF = ligand_dock.biased.dpf
DOCKED: USER  
DOCKED: USER    Estimated Free Energy of Binding    =   -9.28 kcal/mol  [=(1)+(2)+(3)-(4)]
DOCKED: USER    Estimated Inhibition Constant, Ki   =  158.70 nM (nanomolar)  [Temperature = 298.15 K]
DOCKED: USER    
DOCKED: USER    (1) Final Intermolecular Energy     =  -11.96 kcal/mol
DOCKED: USER        vdW + Hbond + desolv Energy     =  -11.96 kcal/mol
DOCKED: USER        Electrostatic Energy            =   +0.00 kcal/mol
DOCKED: USER    (2) Final Total Internal Energy     =   -1.29 kcal/mol
DOCKED: USER    (3) Torsional Free Energy           =   +2.68 kcal/mol
DOCKED: USER    (4) Unbound System's Energy  [=(2)] =   -1.29 kcal/mol
DOCKED: USER    
DOCKED: USER    
DOCKED: USER    NEWDPF move ligand.dum.pdbqt
DOCKED: USER    NEWDPF about -0.029000 -0.207000 0.469000
DOCKED: USER    NEWDPF tran0 36.629151 11.834473 123.800703
DOCKED: USER    NEWDPF quaternion0 0.518878 0.394331 -0.347050 -0.674407
DOCKED: USER    NEWDPF axisangle0 0.702744 0.534064 -0.470029 -95.183741
DOCKED: USER    NEWDPF quat0 0.702744 0.534064 -0.470029 -95.183741
DOCKED: USER    NEWDPF dihe0 18.40 -138.35 -171.04 90.09 157.63 -92.85 -105.31 -129.76 179.62 
DOCKED: USER  keepresnum = 1 
DOCKED: USER  
DOCKED: REMARK  Name = 
DOCKED: REMARK  9 active torsions:
DOCKED: REMARK  status: ('A' for Active; 'I' for Inactive)
DOCKED: REMARK    1  A    between atoms: C_2  and  C_5
DOCKED: REMARK    2  A    between atoms: N_3  and  O_4
DOCKED: REMARK    3  A    between atoms: C_5  and  C_6
DOCKED: REMARK    4  A    between atoms: C_6  and  C_7
DOCKED: REMARK    5  A    between atoms: C_7  and  C_8
DOCKED: REMARK    6  A    between atoms: C_8  and  C_9
DOCKED: REMARK    7  A    between atoms: C_9  and  C_10
DOCKED: REMARK    8  A    between atoms: C_10  and  C_11
DOCKED: REMARK    9  A    between atoms: N_12  and  C_13
DOCKED: REMARK                            x       y       z     vdW  Elec       q    Type
DOCKED: REMARK                         _______ _______ _______ _____ _____    ______ ____
DOCKED: USER                              x       y       z     vdW  Elec       q    Type
DOCKED: USER                           _______ _______ _______ _____ _____    ______ ____
DOCKED: ROOT
DOCKED: ATOM      1  C   UNL     1      35.579  14.781 123.092 -0.31 -0.00    +0.000 C 
DOCKED: ENDROOT
DOCKED: BRANCH   1   2
DOCKED: ATOM      2  C   UNL     1      37.018  14.245 123.122 -0.50 -0.00    +0.000 C 
DOCKED: BRANCH   2   3
DOCKED: ATOM      3  C   UNL     1      37.038  12.733 123.389 -0.63 -0.00    +0.000 C 
DOCKED: BRANCH   3   4
DOCKED: ATOM      4  C   UNL     1      36.773  11.901 122.120 -0.60 -0.00    +0.000 C 
DOCKED: BRANCH   4   5
DOCKED: ATOM      5  C   UNL     1      35.799  10.729 122.322 -0.65 -0.00    +0.000 C 
DOCKED: BRANCH   5   7
DOCKED: ATOM      6  O   UNL     1      37.066   9.050 121.186 -2.72 -0.00    +0.000 OA
DOCKED: ATOM      7  C   UNL     1      36.492   9.398 122.253 -0.71 -0.00    +0.000 C 
DOCKED: ATOM      8  N   UNL     1      36.480   8.515 123.378 -0.64 -0.00    +0.000 N 
DOCKED: ATOM      9  H   UNL     1      36.025   8.788 124.207 -0.23 -0.00    +0.000 HD
DOCKED: BRANCH   8  10
DOCKED: ATOM     10  O   UNL     1      37.088   7.308 123.312 -2.08 -0.00    +0.000 OA
DOCKED: ATOM     11  H   UNL     1      37.717   7.302 122.574 -0.27 -0.00    +0.000 HD
DOCKED: ENDBRANCH   8  10
DOCKED: ENDBRANCH   5   7
DOCKED: ENDBRANCH   4   5
DOCKED: ENDBRANCH   3   4
DOCKED: ENDBRANCH   2   3
DOCKED: ENDBRANCH   1   2
DOCKED: BRANCH   1  12
DOCKED: ATOM     12  C   UNL     1      34.957  14.855 124.493 -0.44 -0.00    +0.000 C 
DOCKED: BRANCH  12  13
DOCKED: ATOM     13  C   UNL     1      34.783  16.277 124.941 -0.47 -0.00    +0.000 C 
DOCKED: ATOM     14  N   UNL     1      35.754  17.270 124.578 -0.30 -0.00    +0.000 N 
DOCKED: ATOM     15  O   UNL     1      33.783  16.585 125.645 -0.59 -0.00    +0.000 OA
DOCKED: ATOM     16  H   UNL     1      36.336  17.087 123.806 -0.01 -0.00    +0.000 HD
DOCKED: BRANCH  14  17
DOCKED: ATOM     17  C   UNL     1      35.931  18.518 125.273 -0.20 -0.00    +0.000 A 
DOCKED: ATOM     18  C   UNL     1      34.889  19.454 125.291 -0.20 -0.00    +0.000 A 
DOCKED: ATOM     19  C   UNL     1      35.059  20.682 125.933 -0.14 -0.00    +0.000 A 
DOCKED: ATOM     20  C   UNL     1      36.282  20.971 126.540 -0.07 -0.00    +0.000 A 
DOCKED: ATOM     21  N   UNL     1      37.295  20.067 126.493 -0.09 -0.00    +0.000 NA
DOCKED: ATOM     22  C   UNL     1      37.153  18.862 125.880 -0.14 -0.00    +0.000 A 
DOCKED: ATOM     23  CM  UNL     1      36.134  19.767 125.918 -0.00 -0.00    +0.000 AC
DOCKED: ENDBRANCH  14  17
DOCKED: ENDBRANCH  12  13
DOCKED: ENDBRANCH   1  12
DOCKED: TORSDOF 9DOCKED: TER
DOCKED: ENDMDL
________________________________________________________________________________


	BEGINNING GENETIC ALGORITHM DOCKING 38 of 100
Run: 38 Seed: 2110565663 1888773531 [ Run 38 of 100 GA/GALS ]
Beginning LAMARCKIAN GENETIC ALGORITHM (LGA), with a maximum of 2500000 energy evaluations.

Final-Value: -14.337


	FINAL GENETIC ALGORITHM DOCKED STATE
	_______________________________________________


Detailed state:  trans 35.033 15.685 120.585 quatxyzw 0.606157 -0.352398 -0.692999 -0.167751 center -0.029 -0.207 0.469 ntor 9 18.3400 -67.7847 177.5791 -117.8311 140.9493 4.8155 92.9773 -174.2115 70.1853
State:	 35.033  15.685 120.585   0.615 -0.357 -0.703 -160.686     18.34  -67.78  177.58 -117.83  140.95    4.82   92.98 -174.21   70.19

DOCKED: MODEL       38
DOCKED: USER    Run = 38
DOCKED: USER    DPF = ligand_dock.biased.dpf
DOCKED: USER  
DOCKED: USER    Estimated Free Energy of Binding    =  -10.12 kcal/mol  [=(1)+(2)+(3)-(4)]
DOCKED: USER    Estimated Inhibition Constant, Ki   =   38.08 nM (nanomolar)  [Temperature = 298.15 K]
DOCKED: USER    
DOCKED: USER    (1) Final Intermolecular Energy     =  -12.81 kcal/mol
DOCKED: USER        vdW + Hbond + desolv Energy     =  -12.81 kcal/mol
DOCKED: USER        Electrostatic Energy            =   +0.00 kcal/mol
DOCKED: USER    (2) Final Total Internal Energy     =   -1.53 kcal/mol
DOCKED: USER    (3) Torsional Free Energy           =   +2.68 kcal/mol
DOCKED: USER    (4) Unbound System's Energy  [=(2)] =   -1.53 kcal/mol
DOCKED: USER    
DOCKED: USER    
DOCKED: USER    NEWDPF move ligand.dum.pdbqt
DOCKED: USER    NEWDPF about -0.029000 -0.207000 0.469000
DOCKED: USER    NEWDPF tran0 35.033273 15.684768 120.584616
DOCKED: USER    NEWDPF quaternion0 0.606157 -0.352398 -0.692999 -0.167751
DOCKED: USER    NEWDPF axisangle0 0.614871 -0.357464 -0.702961 -160.685780
DOCKED: USER    NEWDPF quat0 0.614871 -0.357464 -0.702961 -160.685780
DOCKED: USER    NEWDPF dihe0 18.34 -67.78 177.58 -117.83 140.95 4.82 92.98 -174.21 70.19 
DOCKED: USER  keepresnum = 1 
DOCKED: USER  
DOCKED: REMARK  Name = 
DOCKED: REMARK  9 active torsions:
DOCKED: REMARK  status: ('A' for Active; 'I' for Inactive)
DOCKED: REMARK    1  A    between atoms: C_2  and  C_5
DOCKED: REMARK    2  A    between atoms: N_3  and  O_4
DOCKED: REMARK    3  A    between atoms: C_5  and  C_6
DOCKED: REMARK    4  A    between atoms: C_6  and  C_7
DOCKED: REMARK    5  A    between atoms: C_7  and  C_8
DOCKED: REMARK    6  A    between atoms: C_8  and  C_9
DOCKED: REMARK    7  A    between atoms: C_9  and  C_10
DOCKED: REMARK    8  A    between atoms: C_10  and  C_11
DOCKED: REMARK    9  A    between atoms: N_12  and  C_13
DOCKED: REMARK                            x       y       z     vdW  Elec       q    Type
DOCKED: REMARK                         _______ _______ _______ _____ _____    ______ ____
DOCKED: USER                              x       y       z     vdW  Elec       q    Type
DOCKED: USER                           _______ _______ _______ _____ _____    ______ ____
DOCKED: ROOT
DOCKED: ATOM      1  C   UNL     1      38.172  15.191 120.144 -0.25 -0.00    +0.000 C 
DOCKED: ENDROOT
DOCKED: BRANCH   1   2
DOCKED: ATOM      2  C   UNL     1      37.069  14.179 120.488 -0.30 -0.00    +0.000 C 
DOCKED: BRANCH   2   3
DOCKED: ATOM      3  C   UNL     1      37.655  12.939 121.178 -0.49 -0.00    +0.000 C 
DOCKED: BRANCH   3   4
DOCKED: ATOM      4  C   UNL     1      36.579  11.905 121.559 -0.54 -0.00    +0.000 C 
DOCKED: BRANCH   4   5
DOCKED: ATOM      5  C   UNL     1      36.946  11.022 122.763 -0.63 -0.00    +0.000 C 
DOCKED: BRANCH   5   7
DOCKED: ATOM      6  O   UNL     1      36.841   9.211 121.205 -2.68 -0.00    +0.000 OA
DOCKED: ATOM      7  C   UNL     1      36.959   9.562 122.411 -0.64 -0.00    +0.000 C 
DOCKED: ATOM      8  N   UNL     1      37.074   8.570 123.434 -0.66 -0.00    +0.000 N 
DOCKED: ATOM      9  H   UNL     1      37.159   8.847 124.375 -0.54 -0.00    +0.000 HD
DOCKED: BRANCH   8  10
DOCKED: ATOM     10  O   UNL     1      37.066   7.253 123.121 -2.07 -0.00    +0.000 OA
DOCKED: ATOM     11  H   UNL     1      37.266   7.144 122.178 -0.15 -0.00    +0.000 HD
DOCKED: ENDBRANCH   8  10
DOCKED: ENDBRANCH   5   7
DOCKED: ENDBRANCH   4   5
DOCKED: ENDBRANCH   3   4
DOCKED: ENDBRANCH   2   3
DOCKED: ENDBRANCH   1   2
DOCKED: BRANCH   1  12
DOCKED: ATOM     12  C   UNL     1      38.448  16.165 121.298 -0.20 -0.00    +0.000 C 
DOCKED: BRANCH  12  13
DOCKED: ATOM     13  C   UNL     1      37.577  15.870 122.483 -0.30 -0.00    +0.000 C 
DOCKED: ATOM     14  N   UNL     1      36.216  16.328 122.509 -0.27 -0.00    +0.000 N 
DOCKED: ATOM     15  O   UNL     1      38.055  15.228 123.458 -0.41 -0.00    +0.000 OA
DOCKED: ATOM     16  H   UNL     1      35.787  16.548 121.650 -0.01 -0.00    +0.000 HD
DOCKED: BRANCH  14  17
DOCKED: ATOM     17  C   UNL     1      35.440  16.487 123.709 -0.37 -0.00    +0.000 A 
DOCKED: ATOM     18  C   UNL     1      35.478  17.704 124.402 -0.28 -0.00    +0.000 A 
DOCKED: ATOM     19  C   UNL     1      34.755  17.861 125.586 -0.30 -0.00    +0.000 A 
DOCKED: ATOM     20  C   UNL     1      34.011  16.788 126.079 -0.36 -0.00    +0.000 A 
DOCKED: ATOM     21  N   UNL     1      34.002  15.604 125.413 -0.64 -0.00    +0.000 NA
DOCKED: ATOM     22  C   UNL     1      34.692  15.428 124.255 -0.52 -0.00    +0.000 A 
DOCKED: ATOM     23  CM  UNL     1      34.710  16.617 124.921 -0.19 -0.00    +0.000 AC
DOCKED: ENDBRANCH  14  17
DOCKED: ENDBRANCH  12  13
DOCKED: ENDBRANCH   1  12
DOCKED: TORSDOF 9DOCKED: TER
DOCKED: ENDMDL
________________________________________________________________________________


	BEGINNING GENETIC ALGORITHM DOCKING 39 of 100
Run: 39 Seed: 522911841 238288142 [ Run 39 of 100 GA/GALS ]
Beginning LAMARCKIAN GENETIC ALGORITHM (LGA), with a maximum of 2500000 energy evaluations.

Final-Value: -13.674


	FINAL GENETIC ALGORITHM DOCKED STATE
	_______________________________________________


Detailed state:  trans 38.287 15.647 118.884 quatxyzw 0.592016 -0.783505 -0.151316 0.112870 center -0.029 -0.207 0.469 ntor 9 6.5991 -130.2032 55.9793 -90.7521 75.2498 -152.1272 19.5643 -0.7329 -79.1939
State:	 38.287  15.647 118.884   0.596 -0.789 -0.152 167.038      6.60 -130.20   55.98  -90.75   75.25 -152.13   19.56   -0.73  -79.19

DOCKED: MODEL       39
DOCKED: USER    Run = 39
DOCKED: USER    DPF = ligand_dock.biased.dpf
DOCKED: USER  
DOCKED: USER    Estimated Free Energy of Binding    =   -9.72 kcal/mol  [=(1)+(2)+(3)-(4)]
DOCKED: USER    Estimated Inhibition Constant, Ki   =   75.34 nM (nanomolar)  [Temperature = 298.15 K]
DOCKED: USER    
DOCKED: USER    (1) Final Intermolecular Energy     =  -12.40 kcal/mol
DOCKED: USER        vdW + Hbond + desolv Energy     =  -12.40 kcal/mol
DOCKED: USER        Electrostatic Energy            =   +0.00 kcal/mol
DOCKED: USER    (2) Final Total Internal Energy     =   -1.27 kcal/mol
DOCKED: USER    (3) Torsional Free Energy           =   +2.68 kcal/mol
DOCKED: USER    (4) Unbound System's Energy  [=(2)] =   -1.27 kcal/mol
DOCKED: USER    
DOCKED: USER    
DOCKED: USER    NEWDPF move ligand.dum.pdbqt
DOCKED: USER    NEWDPF about -0.029000 -0.207000 0.469000
DOCKED: USER    NEWDPF tran0 38.286920 15.646671 118.884224
DOCKED: USER    NEWDPF quaternion0 0.592016 -0.783505 -0.151316 0.112870
DOCKED: USER    NEWDPF axisangle0 0.595824 -0.788544 -0.152289 167.038462
DOCKED: USER    NEWDPF quat0 0.595824 -0.788544 -0.152289 167.038462
DOCKED: USER    NEWDPF dihe0 6.60 -130.20 55.98 -90.75 75.25 -152.13 19.56 -0.73 -79.19 
DOCKED: USER  keepresnum = 1 
DOCKED: USER  
DOCKED: REMARK  Name = 
DOCKED: REMARK  9 active torsions:
DOCKED: REMARK  status: ('A' for Active; 'I' for Inactive)
DOCKED: REMARK    1  A    between atoms: C_2  and  C_5
DOCKED: REMARK    2  A    between atoms: N_3  and  O_4
DOCKED: REMARK    3  A    between atoms: C_5  and  C_6
DOCKED: REMARK    4  A    between atoms: C_6  and  C_7
DOCKED: REMARK    5  A    between atoms: C_7  and  C_8
DOCKED: REMARK    6  A    between atoms: C_8  and  C_9
DOCKED: REMARK    7  A    between atoms: C_9  and  C_10
DOCKED: REMARK    8  A    between atoms: C_10  and  C_11
DOCKED: REMARK    9  A    between atoms: N_12  and  C_13
DOCKED: REMARK                            x       y       z     vdW  Elec       q    Type
DOCKED: REMARK                         _______ _______ _______ _____ _____    ______ ____
DOCKED: USER                              x       y       z     vdW  Elec       q    Type
DOCKED: USER                           _______ _______ _______ _____ _____    ______ ____
DOCKED: ROOT
DOCKED: ATOM      1  C   UNL     1      38.849  14.342 121.760 -0.40 -0.00    +0.000 C 
DOCKED: ENDROOT
DOCKED: BRANCH   1   2
DOCKED: ATOM      2  C   UNL     1      37.556  14.341 120.930 -0.36 -0.00    +0.000 C 
DOCKED: BRANCH   2   3
DOCKED: ATOM      3  C   UNL     1      36.978  12.924 120.811 -0.45 -0.00    +0.000 C 
DOCKED: BRANCH   3   4
DOCKED: ATOM      4  C   UNL     1      37.461  11.987 121.934 -0.41 -0.00    +0.000 C 
DOCKED: BRANCH   4   5
DOCKED: ATOM      5  C   UNL     1      36.387  11.021 122.460 -0.67 -0.00    +0.000 C 
DOCKED: BRANCH   5   7
DOCKED: ATOM      6  O   UNL     1      37.050   9.198 121.061 -2.73 -0.00    +0.000 OA
DOCKED: ATOM      7  C   UNL     1      36.756   9.584 122.225 -0.69 -0.00    +0.000 C 
DOCKED: ATOM      8  N   UNL     1      36.748   8.647 123.306 -0.66 -0.00    +0.000 N 
DOCKED: ATOM      9  H   UNL     1      36.512   8.951 124.213 -0.39 -0.00    +0.000 HD
DOCKED: BRANCH   8  10
DOCKED: ATOM     10  O   UNL     1      37.061   7.348 123.094 -2.16 -0.00    +0.000 OA
DOCKED: ATOM     11  H   UNL     1      37.367   7.234 122.181 -0.15 -0.00    +0.000 HD
DOCKED: ENDBRANCH   8  10
DOCKED: ENDBRANCH   5   7
DOCKED: ENDBRANCH   4   5
DOCKED: ENDBRANCH   3   4
DOCKED: ENDBRANCH   2   3
DOCKED: ENDBRANCH   1   2
DOCKED: BRANCH   1  12
DOCKED: ATOM     12  C   UNL     1      39.202  15.741 122.283 -0.32 -0.00    +0.000 C 
DOCKED: BRANCH  12  13
DOCKED: ATOM     13  C   UNL     1      40.687  15.923 122.401 -0.38 -0.00    +0.000 C 
DOCKED: ATOM     14  N   UNL     1      41.430  16.504 121.318 -0.20 -0.00    +0.000 N 
DOCKED: ATOM     15  O   UNL     1      41.274  15.552 123.454 -0.91 +0.00    +0.000 OA
DOCKED: ATOM     16  H   UNL     1      40.938  17.047 120.660 +0.00 -0.00    +0.000 HD
DOCKED: BRANCH  14  17
DOCKED: ATOM     17  C   UNL     1      42.847  16.341 121.132 -0.24 -0.00    +0.000 A 
DOCKED: ATOM     18  C   UNL     1      43.324  15.664 120.002 -0.17 -0.00    +0.000 A 
DOCKED: ATOM     19  C   UNL     1      44.696  15.471 119.826 -0.29 +0.00    +0.000 A 
DOCKED: ATOM     20  C   UNL     1      45.581  15.944 120.795 -0.25 +0.00    +0.000 A 
DOCKED: ATOM     21  N   UNL     1      45.107  16.576 121.901 -0.27 +0.00    +0.000 NA
DOCKED: ATOM     22  C   UNL     1      43.776  16.782 122.092 -0.30 -0.00    +0.000 A 
DOCKED: ATOM     23  CM  UNL     1      44.246  16.142 120.984 +0.00 -0.00    +0.000 AC
DOCKED: ENDBRANCH  14  17
DOCKED: ENDBRANCH  12  13
DOCKED: ENDBRANCH   1  12
DOCKED: TORSDOF 9DOCKED: TER
DOCKED: ENDMDL
________________________________________________________________________________


	BEGINNING GENETIC ALGORITHM DOCKING 40 of 100
Run: 40 Seed: 601761152 1149898427 [ Run 40 of 100 GA/GALS ]
Beginning LAMARCKIAN GENETIC ALGORITHM (LGA), with a maximum of 2500000 energy evaluations.

Final-Value: -14.211


	FINAL GENETIC ALGORITHM DOCKED STATE
	_______________________________________________


Detailed state:  trans 38.221 13.614 122.089 quatxyzw -0.612699 0.597960 -0.506881 -0.100581 center -0.029 -0.207 0.469 ntor 9 19.3577 57.5226 71.0039 52.7344 17.1025 -0.7350 -24.3064 2.5797 -38.7273
State:	 38.221  13.614 122.089  -0.616  0.601 -0.509 -168.455     19.36   57.52   71.00   52.73   17.10   -0.73  -24.31    2.58  -38.73

DOCKED: MODEL       40
DOCKED: USER    Run = 40
DOCKED: USER    DPF = ligand_dock.biased.dpf
DOCKED: USER  
DOCKED: USER    Estimated Free Energy of Binding    =  -10.20 kcal/mol  [=(1)+(2)+(3)-(4)]
DOCKED: USER    Estimated Inhibition Constant, Ki   =   33.15 nM (nanomolar)  [Temperature = 298.15 K]
DOCKED: USER    
DOCKED: USER    (1) Final Intermolecular Energy     =  -12.89 kcal/mol
DOCKED: USER        vdW + Hbond + desolv Energy     =  -12.89 kcal/mol
DOCKED: USER        Electrostatic Energy            =   +0.00 kcal/mol
DOCKED: USER    (2) Final Total Internal Energy     =   -1.32 kcal/mol
DOCKED: USER    (3) Torsional Free Energy           =   +2.68 kcal/mol
DOCKED: USER    (4) Unbound System's Energy  [=(2)] =   -1.32 kcal/mol
DOCKED: USER    
DOCKED: USER    
DOCKED: USER    NEWDPF move ligand.dum.pdbqt
DOCKED: USER    NEWDPF about -0.029000 -0.207000 0.469000
DOCKED: USER    NEWDPF tran0 38.221254 13.613666 122.088921
DOCKED: USER    NEWDPF quaternion0 -0.612699 0.597960 -0.506881 -0.100581
DOCKED: USER    NEWDPF axisangle0 -0.615821 0.601008 -0.509464 -168.454760
DOCKED: USER    NEWDPF quat0 -0.615821 0.601008 -0.509464 -168.454760
DOCKED: USER    NEWDPF dihe0 19.36 57.52 71.00 52.73 17.10 -0.73 -24.31 2.58 -38.73 
DOCKED: USER  keepresnum = 1 
DOCKED: USER  
DOCKED: REMARK  Name = 
DOCKED: REMARK  9 active torsions:
DOCKED: REMARK  status: ('A' for Active; 'I' for Inactive)
DOCKED: REMARK    1  A    between atoms: C_2  and  C_5
DOCKED: REMARK    2  A    between atoms: N_3  and  O_4
DOCKED: REMARK    3  A    between atoms: C_5  and  C_6
DOCKED: REMARK    4  A    between atoms: C_6  and  C_7
DOCKED: REMARK    5  A    between atoms: C_7  and  C_8
DOCKED: REMARK    6  A    between atoms: C_8  and  C_9
DOCKED: REMARK    7  A    between atoms: C_9  and  C_10
DOCKED: REMARK    8  A    between atoms: C_10  and  C_11
DOCKED: REMARK    9  A    between atoms: N_12  and  C_13
DOCKED: REMARK                            x       y       z     vdW  Elec       q    Type
DOCKED: REMARK                         _______ _______ _______ _____ _____    ______ ____
DOCKED: USER                              x       y       z     vdW  Elec       q    Type
DOCKED: USER                           _______ _______ _______ _____ _____    ______ ____
DOCKED: ROOT
DOCKED: ATOM      1  C   UNL     1      36.246  15.299 123.971 -0.40 -0.00    +0.000 C 
DOCKED: ENDROOT
DOCKED: BRANCH   1   2
DOCKED: ATOM      2  C   UNL     1      35.941  14.077 123.092 -0.44 -0.00    +0.000 C 
DOCKED: BRANCH   2   3
DOCKED: ATOM      3  C   UNL     1      36.226  12.771 123.847 -0.62 -0.00    +0.000 C 
DOCKED: BRANCH   3   4
DOCKED: ATOM      4  C   UNL     1      35.787  11.521 123.061 -0.65 -0.00    +0.000 C 
DOCKED: BRANCH   4   5
DOCKED: ATOM      5  C   UNL     1      36.811  11.032 122.023 -0.60 -0.00    +0.000 C 
DOCKED: BRANCH   5   7
DOCKED: ATOM      6  O   UNL     1      37.048   8.857 121.060 -2.70 -0.00    +0.000 OA
DOCKED: ATOM      7  C   UNL     1      37.043   9.551 122.112 -0.62 -0.00    +0.000 C 
DOCKED: ATOM      8  N   UNL     1      37.229   8.921 123.383 -0.56 -0.00    +0.000 N 
DOCKED: ATOM      9  H   UNL     1      37.218   9.465 124.203 -0.60 -0.00    +0.000 HD
DOCKED: BRANCH   8  10
DOCKED: ATOM     10  O   UNL     1      37.419   7.584 123.467 -2.11 -0.00    +0.000 OA
DOCKED: ATOM     11  H   UNL     1      37.705   7.243 122.606 -0.31 -0.00    +0.000 HD
DOCKED: ENDBRANCH   8  10
DOCKED: ENDBRANCH   5   7
DOCKED: ENDBRANCH   4   5
DOCKED: ENDBRANCH   3   4
DOCKED: ENDBRANCH   2   3
DOCKED: ENDBRANCH   1   2
DOCKED: BRANCH   1  12
DOCKED: ATOM     12  C   UNL     1      36.577  16.546 123.139 -0.31 -0.00    +0.000 C 
DOCKED: BRANCH  12  13
DOCKED: ATOM     13  C   UNL     1      38.035  16.890 123.226 -0.25 -0.00    +0.000 C 
DOCKED: ATOM     14  N   UNL     1      38.940  16.455 122.200 -0.20 -0.00    +0.000 N 
DOCKED: ATOM     15  O   UNL     1      38.455  17.556 124.211 -0.27 -0.00    +0.000 OA
DOCKED: ATOM     16  H   UNL     1      38.564  16.214 121.323 +0.01 -0.00    +0.000 HD
DOCKED: BRANCH  14  17
DOCKED: ATOM     17  C   UNL     1      40.364  16.345 122.373 -0.27 -0.00    +0.000 A 
DOCKED: ATOM     18  C   UNL     1      41.202  17.353 121.875 -0.16 -0.00    +0.000 A 
DOCKED: ATOM     19  C   UNL     1      42.587  17.244 122.007 -0.23 -0.00    +0.000 A 
DOCKED: ATOM     20  C   UNL     1      43.127  16.114 122.624 -0.31 -0.00    +0.000 A 
DOCKED: ATOM     21  N   UNL     1      42.308  15.131 123.080 -0.96 +0.00    +0.000 NA
DOCKED: ATOM     22  C   UNL     1      40.955  15.216 122.969 -0.32 -0.00    +0.000 A 
DOCKED: ATOM     23  CM  UNL     1      41.772  16.204 122.504 +0.00 -0.00    +0.000 AC
DOCKED: ENDBRANCH  14  17
DOCKED: ENDBRANCH  12  13
DOCKED: ENDBRANCH   1  12
DOCKED: TORSDOF 9DOCKED: TER
DOCKED: ENDMDL
________________________________________________________________________________


	BEGINNING GENETIC ALGORITHM DOCKING 41 of 100
Run: 41 Seed: 883478923 1926067966 [ Run 41 of 100 GA/GALS ]
Beginning LAMARCKIAN GENETIC ALGORITHM (LGA), with a maximum of 2500000 energy evaluations.

Final-Value: -13.688


	FINAL GENETIC ALGORITHM DOCKED STATE
	_______________________________________________


Detailed state:  trans 37.254 12.700 121.290 quatxyzw -0.500824 0.752007 -0.347163 0.251273 center -0.029 -0.207 0.469 ntor 9 62.1043 -173.9418 -179.9772 -173.6341 165.2117 90.9422 -47.0544 -175.6452 54.7759
State:	 37.254  12.700 121.290  -0.517  0.777 -0.359 150.894     62.10 -173.94 -179.98 -173.63  165.21   90.94  -47.05 -175.65   54.78

DOCKED: MODEL       41
DOCKED: USER    Run = 41
DOCKED: USER    DPF = ligand_dock.biased.dpf
DOCKED: USER  
DOCKED: USER    Estimated Free Energy of Binding    =   -9.64 kcal/mol  [=(1)+(2)+(3)-(4)]
DOCKED: USER    Estimated Inhibition Constant, Ki   =   86.48 nM (nanomolar)  [Temperature = 298.15 K]
DOCKED: USER    
DOCKED: USER    (1) Final Intermolecular Energy     =  -12.32 kcal/mol
DOCKED: USER        vdW + Hbond + desolv Energy     =  -12.32 kcal/mol
DOCKED: USER        Electrostatic Energy            =   +0.00 kcal/mol
DOCKED: USER    (2) Final Total Internal Energy     =   -1.37 kcal/mol
DOCKED: USER    (3) Torsional Free Energy           =   +2.68 kcal/mol
DOCKED: USER    (4) Unbound System's Energy  [=(2)] =   -1.37 kcal/mol
DOCKED: USER    
DOCKED: USER    
DOCKED: USER    NEWDPF move ligand.dum.pdbqt
DOCKED: USER    NEWDPF about -0.029000 -0.207000 0.469000
DOCKED: USER    NEWDPF tran0 37.253909 12.699826 121.289682
DOCKED: USER    NEWDPF quaternion0 -0.500824 0.752007 -0.347163 0.251273
DOCKED: USER    NEWDPF axisangle0 -0.517425 0.776934 -0.358671 150.894348
DOCKED: USER    NEWDPF quat0 -0.517425 0.776934 -0.358671 150.894348
DOCKED: USER    NEWDPF dihe0 62.10 -173.94 -179.98 -173.63 165.21 90.94 -47.05 -175.65 54.78 
DOCKED: USER  keepresnum = 1 
DOCKED: USER  
DOCKED: REMARK  Name = 
DOCKED: REMARK  9 active torsions:
DOCKED: REMARK  status: ('A' for Active; 'I' for Inactive)
DOCKED: REMARK    1  A    between atoms: C_2  and  C_5
DOCKED: REMARK    2  A    between atoms: N_3  and  O_4
DOCKED: REMARK    3  A    between atoms: C_5  and  C_6
DOCKED: REMARK    4  A    between atoms: C_6  and  C_7
DOCKED: REMARK    5  A    between atoms: C_7  and  C_8
DOCKED: REMARK    6  A    between atoms: C_8  and  C_9
DOCKED: REMARK    7  A    between atoms: C_9  and  C_10
DOCKED: REMARK    8  A    between atoms: C_10  and  C_11
DOCKED: REMARK    9  A    between atoms: N_12  and  C_13
DOCKED: REMARK                            x       y       z     vdW  Elec       q    Type
DOCKED: REMARK                         _______ _______ _______ _____ _____    ______ ____
DOCKED: USER                              x       y       z     vdW  Elec       q    Type
DOCKED: USER                           _______ _______ _______ _____ _____    ______ ____
DOCKED: ROOT
DOCKED: ATOM      1  C   UNL     1      37.885  15.002 123.433 -0.28 -0.00    +0.000 C 
DOCKED: ENDROOT
DOCKED: BRANCH   1   2
DOCKED: ATOM      2  C   UNL     1      36.547  14.324 123.102 -0.50 -0.00    +0.000 C 
DOCKED: BRANCH   2   3
DOCKED: ATOM      3  C   UNL     1      36.589  12.827 123.437 -0.65 -0.00    +0.000 C 
DOCKED: BRANCH   3   4
DOCKED: ATOM      4  C   UNL     1      36.960  11.954 122.223 -0.60 -0.00    +0.000 C 
DOCKED: BRANCH   4   5
DOCKED: ATOM      5  C   UNL     1      35.991  10.791 121.957 -0.53 -0.00    +0.000 C 
DOCKED: BRANCH   5   7
DOCKED: ATOM      6  O   UNL     1      37.063   8.872 121.016 -2.71 -0.00    +0.000 OA
DOCKED: ATOM      7  C   UNL     1      36.669   9.455 122.063 -0.70 -0.00    +0.000 C 
DOCKED: ATOM      8  N   UNL     1      36.844   8.828 123.336 -0.63 -0.00    +0.000 N 
DOCKED: ATOM      9  H   UNL     1      36.529   9.284 124.151 -0.42 -0.00    +0.000 HD
DOCKED: BRANCH   8  10
DOCKED: ATOM     10  O   UNL     1      37.437   7.616 123.432 -2.13 -0.00    +0.000 OA
DOCKED: ATOM     11  H   UNL     1      38.349   7.676 123.107 -0.52 -0.00    +0.000 HD
DOCKED: ENDBRANCH   8  10
DOCKED: ENDBRANCH   5   7
DOCKED: ENDBRANCH   4   5
DOCKED: ENDBRANCH   3   4
DOCKED: ENDBRANCH   2   3
DOCKED: ENDBRANCH   1   2
DOCKED: BRANCH   1  12
DOCKED: ATOM     12  C   UNL     1      38.392  15.882 122.282 -0.29 -0.00    +0.000 C 
DOCKED: BRANCH  12  13
DOCKED: ATOM     13  C   UNL     1      37.658  15.590 121.006 -0.24 -0.00    +0.000 C 
DOCKED: ATOM     14  N   UNL     1      38.042  14.469 120.194 -0.28 -0.00    +0.000 N 
DOCKED: ATOM     15  O   UNL     1      36.712  16.344 120.651 -0.21 -0.00    +0.000 OA
DOCKED: ATOM     16  H   UNL     1      38.554  13.745 120.620 -0.04 -0.00    +0.000 HD
DOCKED: BRANCH  14  17
DOCKED: ATOM     17  C   UNL     1      37.726  14.339 118.797 -0.27 -0.00    +0.000 A 
DOCKED: ATOM     18  C   UNL     1      37.654  15.484 117.993 -0.16 -0.00    +0.000 A 
DOCKED: ATOM     19  C   UNL     1      37.317  15.375 116.643 -0.16 -0.00    +0.000 A 
DOCKED: ATOM     20  C   UNL     1      37.035  14.116 116.110 -0.31 -0.00    +0.000 A 
DOCKED: ATOM     21  N   UNL     1      37.082  13.015 116.904 -0.38 -0.00    +0.000 NA
DOCKED: ATOM     22  C   UNL     1      37.414  13.094 118.220 -0.33 -0.00    +0.000 A 
DOCKED: ATOM     23  CM  UNL     1      37.364  14.204 117.430 +0.00 -0.00    +0.000 AC
DOCKED: ENDBRANCH  14  17
DOCKED: ENDBRANCH  12  13
DOCKED: ENDBRANCH   1  12
DOCKED: TORSDOF 9DOCKED: TER
DOCKED: ENDMDL
________________________________________________________________________________


	BEGINNING GENETIC ALGORITHM DOCKING 42 of 100
Run: 42 Seed: 63913658 1200636457 [ Run 42 of 100 GA/GALS ]
Beginning LAMARCKIAN GENETIC ALGORITHM (LGA), with a maximum of 2500000 energy evaluations.

Final-Value: -14.534


	FINAL GENETIC ALGORITHM DOCKED STATE
	_______________________________________________


Detailed state:  trans 37.385 13.144 122.537 quatxyzw 0.662017 -0.529266 0.524015 -0.083783 center -0.029 -0.207 0.469 ntor 9 19.4952 64.9397 87.2160 -179.9315 69.8184 14.9286 -84.6093 -64.8039 -38.6875
State:	 37.385  13.144 122.537   0.664 -0.531  0.526 -170.388     19.50   64.94   87.22 -179.93   69.82   14.93  -84.61  -64.80  -38.69

DOCKED: MODEL       42
DOCKED: USER    Run = 42
DOCKED: USER    DPF = ligand_dock.biased.dpf
DOCKED: USER  
DOCKED: USER    Estimated Free Energy of Binding    =  -10.42 kcal/mol  [=(1)+(2)+(3)-(4)]
DOCKED: USER    Estimated Inhibition Constant, Ki   =   23.00 nM (nanomolar)  [Temperature = 298.15 K]
DOCKED: USER    
DOCKED: USER    (1) Final Intermolecular Energy     =  -13.11 kcal/mol
DOCKED: USER        vdW + Hbond + desolv Energy     =  -13.11 kcal/mol
DOCKED: USER        Electrostatic Energy            =   +0.00 kcal/mol
DOCKED: USER    (2) Final Total Internal Energy     =   -1.43 kcal/mol
DOCKED: USER    (3) Torsional Free Energy           =   +2.68 kcal/mol
DOCKED: USER    (4) Unbound System's Energy  [=(2)] =   -1.43 kcal/mol
DOCKED: USER    
DOCKED: USER    
DOCKED: USER    NEWDPF move ligand.dum.pdbqt
DOCKED: USER    NEWDPF about -0.029000 -0.207000 0.469000
DOCKED: USER    NEWDPF tran0 37.385040 13.144195 122.537177
DOCKED: USER    NEWDPF quaternion0 0.662017 -0.529266 0.524015 -0.083783
DOCKED: USER    NEWDPF axisangle0 0.664353 -0.531134 0.525863 -170.387885
DOCKED: USER    NEWDPF quat0 0.664353 -0.531134 0.525863 -170.387885
DOCKED: USER    NEWDPF dihe0 19.50 64.94 87.22 -179.93 69.82 14.93 -84.61 -64.80 -38.69 
DOCKED: USER  keepresnum = 1 
DOCKED: USER  
DOCKED: REMARK  Name = 
DOCKED: REMARK  9 active torsions:
DOCKED: REMARK  status: ('A' for Active; 'I' for Inactive)
DOCKED: REMARK    1  A    between atoms: C_2  and  C_5
DOCKED: REMARK    2  A    between atoms: N_3  and  O_4
DOCKED: REMARK    3  A    between atoms: C_5  and  C_6
DOCKED: REMARK    4  A    between atoms: C_6  and  C_7
DOCKED: REMARK    5  A    between atoms: C_7  and  C_8
DOCKED: REMARK    6  A    between atoms: C_8  and  C_9
DOCKED: REMARK    7  A    between atoms: C_9  and  C_10
DOCKED: REMARK    8  A    between atoms: C_10  and  C_11
DOCKED: REMARK    9  A    between atoms: N_12  and  C_13
DOCKED: REMARK                            x       y       z     vdW  Elec       q    Type
DOCKED: REMARK                         _______ _______ _______ _____ _____    ______ ____
DOCKED: USER                              x       y       z     vdW  Elec       q    Type
DOCKED: USER                           _______ _______ _______ _____ _____    ______ ____
DOCKED: ROOT
DOCKED: ATOM      1  C   UNL     1      35.928  15.496 124.161 -0.43 -0.00    +0.000 C 
DOCKED: ENDROOT
DOCKED: BRANCH   1   2
DOCKED: ATOM      2  C   UNL     1      35.413  14.090 123.818 -0.51 -0.00    +0.000 C 
DOCKED: BRANCH   2   3
DOCKED: ATOM      3  C   UNL     1      36.577  13.108 123.625 -0.60 -0.00    +0.000 C 
DOCKED: BRANCH   3   4
DOCKED: ATOM      4  C   UNL     1      36.124  11.749 123.059 -0.68 -0.00    +0.000 C 
DOCKED: BRANCH   4   5
DOCKED: ATOM      5  C   UNL     1      37.021  11.196 121.941 -0.56 -0.00    +0.000 C 
DOCKED: BRANCH   5   7
DOCKED: ATOM      6  O   UNL     1      37.058   9.076 120.835 -2.73 -0.00    +0.000 OA
DOCKED: ATOM      7  C   UNL     1      37.056   9.694 121.934 -0.59 -0.00    +0.000 C 
DOCKED: ATOM      8  N   UNL     1      37.056   8.964 123.163 -0.66 -0.00    +0.000 N 
DOCKED: ATOM      9  H   UNL     1      37.048   9.450 124.020 -0.53 -0.00    +0.000 HD
DOCKED: BRANCH   8  10
DOCKED: ATOM     10  O   UNL     1      37.068   7.610 123.160 -2.29 -0.00    +0.000 OA
DOCKED: ATOM     11  H   UNL     1      37.379   7.292 122.299 -0.15 -0.00    +0.000 HD
DOCKED: ENDBRANCH   8  10
DOCKED: ENDBRANCH   5   7
DOCKED: ENDBRANCH   4   5
DOCKED: ENDBRANCH   3   4
DOCKED: ENDBRANCH   2   3
DOCKED: ENDBRANCH   1   2
DOCKED: BRANCH   1  12
DOCKED: ATOM     12  C   UNL     1      36.062  16.386 122.917 -0.34 -0.00    +0.000 C 
DOCKED: BRANCH  12  13
DOCKED: ATOM     13  C   UNL     1      37.501  16.615 122.559 -0.24 -0.00    +0.000 C 
DOCKED: ATOM     14  N   UNL     1      38.488  15.621 122.874 -0.31 -0.00    +0.000 N 
DOCKED: ATOM     15  O   UNL     1      37.832  17.690 121.989 -0.12 -0.00    +0.000 OA
DOCKED: ATOM     16  H   UNL     1      38.182  14.699 123.030 -0.02 -0.00    +0.000 HD
DOCKED: BRANCH  14  17
DOCKED: ATOM     17  C   UNL     1      39.898  15.888 122.977 -0.19 -0.00    +0.000 A 
DOCKED: ATOM     18  C   UNL     1      40.336  17.175 123.319 -0.25 -0.00    +0.000 A 
DOCKED: ATOM     19  C   UNL     1      41.701  17.456 123.391 -0.31 -0.00    +0.000 A 
DOCKED: ATOM     20  C   UNL     1      42.622  16.449 123.101 -0.38 -0.00    +0.000 A 
DOCKED: ATOM     21  N   UNL     1      42.187  15.212 122.744 -0.76 -0.00    +0.000 NA
DOCKED: ATOM     22  C   UNL     1      40.863  14.911 122.673 -0.46 -0.00    +0.000 A 
DOCKED: ATOM     23  CM  UNL     1      41.293  16.156 123.026 +0.00 -0.00    +0.000 AC
DOCKED: ENDBRANCH  14  17
DOCKED: ENDBRANCH  12  13
DOCKED: ENDBRANCH   1  12
DOCKED: TORSDOF 9DOCKED: TER
DOCKED: ENDMDL
________________________________________________________________________________


	BEGINNING GENETIC ALGORITHM DOCKING 43 of 100
Run: 43 Seed: 1196720426 96314977 [ Run 43 of 100 GA/GALS ]
Beginning LAMARCKIAN GENETIC ALGORITHM (LGA), with a maximum of 2500000 energy evaluations.

Final-Value: -14.764


	FINAL GENETIC ALGORITHM DOCKED STATE
	_______________________________________________


Detailed state:  trans 38.193 13.797 119.069 quatxyzw -0.985568 0.028538 -0.003514 0.166819 center -0.029 -0.207 0.469 ntor 9 -0.5121 176.0693 61.1633 -108.3098 115.6690 81.4905 -175.2776 67.1533 -180.0000
State:	 38.193  13.797 119.069  -1.000  0.029 -0.004 160.794     -0.51  176.07   61.16 -108.31  115.67   81.49 -175.28   67.15 -180.00

DOCKED: MODEL       43
DOCKED: USER    Run = 43
DOCKED: USER    DPF = ligand_dock.biased.dpf
DOCKED: USER  
DOCKED: USER    Estimated Free Energy of Binding    =  -10.60 kcal/mol  [=(1)+(2)+(3)-(4)]
DOCKED: USER    Estimated Inhibition Constant, Ki   =   16.99 nM (nanomolar)  [Temperature = 298.15 K]
DOCKED: USER    
DOCKED: USER    (1) Final Intermolecular Energy     =  -13.28 kcal/mol
DOCKED: USER        vdW + Hbond + desolv Energy     =  -13.28 kcal/mol
DOCKED: USER        Electrostatic Energy            =   +0.00 kcal/mol
DOCKED: USER    (2) Final Total Internal Energy     =   -1.48 kcal/mol
DOCKED: USER    (3) Torsional Free Energy           =   +2.68 kcal/mol
DOCKED: USER    (4) Unbound System's Energy  [=(2)] =   -1.48 kcal/mol
DOCKED: USER    
DOCKED: USER    
DOCKED: USER    NEWDPF move ligand.dum.pdbqt
DOCKED: USER    NEWDPF about -0.029000 -0.207000 0.469000
DOCKED: USER    NEWDPF tran0 38.193188 13.797083 119.068612
DOCKED: USER    NEWDPF quaternion0 -0.985568 0.028538 -0.003514 0.166819
DOCKED: USER    NEWDPF axisangle0 -0.999575 0.028944 -0.003564 160.794164
DOCKED: USER    NEWDPF quat0 -0.999575 0.028944 -0.003564 160.794164
DOCKED: USER    NEWDPF dihe0 -0.51 176.07 61.16 -108.31 115.67 81.49 -175.28 67.15 -180.00 
DOCKED: USER  keepresnum = 1 
DOCKED: USER  
DOCKED: REMARK  Name = 
DOCKED: REMARK  9 active torsions:
DOCKED: REMARK  status: ('A' for Active; 'I' for Inactive)
DOCKED: REMARK    1  A    between atoms: C_2  and  C_5
DOCKED: REMARK    2  A    between atoms: N_3  and  O_4
DOCKED: REMARK    3  A    between atoms: C_5  and  C_6
DOCKED: REMARK    4  A    between atoms: C_6  and  C_7
DOCKED: REMARK    5  A    between atoms: C_7  and  C_8
DOCKED: REMARK    6  A    between atoms: C_8  and  C_9
DOCKED: REMARK    7  A    between atoms: C_9  and  C_10
DOCKED: REMARK    8  A    between atoms: C_10  and  C_11
DOCKED: REMARK    9  A    between atoms: N_12  and  C_13
DOCKED: REMARK                            x       y       z     vdW  Elec       q    Type
DOCKED: REMARK                         _______ _______ _______ _____ _____    ______ ____
DOCKED: USER                              x       y       z     vdW  Elec       q    Type
DOCKED: USER                           _______ _______ _______ _____ _____    ______ ____
DOCKED: ROOT
DOCKED: ATOM      1  C   UNL     1      38.222  15.376 121.860 -0.31 -0.00    +0.000 C 
DOCKED: ENDROOT
DOCKED: BRANCH   1   2
DOCKED: ATOM      2  C   UNL     1      38.803  13.995 121.520 -0.36 -0.00    +0.000 C 
DOCKED: BRANCH   2   3
DOCKED: ATOM      3  C   UNL     1      37.690  13.007 121.144 -0.49 -0.00    +0.000 C 
DOCKED: BRANCH   3   4
DOCKED: ATOM      4  C   UNL     1      37.381  12.001 122.269 -0.47 -0.00    +0.000 C 
DOCKED: BRANCH   4   5
DOCKED: ATOM      5  C   UNL     1      36.302  10.964 121.915 -0.57 -0.00    +0.000 C 
DOCKED: BRANCH   5   7
DOCKED: ATOM      6  O   UNL     1      37.027   8.870 121.016 -2.70 -0.00    +0.000 OA
DOCKED: ATOM      7  C   UNL     1      36.806   9.556 122.051 -0.67 -0.00    +0.000 C 
DOCKED: ATOM      8  N   UNL     1      37.007   8.980 123.345 -0.61 -0.00    +0.000 N 
DOCKED: ATOM      9  H   UNL     1      36.828   9.516 124.151 -0.51 -0.00    +0.000 HD
DOCKED: BRANCH   8  10
DOCKED: ATOM     10  O   UNL     1      37.443   7.705 123.471 -2.16 -0.00    +0.000 OA
DOCKED: ATOM     11  H   UNL     1      37.562   7.315 122.591 -0.23 -0.00    +0.000 HD
DOCKED: ENDBRANCH   8  10
DOCKED: ENDBRANCH   5   7
DOCKED: ENDBRANCH   4   5
DOCKED: ENDBRANCH   3   4
DOCKED: ENDBRANCH   2   3
DOCKED: ENDBRANCH   1   2
DOCKED: BRANCH   1  12
DOCKED: ATOM     12  C   UNL     1      36.688  15.386 121.827 -0.26 -0.00    +0.000 C 
DOCKED: BRANCH  12  13
DOCKED: ATOM     13  C   UNL     1      36.111  15.538 123.204 -0.42 -0.00    +0.000 C 
DOCKED: ATOM     14  N   UNL     1      34.752  15.968 123.372 -0.45 -0.00    +0.000 N 
DOCKED: ATOM     15  O   UNL     1      36.834  15.293 124.207 -0.38 -0.00    +0.000 OA
DOCKED: ATOM     16  H   UNL     1      34.136  15.861 122.611 -0.03 -0.00    +0.000 HD
DOCKED: BRANCH  14  17
DOCKED: ATOM     17  C   UNL     1      34.232  16.548 124.581 -0.44 -0.00    +0.000 A 
DOCKED: ATOM     18  C   UNL     1      34.126  17.942 124.691 -0.35 -0.00    +0.000 A 
DOCKED: ATOM     19  C   UNL     1      33.654  18.519 125.871 -0.30 -0.00    +0.000 A 
DOCKED: ATOM     20  C   UNL     1      33.307  17.695 126.943 -0.32 -0.00    +0.000 A 
DOCKED: ATOM     21  N   UNL     1      33.438  16.347 126.835 -0.99 -0.00    +0.000 NA
DOCKED: ATOM     22  C   UNL     1      33.889  15.760 125.695 -0.17 -0.00    +0.000 A 
DOCKED: ATOM     23  CM  UNL     1      33.765  17.114 125.798 -0.10 -0.00    +0.000 AC
DOCKED: ENDBRANCH  14  17
DOCKED: ENDBRANCH  12  13
DOCKED: ENDBRANCH   1  12
DOCKED: TORSDOF 9DOCKED: TER
DOCKED: ENDMDL
________________________________________________________________________________


	BEGINNING GENETIC ALGORITHM DOCKING 44 of 100
Run: 44 Seed: 284886159 385002709 [ Run 44 of 100 GA/GALS ]
Beginning LAMARCKIAN GENETIC ALGORITHM (LGA), with a maximum of 2500000 energy evaluations.

Final-Value: -14.398


	FINAL GENETIC ALGORITHM DOCKED STATE
	_______________________________________________


Detailed state:  trans 36.944 11.917 121.985 quatxyzw 0.320515 -0.695013 0.500958 -0.404065 center -0.029 -0.207 0.469 ntor 9 4.8566 179.8124 141.7454 96.1180 -172.4120 115.6465 -57.8588 150.7343 84.2663
State:	 36.944  11.917 121.985   0.350 -0.760  0.548 -132.335      4.86  179.81  141.75   96.12 -172.41  115.65  -57.86  150.73   84.27

DOCKED: MODEL       44
DOCKED: USER    Run = 44
DOCKED: USER    DPF = ligand_dock.biased.dpf
DOCKED: USER  
DOCKED: USER    Estimated Free Energy of Binding    =  -10.07 kcal/mol  [=(1)+(2)+(3)-(4)]
DOCKED: USER    Estimated Inhibition Constant, Ki   =   41.64 nM (nanomolar)  [Temperature = 298.15 K]
DOCKED: USER    
DOCKED: USER    (1) Final Intermolecular Energy     =  -12.75 kcal/mol
DOCKED: USER        vdW + Hbond + desolv Energy     =  -12.75 kcal/mol
DOCKED: USER        Electrostatic Energy            =   +0.00 kcal/mol
DOCKED: USER    (2) Final Total Internal Energy     =   -1.64 kcal/mol
DOCKED: USER    (3) Torsional Free Energy           =   +2.68 kcal/mol
DOCKED: USER    (4) Unbound System's Energy  [=(2)] =   -1.64 kcal/mol
DOCKED: USER    
DOCKED: USER    
DOCKED: USER    NEWDPF move ligand.dum.pdbqt
DOCKED: USER    NEWDPF about -0.029000 -0.207000 0.469000
DOCKED: USER    NEWDPF tran0 36.944248 11.916980 121.984904
DOCKED: USER    NEWDPF quaternion0 0.320515 -0.695013 0.500958 -0.404065
DOCKED: USER    NEWDPF axisangle0 0.350392 -0.759801 0.547657 -132.334865
DOCKED: USER    NEWDPF quat0 0.350392 -0.759801 0.547657 -132.334865
DOCKED: USER    NEWDPF dihe0 4.86 179.81 141.75 96.12 -172.41 115.65 -57.86 150.73 84.27 
DOCKED: USER  keepresnum = 1 
DOCKED: USER  
DOCKED: REMARK  Name = 
DOCKED: REMARK  9 active torsions:
DOCKED: REMARK  status: ('A' for Active; 'I' for Inactive)
DOCKED: REMARK    1  A    between atoms: C_2  and  C_5
DOCKED: REMARK    2  A    between atoms: N_3  and  O_4
DOCKED: REMARK    3  A    between atoms: C_5  and  C_6
DOCKED: REMARK    4  A    between atoms: C_6  and  C_7
DOCKED: REMARK    5  A    between atoms: C_7  and  C_8
DOCKED: REMARK    6  A    between atoms: C_8  and  C_9
DOCKED: REMARK    7  A    between atoms: C_9  and  C_10
DOCKED: REMARK    8  A    between atoms: C_10  and  C_11
DOCKED: REMARK    9  A    between atoms: N_12  and  C_13
DOCKED: REMARK                            x       y       z     vdW  Elec       q    Type
DOCKED: REMARK                         _______ _______ _______ _____ _____    ______ ____
DOCKED: USER                              x       y       z     vdW  Elec       q    Type
DOCKED: USER                           _______ _______ _______ _____ _____    ______ ____
DOCKED: ROOT
DOCKED: ATOM      1  C   UNL     1      38.196  14.765 122.766 -0.43 -0.00    +0.000 C 
DOCKED: ENDROOT
DOCKED: BRANCH   1   2
DOCKED: ATOM      2  C   UNL     1      36.722  14.338 122.701 -0.46 -0.00    +0.000 C 
DOCKED: BRANCH   2   3
DOCKED: ATOM      3  C   UNL     1      36.479  13.068 123.530 -0.62 -0.00    +0.000 C 
DOCKED: BRANCH   3   4
DOCKED: ATOM      4  C   UNL     1      37.119  11.816 122.903 -0.62 -0.00    +0.000 C 
DOCKED: BRANCH   4   5
DOCKED: ATOM      5  C   UNL     1      36.117  10.849 122.251 -0.64 -0.00    +0.000 C 
DOCKED: BRANCH   5   7
DOCKED: ATOM      6  O   UNL     1      37.063   9.008 121.055 -2.72 -0.00    +0.000 OA
DOCKED: ATOM      7  C   UNL     1      36.655   9.450 122.163 -0.71 -0.00    +0.000 C 
DOCKED: ATOM      8  N   UNL     1      36.680   8.609 123.320 -0.65 -0.00    +0.000 N 
DOCKED: ATOM      9  H   UNL     1      36.355   8.956 124.182 -0.34 -0.00    +0.000 HD
DOCKED: BRANCH   8  10
DOCKED: ATOM     10  O   UNL     1      37.147   7.341 123.240 -2.10 -0.00    +0.000 OA
DOCKED: ATOM     11  H   UNL     1      37.496   7.181 122.349 -0.20 -0.00    +0.000 HD
DOCKED: ENDBRANCH   8  10
DOCKED: ENDBRANCH   5   7
DOCKED: ENDBRANCH   4   5
DOCKED: ENDBRANCH   3   4
DOCKED: ENDBRANCH   2   3
DOCKED: ENDBRANCH   1   2
DOCKED: BRANCH   1  12
DOCKED: ATOM     12  C   UNL     1      38.848  14.817 121.378 -0.35 -0.00    +0.000 C 
DOCKED: BRANCH  12  13
DOCKED: ATOM     13  C   UNL     1      37.818  14.787 120.287 -0.29 -0.00    +0.000 C 
DOCKED: ATOM     14  N   UNL     1      37.758  13.673 119.384 -0.35 -0.00    +0.000 N 
DOCKED: ATOM     15  O   UNL     1      37.016  15.753 120.168 -0.22 -0.00    +0.000 OA
DOCKED: ATOM     16  H   UNL     1      38.168  12.824 119.668 -0.12 -0.00    +0.000 HD
DOCKED: BRANCH  14  17
DOCKED: ATOM     17  C   UNL     1      37.136  13.718 118.087 -0.36 -0.00    +0.000 A 
DOCKED: ATOM     18  C   UNL     1      35.786  14.077 117.979 -0.29 -0.00    +0.000 A 
DOCKED: ATOM     19  C   UNL     1      35.161  14.093 116.731 -0.31 -0.00    +0.000 A 
DOCKED: ATOM     20  C   UNL     1      35.891  13.731 115.598 -0.24 -0.00    +0.000 A 
DOCKED: ATOM     21  N   UNL     1      37.192  13.358 115.717 -0.39 -0.00    +0.000 NA
DOCKED: ATOM     22  C   UNL     1      37.825  13.341 116.920 -0.36 -0.00    +0.000 A 
DOCKED: ATOM     23  CM  UNL     1      36.517  13.710 116.808 +0.00 -0.00    +0.000 AC
DOCKED: ENDBRANCH  14  17
DOCKED: ENDBRANCH  12  13
DOCKED: ENDBRANCH   1  12
DOCKED: TORSDOF 9DOCKED: TER
DOCKED: ENDMDL
________________________________________________________________________________


	BEGINNING GENETIC ALGORITHM DOCKING 45 of 100
Run: 45 Seed: 1137678887 1946637650 [ Run 45 of 100 GA/GALS ]
Beginning LAMARCKIAN GENETIC ALGORITHM (LGA), with a maximum of 2500000 energy evaluations.

Final-Value: -14.370


	FINAL GENETIC ALGORITHM DOCKED STATE
	_______________________________________________


Detailed state:  trans 33.910 11.348 122.313 quatxyzw -0.172622 -0.836714 0.273862 -0.441713 center -0.029 -0.207 0.469 ntor 9 5.7043 159.6763 177.0593 -102.7483 50.9493 32.4244 100.0745 -107.5210 -5.7386
State:	 33.910  11.348 122.313  -0.192 -0.933  0.305 -127.573      5.70  159.68  177.06 -102.75   50.95   32.42  100.07 -107.52   -5.74

DOCKED: MODEL       45
DOCKED: USER    Run = 45
DOCKED: USER    DPF = ligand_dock.biased.dpf
DOCKED: USER  
DOCKED: USER    Estimated Free Energy of Binding    =  -10.24 kcal/mol  [=(1)+(2)+(3)-(4)]
DOCKED: USER    Estimated Inhibition Constant, Ki   =   30.95 nM (nanomolar)  [Temperature = 298.15 K]
DOCKED: USER    
DOCKED: USER    (1) Final Intermolecular Energy     =  -12.93 kcal/mol
DOCKED: USER        vdW + Hbond + desolv Energy     =  -12.93 kcal/mol
DOCKED: USER        Electrostatic Energy            =   +0.00 kcal/mol
DOCKED: USER    (2) Final Total Internal Energy     =   -1.44 kcal/mol
DOCKED: USER    (3) Torsional Free Energy           =   +2.68 kcal/mol
DOCKED: USER    (4) Unbound System's Energy  [=(2)] =   -1.44 kcal/mol
DOCKED: USER    
DOCKED: USER    
DOCKED: USER    NEWDPF move ligand.dum.pdbqt
DOCKED: USER    NEWDPF about -0.029000 -0.207000 0.469000
DOCKED: USER    NEWDPF tran0 33.910395 11.347513 122.312906
DOCKED: USER    NEWDPF quaternion0 -0.172622 -0.836714 0.273862 -0.441713
DOCKED: USER    NEWDPF axisangle0 -0.192411 -0.932629 0.305256 -127.573498
DOCKED: USER    NEWDPF quat0 -0.192411 -0.932629 0.305256 -127.573498
DOCKED: USER    NEWDPF dihe0 5.70 159.68 177.06 -102.75 50.95 32.42 100.07 -107.52 -5.74 
DOCKED: USER  keepresnum = 1 
DOCKED: USER  
DOCKED: REMARK  Name = 
DOCKED: REMARK  9 active torsions:
DOCKED: REMARK  status: ('A' for Active; 'I' for Inactive)
DOCKED: REMARK    1  A    between atoms: C_2  and  C_5
DOCKED: REMARK    2  A    between atoms: N_3  and  O_4
DOCKED: REMARK    3  A    between atoms: C_5  and  C_6
DOCKED: REMARK    4  A    between atoms: C_6  and  C_7
DOCKED: REMARK    5  A    between atoms: C_7  and  C_8
DOCKED: REMARK    6  A    between atoms: C_8  and  C_9
DOCKED: REMARK    7  A    between atoms: C_9  and  C_10
DOCKED: REMARK    8  A    between atoms: C_10  and  C_11
DOCKED: REMARK    9  A    between atoms: N_12  and  C_13
DOCKED: REMARK                            x       y       z     vdW  Elec       q    Type
DOCKED: REMARK                         _______ _______ _______ _____ _____    ______ ____
DOCKED: USER                              x       y       z     vdW  Elec       q    Type
DOCKED: USER                           _______ _______ _______ _____ _____    ______ ____
DOCKED: ROOT
DOCKED: ATOM      1  C   UNL     1      36.521  11.853 124.106 -0.63 -0.00    +0.000 C 
DOCKED: ENDROOT
DOCKED: BRANCH   1   2
DOCKED: ATOM      2  C   UNL     1      35.573  12.876 123.463 -0.47 -0.00    +0.000 C 
DOCKED: BRANCH   2   3
DOCKED: ATOM      3  C   UNL     1      36.320  14.166 123.096 -0.51 -0.00    +0.000 C 
DOCKED: BRANCH   3   4
DOCKED: ATOM      4  C   UNL     1      35.401  15.402 123.079 -0.35 -0.00    +0.000 C 
DOCKED: BRANCH   4   5
DOCKED: ATOM      5  C   UNL     1      35.767  16.479 124.114 -0.39 -0.00    +0.000 C 
DOCKED: BRANCH   5   7
DOCKED: ATOM      6  O   UNL     1      34.206  17.944 125.179 -0.40 -0.00    +0.000 OA
DOCKED: ATOM      7  C   UNL     1      34.634  16.764 125.058 -0.45 -0.00    +0.000 C 
DOCKED: ATOM      8  N   UNL     1      34.059  15.713 125.839 -0.45 -0.00    +0.000 N 
DOCKED: ATOM      9  H   UNL     1      34.400  14.794 125.746 -0.04 -0.00    +0.000 HD
DOCKED: BRANCH   8  10
DOCKED: ATOM     10  O   UNL     1      33.051  15.971 126.705 -1.11 -0.00    +0.000 OA
DOCKED: ATOM     11  H   UNL     1      32.774  16.895 126.613 -0.11 -0.00    +0.000 HD
DOCKED: ENDBRANCH   8  10
DOCKED: ENDBRANCH   5   7
DOCKED: ENDBRANCH   4   5
DOCKED: ENDBRANCH   3   4
DOCKED: ENDBRANCH   2   3
DOCKED: ENDBRANCH   1   2
DOCKED: BRANCH   1  12
DOCKED: ATOM     12  C   UNL     1      37.341  11.084 123.062 -0.35 -0.00    +0.000 C 
DOCKED: BRANCH  12  13
DOCKED: ATOM     13  C   UNL     1      36.507  10.051 122.363 -0.69 -0.00    +0.000 C 
DOCKED: ATOM     14  N   UNL     1      35.222   9.686 122.889 -0.60 -0.00    +0.000 N 
DOCKED: ATOM     15  O   UNL     1      36.951   9.503 121.317 -2.37 -0.00    +0.000 OA
DOCKED: ATOM     16  H   UNL     1      34.778  10.316 123.501 -0.42 -0.00    +0.000 HD
DOCKED: BRANCH  14  17
DOCKED: ATOM     17  C   UNL     1      34.542   8.456 122.580 -0.61 -0.00    +0.000 A 
DOCKED: ATOM     18  C   UNL     1      34.523   7.420 123.523 -0.65 -0.00    +0.000 A 
DOCKED: ATOM     19  C   UNL     1      33.895   6.210 123.224 -0.66 -0.00    +0.000 A 
DOCKED: ATOM     20  C   UNL     1      33.304   6.039 121.971 -0.55 -0.00    +0.000 A 
DOCKED: ATOM     21  N   UNL     1      33.352   7.040 121.054 -0.55 -0.00    +0.000 NA
DOCKED: ATOM     22  C   UNL     1      33.952   8.231 121.323 -0.57 -0.00    +0.000 A 
DOCKED: ATOM     23  CM  UNL     1      33.913   7.228 122.246 +0.00 -0.00    +0.000 AC
DOCKED: ENDBRANCH  14  17
DOCKED: ENDBRANCH  12  13
DOCKED: ENDBRANCH   1  12
DOCKED: TORSDOF 9DOCKED: TER
DOCKED: ENDMDL
________________________________________________________________________________


	BEGINNING GENETIC ALGORITHM DOCKING 46 of 100
Run: 46 Seed: 1012846158 1555166651 [ Run 46 of 100 GA/GALS ]
Beginning LAMARCKIAN GENETIC ALGORITHM (LGA), with a maximum of 2500000 energy evaluations.

Final-Value: -15.711


	FINAL GENETIC ALGORITHM DOCKED STATE
	_______________________________________________


Detailed state:  trans 36.926 13.053 120.883 quatxyzw -0.397117 -0.913727 -0.040512 0.075887 center -0.029 -0.207 0.469 ntor 9 -33.0508 -58.4286 4.6356 -168.6318 171.3796 -63.0639 -165.4320 -98.0287 -55.9428
State:	 36.926  13.053 120.883  -0.398 -0.916 -0.041 171.296    -33.05  -58.43    4.64 -168.63  171.38  -63.06 -165.43  -98.03  -55.94

DOCKED: MODEL       46
DOCKED: USER    Run = 46
DOCKED: USER    DPF = ligand_dock.biased.dpf
DOCKED: USER  
DOCKED: USER    Estimated Free Energy of Binding    =   -9.86 kcal/mol  [=(1)+(2)+(3)-(4)]
DOCKED: USER    Estimated Inhibition Constant, Ki   =   58.84 nM (nanomolar)  [Temperature = 298.15 K]
DOCKED: USER    
DOCKED: USER    (1) Final Intermolecular Energy     =  -12.55 kcal/mol
DOCKED: USER        vdW + Hbond + desolv Energy     =  -12.55 kcal/mol
DOCKED: USER        Electrostatic Energy            =   +0.00 kcal/mol
DOCKED: USER    (2) Final Total Internal Energy     =   -3.16 kcal/mol
DOCKED: USER    (3) Torsional Free Energy           =   +2.68 kcal/mol
DOCKED: USER    (4) Unbound System's Energy  [=(2)] =   -3.16 kcal/mol
DOCKED: USER    
DOCKED: USER    
DOCKED: USER    NEWDPF move ligand.dum.pdbqt
DOCKED: USER    NEWDPF about -0.029000 -0.207000 0.469000
DOCKED: USER    NEWDPF tran0 36.926407 13.053164 120.882868
DOCKED: USER    NEWDPF quaternion0 -0.397117 -0.913727 -0.040512 0.075887
DOCKED: USER    NEWDPF axisangle0 -0.398266 -0.916370 -0.040629 171.295579
DOCKED: USER    NEWDPF quat0 -0.398266 -0.916370 -0.040629 171.295579
DOCKED: USER    NEWDPF dihe0 -33.05 -58.43 4.64 -168.63 171.38 -63.06 -165.43 -98.03 -55.94 
DOCKED: USER  keepresnum = 1 
DOCKED: USER  
DOCKED: REMARK  Name = 
DOCKED: REMARK  9 active torsions:
DOCKED: REMARK  status: ('A' for Active; 'I' for Inactive)
DOCKED: REMARK    1  A    between atoms: C_2  and  C_5
DOCKED: REMARK    2  A    between atoms: N_3  and  O_4
DOCKED: REMARK    3  A    between atoms: C_5  and  C_6
DOCKED: REMARK    4  A    between atoms: C_6  and  C_7
DOCKED: REMARK    5  A    between atoms: C_7  and  C_8
DOCKED: REMARK    6  A    between atoms: C_8  and  C_9
DOCKED: REMARK    7  A    between atoms: C_9  and  C_10
DOCKED: REMARK    8  A    between atoms: C_10  and  C_11
DOCKED: REMARK    9  A    between atoms: N_12  and  C_13
DOCKED: REMARK                            x       y       z     vdW  Elec       q    Type
DOCKED: REMARK                         _______ _______ _______ _____ _____    ______ ____
DOCKED: USER                              x       y       z     vdW  Elec       q    Type
DOCKED: USER                           _______ _______ _______ _____ _____    ______ ____
DOCKED: ROOT
DOCKED: ATOM      1  C   UNL     1      35.983  12.611 123.916 -0.57 -0.00    +0.000 C 
DOCKED: ENDROOT
DOCKED: BRANCH   1   2
DOCKED: ATOM      2  C   UNL     1      36.510  13.885 123.240 -0.54 -0.00    +0.000 C 
DOCKED: BRANCH   2   3
DOCKED: ATOM      3  C   UNL     1      37.875  13.636 122.583 -0.50 -0.00    +0.000 C 
DOCKED: BRANCH   3   4
DOCKED: ATOM      4  C   UNL     1      37.814  13.684 121.045 -0.43 -0.00    +0.000 C 
DOCKED: BRANCH   4   5
DOCKED: ATOM      5  C   UNL     1      38.300  12.401 120.350 -0.26 -0.00    +0.000 C 
DOCKED: BRANCH   5   7
DOCKED: ATOM      6  O   UNL     1      36.234  11.433 121.065 -0.32 -0.00    +0.000 OA
DOCKED: ATOM      7  C   UNL     1      37.400  11.231 120.629 -0.31 -0.00    +0.000 C 
DOCKED: ATOM      8  N   UNL     1      37.867   9.894 120.431 -0.33 -0.00    +0.000 N 
DOCKED: ATOM      9  H   UNL     1      38.780   9.741 120.096 -0.40 -0.00    +0.000 HD
DOCKED: BRANCH   8  10
DOCKED: ATOM     10  O   UNL     1      37.064   8.838 120.700 -2.60 -0.00    +0.000 OA
DOCKED: ATOM     11  H   UNL     1      36.484   9.054 121.446 -0.02 -0.00    +0.000 HD
DOCKED: ENDBRANCH   8  10
DOCKED: ENDBRANCH   5   7
DOCKED: ENDBRANCH   4   5
DOCKED: ENDBRANCH   3   4
DOCKED: ENDBRANCH   2   3
DOCKED: ENDBRANCH   1   2
DOCKED: BRANCH   1  12
DOCKED: ATOM     12  C   UNL     1      37.069  11.535 124.057 -0.56 -0.00    +0.000 C 
DOCKED: BRANCH  12  13
DOCKED: ATOM     13  C   UNL     1      36.636  10.236 123.446 -0.49 -0.00    +0.000 C 
DOCKED: ATOM     14  N   UNL     1      35.312  10.099 122.907 -0.59 -0.00    +0.000 N 
DOCKED: ATOM     15  O   UNL     1      37.442   9.266 123.421 -0.95 -0.00    +0.000 OA
DOCKED: ATOM     16  H   UNL     1      34.825  10.920 122.665 -0.11 -0.00    +0.000 HD
DOCKED: BRANCH  14  17
DOCKED: ATOM     17  C   UNL     1      34.652   8.838 122.698 -0.58 -0.00    +0.000 A 
DOCKED: ATOM     18  C   UNL     1      34.822   7.804 123.629 -0.54 -0.00    +0.000 A 
DOCKED: ATOM     19  C   UNL     1      34.214   6.565 123.421 -0.72 -0.00    +0.000 A 
DOCKED: ATOM     20  C   UNL     1      33.450   6.364 122.271 -0.61 -0.00    +0.000 A 
DOCKED: ATOM     21  N   UNL     1      33.313   7.364 121.361 -0.55 -0.00    +0.000 NA
DOCKED: ATOM     22  C   UNL     1      33.890   8.582 121.543 -0.58 -0.00    +0.000 A 
DOCKED: ATOM     23  CM  UNL     1      34.037   7.580 122.457 +0.00 -0.00    +0.000 AC
DOCKED: ENDBRANCH  14  17
DOCKED: ENDBRANCH  12  13
DOCKED: ENDBRANCH   1  12
DOCKED: TORSDOF 9DOCKED: TER
DOCKED: ENDMDL
________________________________________________________________________________


	BEGINNING GENETIC ALGORITHM DOCKING 47 of 100
Run: 47 Seed: 2012400215 1095582215 [ Run 47 of 100 GA/GALS ]
Beginning LAMARCKIAN GENETIC ALGORITHM (LGA), with a maximum of 2500000 energy evaluations.

Final-Value: -14.720


	FINAL GENETIC ALGORITHM DOCKED STATE
	_______________________________________________


Detailed state:  trans 36.696 15.223 122.100 quatxyzw 0.364807 0.789937 0.483233 0.096957 center -0.029 -0.207 0.469 ntor 9 5.7648 46.2766 -172.3368 7.9877 45.0039 59.4611 -94.0867 -118.6302 -126.4608
State:	 36.696  15.223 122.100   0.367  0.794  0.486 168.872      5.76   46.28 -172.34    7.99   45.00   59.46  -94.09 -118.63 -126.46

DOCKED: MODEL       47
DOCKED: USER    Run = 47
DOCKED: USER    DPF = ligand_dock.biased.dpf
DOCKED: USER  
DOCKED: USER    Estimated Free Energy of Binding    =  -10.48 kcal/mol  [=(1)+(2)+(3)-(4)]
DOCKED: USER    Estimated Inhibition Constant, Ki   =   20.66 nM (nanomolar)  [Temperature = 298.15 K]
DOCKED: USER    
DOCKED: USER    (1) Final Intermolecular Energy     =  -13.17 kcal/mol
DOCKED: USER        vdW + Hbond + desolv Energy     =  -13.17 kcal/mol
DOCKED: USER        Electrostatic Energy            =   +0.00 kcal/mol
DOCKED: USER    (2) Final Total Internal Energy     =   -1.55 kcal/mol
DOCKED: USER    (3) Torsional Free Energy           =   +2.68 kcal/mol
DOCKED: USER    (4) Unbound System's Energy  [=(2)] =   -1.55 kcal/mol
DOCKED: USER    
DOCKED: USER    
DOCKED: USER    NEWDPF move ligand.dum.pdbqt
DOCKED: USER    NEWDPF about -0.029000 -0.207000 0.469000
DOCKED: USER    NEWDPF tran0 36.695785 15.223059 122.099582
DOCKED: USER    NEWDPF quaternion0 0.364807 0.789937 0.483233 0.096957
DOCKED: USER    NEWDPF axisangle0 0.366534 0.793677 0.485521 168.872074
DOCKED: USER    NEWDPF quat0 0.366534 0.793677 0.485521 168.872074
DOCKED: USER    NEWDPF dihe0 5.76 46.28 -172.34 7.99 45.00 59.46 -94.09 -118.63 -126.46 
DOCKED: USER  keepresnum = 1 
DOCKED: USER  
DOCKED: REMARK  Name = 
DOCKED: REMARK  9 active torsions:
DOCKED: REMARK  status: ('A' for Active; 'I' for Inactive)
DOCKED: REMARK    1  A    between atoms: C_2  and  C_5
DOCKED: REMARK    2  A    between atoms: N_3  and  O_4
DOCKED: REMARK    3  A    between atoms: C_5  and  C_6
DOCKED: REMARK    4  A    between atoms: C_6  and  C_7
DOCKED: REMARK    5  A    between atoms: C_7  and  C_8
DOCKED: REMARK    6  A    between atoms: C_8  and  C_9
DOCKED: REMARK    7  A    between atoms: C_9  and  C_10
DOCKED: REMARK    8  A    between atoms: C_10  and  C_11
DOCKED: REMARK    9  A    between atoms: N_12  and  C_13
DOCKED: REMARK                            x       y       z     vdW  Elec       q    Type
DOCKED: REMARK                         _______ _______ _______ _____ _____    ______ ____
DOCKED: USER                              x       y       z     vdW  Elec       q    Type
DOCKED: USER                           _______ _______ _______ _____ _____    ______ ____
DOCKED: ROOT
DOCKED: ATOM      1  C   UNL     1      35.691  12.432 123.319 -0.51 -0.00    +0.000 C 
DOCKED: ENDROOT
DOCKED: BRANCH   1   2
DOCKED: ATOM      2  C   UNL     1      36.156  13.700 124.052 -0.45 -0.00    +0.000 C 
DOCKED: BRANCH   2   3
DOCKED: ATOM      3  C   UNL     1      36.155  14.912 123.110 -0.45 -0.00    +0.000 C 
DOCKED: BRANCH   3   4
DOCKED: ATOM      4  C   UNL     1      37.511  15.642 123.076 -0.36 -0.00    +0.000 C 
DOCKED: BRANCH   4   5
DOCKED: ATOM      5  C   UNL     1      38.270  15.511 121.745 -0.29 -0.00    +0.000 C 
DOCKED: BRANCH   5   7
DOCKED: ATOM      6  O   UNL     1      39.637  13.641 121.156 -0.62 -0.00    +0.000 OA
DOCKED: ATOM      7  C   UNL     1      39.504  14.666 121.878 -0.39 -0.00    +0.000 C 
DOCKED: ATOM      8  N   UNL     1      40.511  14.999 122.836 -0.42 -0.00    +0.000 N 
DOCKED: ATOM      9  H   UNL     1      40.401  15.797 123.403 -0.02 -0.00    +0.000 HD
DOCKED: BRANCH   8  10
DOCKED: ATOM     10  O   UNL     1      41.616  14.229 122.972 -1.00 -0.00    +0.000 OA
DOCKED: ATOM     11  H   UNL     1      41.617  13.542 122.287 -0.05 +0.00    +0.000 HD
DOCKED: ENDBRANCH   8  10
DOCKED: ENDBRANCH   5   7
DOCKED: ENDBRANCH   4   5
DOCKED: ENDBRANCH   3   4
DOCKED: ENDBRANCH   2   3
DOCKED: ENDBRANCH   1   2
DOCKED: BRANCH   1  12
DOCKED: ATOM     12  C   UNL     1      36.839  11.737 122.575 -0.64 -0.00    +0.000 C 
DOCKED: BRANCH  12  13
DOCKED: ATOM     13  C   UNL     1      36.476  10.331 122.198 -0.65 -0.00    +0.000 C 
DOCKED: ATOM     14  N   UNL     1      35.475   9.621 122.944 -0.60 -0.00    +0.000 N 
DOCKED: ATOM     15  O   UNL     1      37.066   9.778 121.229 -2.14 -0.00    +0.000 OA
DOCKED: ATOM     16  H   UNL     1      34.835  10.147 123.475 -0.42 -0.00    +0.000 HD
DOCKED: BRANCH  14  17
DOCKED: ATOM     17  C   UNL     1      35.349   8.188 122.965 -0.62 -0.00    +0.000 A 
DOCKED: ATOM     18  C   UNL     1      34.077   7.606 123.055 -0.65 -0.00    +0.000 A 
DOCKED: ATOM     19  C   UNL     1      33.942   6.218 123.109 -0.68 -0.00    +0.000 A 
DOCKED: ATOM     20  C   UNL     1      35.086   5.420 123.091 -0.51 -0.00    +0.000 A 
DOCKED: ATOM     21  N   UNL     1      36.316   5.994 123.031 -1.00 -0.00    +0.000 NA
DOCKED: ATOM     22  C   UNL     1      36.474   7.343 122.970 -0.70 -0.00    +0.000 A 
DOCKED: ATOM     23  CM  UNL     1      35.237   6.773 123.037 +0.00 -0.00    +0.000 AC
DOCKED: ENDBRANCH  14  17
DOCKED: ENDBRANCH  12  13
DOCKED: ENDBRANCH   1  12
DOCKED: TORSDOF 9DOCKED: TER
DOCKED: ENDMDL
________________________________________________________________________________


	BEGINNING GENETIC ALGORITHM DOCKING 48 of 100
Run: 48 Seed: 1169407836 1730318091 [ Run 48 of 100 GA/GALS ]
Beginning LAMARCKIAN GENETIC ALGORITHM (LGA), with a maximum of 2500000 energy evaluations.

Final-Value: -14.658


	FINAL GENETIC ALGORITHM DOCKED STATE
	_______________________________________________


Detailed state:  trans 34.340 13.224 123.703 quatxyzw 0.152865 0.641000 -0.039448 0.751129 center -0.029 -0.207 0.469 ntor 9 -30.5223 -156.3426 -9.2982 14.6487 -174.0441 31.4176 176.1859 -44.4794 -70.0365
State:	 34.340  13.224 123.703   0.232  0.971 -0.060 82.623    -30.52 -156.34   -9.30   14.65 -174.04   31.42  176.19  -44.48  -70.04

DOCKED: MODEL       48
DOCKED: USER    Run = 48
DOCKED: USER    DPF = ligand_dock.biased.dpf
DOCKED: USER  
DOCKED: USER    Estimated Free Energy of Binding    =  -10.61 kcal/mol  [=(1)+(2)+(3)-(4)]
DOCKED: USER    Estimated Inhibition Constant, Ki   =   16.64 nM (nanomolar)  [Temperature = 298.15 K]
DOCKED: USER    
DOCKED: USER    (1) Final Intermolecular Energy     =  -13.30 kcal/mol
DOCKED: USER        vdW + Hbond + desolv Energy     =  -13.30 kcal/mol
DOCKED: USER        Electrostatic Energy            =   +0.00 kcal/mol
DOCKED: USER    (2) Final Total Internal Energy     =   -1.36 kcal/mol
DOCKED: USER    (3) Torsional Free Energy           =   +2.68 kcal/mol
DOCKED: USER    (4) Unbound System's Energy  [=(2)] =   -1.36 kcal/mol
DOCKED: USER    
DOCKED: USER    
DOCKED: USER    NEWDPF move ligand.dum.pdbqt
DOCKED: USER    NEWDPF about -0.029000 -0.207000 0.469000
DOCKED: USER    NEWDPF tran0 34.340086 13.224315 123.703378
DOCKED: USER    NEWDPF quaternion0 0.152865 0.641000 -0.039448 0.751129
DOCKED: USER    NEWDPF axisangle0 0.231560 0.970984 -0.059755 82.623448
DOCKED: USER    NEWDPF quat0 0.231560 0.970984 -0.059755 82.623448
DOCKED: USER    NEWDPF dihe0 -30.52 -156.34 -9.30 14.65 -174.04 31.42 176.19 -44.48 -70.04 
DOCKED: USER  keepresnum = 1 
DOCKED: USER  
DOCKED: REMARK  Name = 
DOCKED: REMARK  9 active torsions:
DOCKED: REMARK  status: ('A' for Active; 'I' for Inactive)
DOCKED: REMARK    1  A    between atoms: C_2  and  C_5
DOCKED: REMARK    2  A    between atoms: N_3  and  O_4
DOCKED: REMARK    3  A    between atoms: C_5  and  C_6
DOCKED: REMARK    4  A    between atoms: C_6  and  C_7
DOCKED: REMARK    5  A    between atoms: C_7  and  C_8
DOCKED: REMARK    6  A    between atoms: C_8  and  C_9
DOCKED: REMARK    7  A    between atoms: C_9  and  C_10
DOCKED: REMARK    8  A    between atoms: C_10  and  C_11
DOCKED: REMARK    9  A    between atoms: N_12  and  C_13
DOCKED: REMARK                            x       y       z     vdW  Elec       q    Type
DOCKED: REMARK                         _______ _______ _______ _____ _____    ______ ____
DOCKED: USER                              x       y       z     vdW  Elec       q    Type
DOCKED: USER                           _______ _______ _______ _____ _____    ______ ____
DOCKED: ROOT
DOCKED: ATOM      1  C   UNL     1      37.337  12.112 123.438 -0.58 -0.00    +0.000 C 
DOCKED: ENDROOT
DOCKED: BRANCH   1   2
DOCKED: ATOM      2  C   UNL     1      36.854  13.515 123.833 -0.42 -0.00    +0.000 C 
DOCKED: BRANCH   2   3
DOCKED: ATOM      3  C   UNL     1      36.311  14.276 122.615 -0.34 -0.00    +0.000 C 
DOCKED: BRANCH   3   4
DOCKED: ATOM      4  C   UNL     1      36.408  15.804 122.774 -0.36 -0.00    +0.000 C 
DOCKED: BRANCH   4   5
DOCKED: ATOM      5  C   UNL     1      35.060  16.505 123.005 -0.40 -0.00    +0.000 C 
DOCKED: BRANCH   5   7
DOCKED: ATOM      6  O   UNL     1      33.633  14.831 123.941 -0.68 -0.00    +0.000 OA
DOCKED: ATOM      7  C   UNL     1      34.289  15.890 124.138 -0.56 -0.00    +0.000 C 
DOCKED: ATOM      8  N   UNL     1      34.270  16.512 125.425 -0.46 -0.00    +0.000 N 
DOCKED: ATOM      9  H   UNL     1      34.779  17.342 125.573 -0.01 -0.00    +0.000 HD
DOCKED: BRANCH   8  10
DOCKED: ATOM     10  O   UNL     1      33.561  15.969 126.442 -1.06 -0.00    +0.000 OA
DOCKED: ATOM     11  H   UNL     1      32.788  15.506 126.086 -0.22 -0.00    +0.000 HD
DOCKED: ENDBRANCH   8  10
DOCKED: ENDBRANCH   5   7
DOCKED: ENDBRANCH   4   5
DOCKED: ENDBRANCH   3   4
DOCKED: ENDBRANCH   2   3
DOCKED: ENDBRANCH   1   2
DOCKED: BRANCH   1  12
DOCKED: ATOM     12  C   UNL     1      37.046  11.791 121.965 -0.58 -0.00    +0.000 C 
DOCKED: BRANCH  12  13
DOCKED: ATOM     13  C   UNL     1      36.581  10.375 121.794 -0.45 -0.00    +0.000 C 
DOCKED: ATOM     14  N   UNL     1      35.527   9.858 122.621 -0.60 -0.00    +0.000 N 
DOCKED: ATOM     15  O   UNL     1      37.132   9.644 120.926 -2.29 -0.00    +0.000 OA
DOCKED: ATOM     16  H   UNL     1      34.926  10.503 123.059 -0.23 -0.00    +0.000 HD
DOCKED: BRANCH  14  17
DOCKED: ATOM     17  C   UNL     1      35.294   8.457 122.851 -0.61 -0.00    +0.000 A 
DOCKED: ATOM     18  C   UNL     1      33.981   7.967 122.866 -0.63 -0.00    +0.000 A 
DOCKED: ATOM     19  C   UNL     1      33.739   6.616 123.120 -0.71 -0.00    +0.000 A 
DOCKED: ATOM     20  C   UNL     1      34.815   5.766 123.376 -0.56 -0.00    +0.000 A 
DOCKED: ATOM     21  N   UNL     1      36.083   6.256 123.385 -0.85 -0.00    +0.000 NA
DOCKED: ATOM     22  C   UNL     1      36.345   7.567 123.134 -0.69 -0.00    +0.000 A 
DOCKED: ATOM     23  CM  UNL     1      35.071   7.082 123.129 +0.00 -0.00    +0.000 AC
DOCKED: ENDBRANCH  14  17
DOCKED: ENDBRANCH  12  13
DOCKED: ENDBRANCH   1  12
DOCKED: TORSDOF 9DOCKED: TER
DOCKED: ENDMDL
________________________________________________________________________________


	BEGINNING GENETIC ALGORITHM DOCKING 49 of 100
Run: 49 Seed: 2054174665 1938068926 [ Run 49 of 100 GA/GALS ]
Beginning LAMARCKIAN GENETIC ALGORITHM (LGA), with a maximum of 2500000 energy evaluations.

Final-Value: -13.552


	FINAL GENETIC ALGORITHM DOCKED STATE
	_______________________________________________


Detailed state:  trans 37.344 15.131 122.090 quatxyzw 0.616304 0.535116 0.422442 0.394162 center -0.029 -0.207 0.469 ntor 9 1.9051 -158.1544 -163.9246 12.8730 -50.6874 -72.8090 -151.4952 -46.7794 -168.7872
State:	 37.344  15.131 122.090   0.671  0.582  0.460 133.573      1.91 -158.15 -163.92   12.87  -50.69  -72.81 -151.50  -46.78 -168.79

DOCKED: MODEL       49
DOCKED: USER    Run = 49
DOCKED: USER    DPF = ligand_dock.biased.dpf
DOCKED: USER  
DOCKED: USER    Estimated Free Energy of Binding    =   -9.21 kcal/mol  [=(1)+(2)+(3)-(4)]
DOCKED: USER    Estimated Inhibition Constant, Ki   =  176.44 nM (nanomolar)  [Temperature = 298.15 K]
DOCKED: USER    
DOCKED: USER    (1) Final Intermolecular Energy     =  -11.90 kcal/mol
DOCKED: USER        vdW + Hbond + desolv Energy     =  -11.90 kcal/mol
DOCKED: USER        Electrostatic Energy            =   +0.00 kcal/mol
DOCKED: USER    (2) Final Total Internal Energy     =   -1.65 kcal/mol
DOCKED: USER    (3) Torsional Free Energy           =   +2.68 kcal/mol
DOCKED: USER    (4) Unbound System's Energy  [=(2)] =   -1.65 kcal/mol
DOCKED: USER    
DOCKED: USER    
DOCKED: USER    NEWDPF move ligand.dum.pdbqt
DOCKED: USER    NEWDPF about -0.029000 -0.207000 0.469000
DOCKED: USER    NEWDPF tran0 37.344000 15.131094 122.089648
DOCKED: USER    NEWDPF quaternion0 0.616304 0.535116 0.422442 0.394162
DOCKED: USER    NEWDPF axisangle0 0.670594 0.582254 0.459656 133.572573
DOCKED: USER    NEWDPF quat0 0.670594 0.582254 0.459656 133.572573
DOCKED: USER    NEWDPF dihe0 1.91 -158.15 -163.92 12.87 -50.69 -72.81 -151.50 -46.78 -168.79 
DOCKED: USER  keepresnum = 1 
DOCKED: USER  
DOCKED: REMARK  Name = 
DOCKED: REMARK  9 active torsions:
DOCKED: REMARK  status: ('A' for Active; 'I' for Inactive)
DOCKED: REMARK    1  A    between atoms: C_2  and  C_5
DOCKED: REMARK    2  A    between atoms: N_3  and  O_4
DOCKED: REMARK    3  A    between atoms: C_5  and  C_6
DOCKED: REMARK    4  A    between atoms: C_6  and  C_7
DOCKED: REMARK    5  A    between atoms: C_7  and  C_8
DOCKED: REMARK    6  A    between atoms: C_8  and  C_9
DOCKED: REMARK    7  A    between atoms: C_9  and  C_10
DOCKED: REMARK    8  A    between atoms: C_10  and  C_11
DOCKED: REMARK    9  A    between atoms: N_12  and  C_13
DOCKED: REMARK                            x       y       z     vdW  Elec       q    Type
DOCKED: REMARK                         _______ _______ _______ _____ _____    ______ ____
DOCKED: USER                              x       y       z     vdW  Elec       q    Type
DOCKED: USER                           _______ _______ _______ _____ _____    ______ ____
DOCKED: ROOT
DOCKED: ATOM      1  C   UNL     1      36.462  12.234 123.147 -0.67 -0.00    +0.000 C 
DOCKED: ENDROOT
DOCKED: BRANCH   1   2
DOCKED: ATOM      2  C   UNL     1      37.733  13.037 123.463 -0.48 -0.00    +0.000 C 
DOCKED: BRANCH   2   3
DOCKED: ATOM      3  C   UNL     1      38.276  13.728 122.204 -0.44 -0.00    +0.000 C 
DOCKED: BRANCH   3   4
DOCKED: ATOM      4  C   UNL     1      37.923  15.226 122.147 -0.34 -0.00    +0.000 C 
DOCKED: BRANCH   4   5
DOCKED: ATOM      5  C   UNL     1      37.448  15.818 123.485 -0.33 -0.00    +0.000 C 
DOCKED: BRANCH   5   7
DOCKED: ATOM      6  O   UNL     1      35.429  17.004 123.002 -0.33 -0.00    +0.000 OA
DOCKED: ATOM      7  C   UNL     1      35.956  15.987 123.530 -0.42 -0.00    +0.000 C 
DOCKED: ATOM      8  N   UNL     1      35.136  15.021 124.192 -0.55 -0.00    +0.000 N 
DOCKED: ATOM      9  H   UNL     1      35.552  14.232 124.608 -0.05 -0.00    +0.000 HD
DOCKED: BRANCH   8  10
DOCKED: ATOM     10  O   UNL     1      33.793  15.181 124.250 -0.69 -0.00    +0.000 OA
DOCKED: ATOM     11  H   UNL     1      33.542  15.986 123.771 -0.03 -0.00    +0.000 HD
DOCKED: ENDBRANCH   8  10
DOCKED: ENDBRANCH   5   7
DOCKED: ENDBRANCH   4   5
DOCKED: ENDBRANCH   3   4
DOCKED: ENDBRANCH   2   3
DOCKED: ENDBRANCH   1   2
DOCKED: BRANCH   1  12
DOCKED: ATOM     12  C   UNL     1      36.425  11.755 121.689 -0.54 -0.00    +0.000 C 
DOCKED: BRANCH  12  13
DOCKED: ATOM     13  C   UNL     1      36.320  10.261 121.605 +0.12 -0.00    +0.000 C 
DOCKED: ATOM     14  N   UNL     1      35.357   9.561 122.407 -0.59 -0.00    +0.000 N 
DOCKED: ATOM     15  O   UNL     1      37.091   9.629 120.832 -2.33 -0.00    +0.000 OA
DOCKED: ATOM     16  H   UNL     1      34.589  10.069 122.757 -0.24 -0.00    +0.000 HD
DOCKED: BRANCH  14  17
DOCKED: ATOM     17  C   UNL     1      35.442   8.163 122.735 -0.63 -0.00    +0.000 A 
DOCKED: ATOM     18  C   UNL     1      34.278   7.382 122.748 -0.65 -0.00    +0.000 A 
DOCKED: ATOM     19  C   UNL     1      34.342   6.032 123.096 -0.64 -0.00    +0.000 A 
DOCKED: ATOM     20  C   UNL     1      35.573   5.475 123.446 -0.48 -0.00    +0.000 A 
DOCKED: ATOM     21  N   UNL     1      36.691   6.246 123.455 -0.86 -0.00    +0.000 NA
DOCKED: ATOM     22  C   UNL     1      36.656   7.562 123.114 -0.70 -0.00    +0.000 A 
DOCKED: ATOM     23  CM  UNL     1      35.529   6.795 123.109 +0.00 -0.00    +0.000 AC
DOCKED: ENDBRANCH  14  17
DOCKED: ENDBRANCH  12  13
DOCKED: ENDBRANCH   1  12
DOCKED: TORSDOF 9DOCKED: TER
DOCKED: ENDMDL
________________________________________________________________________________


	BEGINNING GENETIC ALGORITHM DOCKING 50 of 100
Run: 50 Seed: 1113368287 1570807874 [ Run 50 of 100 GA/GALS ]
Beginning LAMARCKIAN GENETIC ALGORITHM (LGA), with a maximum of 2500000 energy evaluations.

Final-Value: -14.741


	FINAL GENETIC ALGORITHM DOCKED STATE
	_______________________________________________


Detailed state:  trans 38.153 12.056 121.862 quatxyzw 0.737709 0.469120 -0.036364 -0.484138 center -0.029 -0.207 0.469 ntor 9 -0.1431 124.4146 46.4368 -57.1391 122.8379 153.3203 -65.2633 161.7781 26.1354
State:	 38.153  12.056 121.862   0.843  0.536 -0.042 -122.088     -0.14  124.41   46.44  -57.14  122.84  153.32  -65.26  161.78   26.14

DOCKED: MODEL       50
DOCKED: USER    Run = 50
DOCKED: USER    DPF = ligand_dock.biased.dpf
DOCKED: USER  
DOCKED: USER    Estimated Free Energy of Binding    =   -9.98 kcal/mol  [=(1)+(2)+(3)-(4)]
DOCKED: USER    Estimated Inhibition Constant, Ki   =   48.03 nM (nanomolar)  [Temperature = 298.15 K]
DOCKED: USER    
DOCKED: USER    (1) Final Intermolecular Energy     =  -12.67 kcal/mol
DOCKED: USER        vdW + Hbond + desolv Energy     =  -12.67 kcal/mol
DOCKED: USER        Electrostatic Energy            =   +0.00 kcal/mol
DOCKED: USER    (2) Final Total Internal Energy     =   -2.07 kcal/mol
DOCKED: USER    (3) Torsional Free Energy           =   +2.68 kcal/mol
DOCKED: USER    (4) Unbound System's Energy  [=(2)] =   -2.07 kcal/mol
DOCKED: USER    
DOCKED: USER    
DOCKED: USER    NEWDPF move ligand.dum.pdbqt
DOCKED: USER    NEWDPF about -0.029000 -0.207000 0.469000
DOCKED: USER    NEWDPF tran0 38.153421 12.056192 121.862327
DOCKED: USER    NEWDPF quaternion0 0.737709 0.469120 -0.036364 -0.484138
DOCKED: USER    NEWDPF axisangle0 0.843104 0.536142 -0.041559 -122.088011
DOCKED: USER    NEWDPF quat0 0.843104 0.536142 -0.041559 -122.088011
DOCKED: USER    NEWDPF dihe0 -0.14 124.41 46.44 -57.14 122.84 153.32 -65.26 161.78 26.14 
DOCKED: USER  keepresnum = 1 
DOCKED: USER  
DOCKED: REMARK  Name = 
DOCKED: REMARK  9 active torsions:
DOCKED: REMARK  status: ('A' for Active; 'I' for Inactive)
DOCKED: REMARK    1  A    between atoms: C_2  and  C_5
DOCKED: REMARK    2  A    between atoms: N_3  and  O_4
DOCKED: REMARK    3  A    between atoms: C_5  and  C_6
DOCKED: REMARK    4  A    between atoms: C_6  and  C_7
DOCKED: REMARK    5  A    between atoms: C_7  and  C_8
DOCKED: REMARK    6  A    between atoms: C_8  and  C_9
DOCKED: REMARK    7  A    between atoms: C_9  and  C_10
DOCKED: REMARK    8  A    between atoms: C_10  and  C_11
DOCKED: REMARK    9  A    between atoms: N_12  and  C_13
DOCKED: REMARK                            x       y       z     vdW  Elec       q    Type
DOCKED: REMARK                         _______ _______ _______ _____ _____    ______ ____
DOCKED: USER                              x       y       z     vdW  Elec       q    Type
DOCKED: USER                           _______ _______ _______ _____ _____    ______ ____
DOCKED: ROOT
DOCKED: ATOM      1  C   UNL     1      36.466  14.463 123.147 -0.49 -0.00    +0.000 C 
DOCKED: ENDROOT
DOCKED: BRANCH   1   2
DOCKED: ATOM      2  C   UNL     1      37.980  14.205 123.195 -0.42 -0.00    +0.000 C 
DOCKED: BRANCH   2   3
DOCKED: ATOM      3  C   UNL     1      38.517  13.817 121.810 -0.39 -0.00    +0.000 C 
DOCKED: BRANCH   3   4
DOCKED: ATOM      4  C   UNL     1      37.490  13.033 120.971 -0.49 -0.00    +0.000 C 
DOCKED: BRANCH   4   5
DOCKED: ATOM      5  C   UNL     1      38.056  12.436 119.671 -0.23 -0.00    +0.000 C 
DOCKED: BRANCH   5   7
DOCKED: ATOM      6  O   UNL     1      38.979  10.349 118.959 -0.36 -0.00    +0.000 OA
DOCKED: ATOM      7  C   UNL     1      38.196  10.943 119.749 +0.17 -0.00    +0.000 C 
DOCKED: ATOM      8  N   UNL     1      37.426  10.190 120.690 -0.38 -0.00    +0.000 N 
DOCKED: ATOM      9  H   UNL     1      36.811  10.657 121.302 -0.02 -0.00    +0.000 HD
DOCKED: BRANCH   8  10
DOCKED: ATOM     10  O   UNL     1      37.536   8.842 120.749 -2.19 -0.00    +0.000 OA
DOCKED: ATOM     11  H   UNL     1      38.175   8.541 120.085 -0.51 -0.00    +0.000 HD
DOCKED: ENDBRANCH   8  10
DOCKED: ENDBRANCH   5   7
DOCKED: ENDBRANCH   4   5
DOCKED: ENDBRANCH   3   4
DOCKED: ENDBRANCH   2   3
DOCKED: ENDBRANCH   1   2
DOCKED: BRANCH   1  12
DOCKED: ATOM     12  C   UNL     1      35.674  13.425 123.955 -0.41 -0.00    +0.000 C 
DOCKED: BRANCH  12  13
DOCKED: ATOM     13  C   UNL     1      36.187  12.036 123.715 -0.69 -0.00    +0.000 C 
DOCKED: ATOM     14  N   UNL     1      35.455  11.133 122.873 -0.59 -0.00    +0.000 N 
DOCKED: ATOM     15  O   UNL     1      37.259  11.669 124.268 -0.71 -0.00    +0.000 OA
DOCKED: ATOM     16  H   UNL     1      34.814  11.517 122.231 -0.03 -0.00    +0.000 HD
DOCKED: BRANCH  14  17
DOCKED: ATOM     17  C   UNL     1      35.597   9.702 122.907 -0.58 -0.00    +0.000 A 
DOCKED: ATOM     18  C   UNL     1      34.499   8.889 122.593 -0.57 -0.00    +0.000 A 
DOCKED: ATOM     19  C   UNL     1      34.613   7.499 122.654 -0.63 -0.00    +0.000 A 
DOCKED: ATOM     20  C   UNL     1      35.826   6.931 123.048 -0.69 -0.00    +0.000 A 
DOCKED: ATOM     21  N   UNL     1      36.876   7.728 123.377 -2.10 -0.00    +0.000 NA
DOCKED: ATOM     22  C   UNL     1      36.792   9.084 123.319 -0.36 -0.00    +0.000 A 
DOCKED: ATOM     23  CM  UNL     1      35.732   8.290 122.994 +0.00 -0.00    +0.000 AC
DOCKED: ENDBRANCH  14  17
DOCKED: ENDBRANCH  12  13
DOCKED: ENDBRANCH   1  12
DOCKED: TORSDOF 9DOCKED: TER
DOCKED: ENDMDL
________________________________________________________________________________


	BEGINNING GENETIC ALGORITHM DOCKING 51 of 100
Run: 51 Seed: 1316196439 786444522 [ Run 51 of 100 GA/GALS ]
Beginning LAMARCKIAN GENETIC ALGORITHM (LGA), with a maximum of 2500000 energy evaluations.

Final-Value: -13.638


	FINAL GENETIC ALGORITHM DOCKED STATE
	_______________________________________________


Detailed state:  trans 39.077 14.587 122.888 quatxyzw -0.059169 0.503752 0.485268 -0.712213 center -0.029 -0.207 0.469 ntor 9 -0.7793 -160.3712 -25.7586 -163.0713 174.1064 102.8638 -170.9139 139.9392 -154.4926
State:	 39.077  14.587 122.888  -0.084  0.718  0.691 -89.169     -0.78 -160.37  -25.76 -163.07  174.11  102.86 -170.91  139.94 -154.49

DOCKED: MODEL       51
DOCKED: USER    Run = 51
DOCKED: USER    DPF = ligand_dock.biased.dpf
DOCKED: USER  
DOCKED: USER    Estimated Free Energy of Binding    =   -9.51 kcal/mol  [=(1)+(2)+(3)-(4)]
DOCKED: USER    Estimated Inhibition Constant, Ki   =  106.08 nM (nanomolar)  [Temperature = 298.15 K]
DOCKED: USER    
DOCKED: USER    (1) Final Intermolecular Energy     =  -12.20 kcal/mol
DOCKED: USER        vdW + Hbond + desolv Energy     =  -12.20 kcal/mol
DOCKED: USER        Electrostatic Energy            =   +0.00 kcal/mol
DOCKED: USER    (2) Final Total Internal Energy     =   -1.44 kcal/mol
DOCKED: USER    (3) Torsional Free Energy           =   +2.68 kcal/mol
DOCKED: USER    (4) Unbound System's Energy  [=(2)] =   -1.44 kcal/mol
DOCKED: USER    
DOCKED: USER    
DOCKED: USER    NEWDPF move ligand.dum.pdbqt
DOCKED: USER    NEWDPF about -0.029000 -0.207000 0.469000
DOCKED: USER    NEWDPF tran0 39.076819 14.587137 122.887515
DOCKED: USER    NEWDPF quaternion0 -0.059169 0.503752 0.485268 -0.712213
DOCKED: USER    NEWDPF axisangle0 -0.084291 0.717633 0.691302 -89.169454
DOCKED: USER    NEWDPF quat0 -0.084291 0.717633 0.691302 -89.169454
DOCKED: USER    NEWDPF dihe0 -0.78 -160.37 -25.76 -163.07 174.11 102.86 -170.91 139.94 -154.49 
DOCKED: USER  keepresnum = 1 
DOCKED: USER  
DOCKED: REMARK  Name = 
DOCKED: REMARK  9 active torsions:
DOCKED: REMARK  status: ('A' for Active; 'I' for Inactive)
DOCKED: REMARK    1  A    between atoms: C_2  and  C_5
DOCKED: REMARK    2  A    between atoms: N_3  and  O_4
DOCKED: REMARK    3  A    between atoms: C_5  and  C_6
DOCKED: REMARK    4  A    between atoms: C_6  and  C_7
DOCKED: REMARK    5  A    between atoms: C_7  and  C_8
DOCKED: REMARK    6  A    between atoms: C_8  and  C_9
DOCKED: REMARK    7  A    between atoms: C_9  and  C_10
DOCKED: REMARK    8  A    between atoms: C_10  and  C_11
DOCKED: REMARK    9  A    between atoms: N_12  and  C_13
DOCKED: REMARK                            x       y       z     vdW  Elec       q    Type
DOCKED: REMARK                         _______ _______ _______ _____ _____    ______ ____
DOCKED: USER                              x       y       z     vdW  Elec       q    Type
DOCKED: USER                           _______ _______ _______ _____ _____    ______ ____
DOCKED: ROOT
DOCKED: ATOM      1  C   UNL     1      37.423  12.471 121.133 -0.53 -0.00    +0.000 C 
DOCKED: ENDROOT
DOCKED: BRANCH   1   2
DOCKED: ATOM      2  C   UNL     1      37.080  13.930 121.473 -0.38 -0.00    +0.000 C 
DOCKED: BRANCH   2   3
DOCKED: ATOM      3  C   UNL     1      36.959  14.128 122.990 -0.51 -0.00    +0.000 C 
DOCKED: BRANCH   3   4
DOCKED: ATOM      4  C   UNL     1      35.577  13.725 123.537 -0.50 -0.00    +0.000 C 
DOCKED: BRANCH   4   5
DOCKED: ATOM      5  C   UNL     1      34.807  14.866 124.221 -0.53 -0.00    +0.000 C 
DOCKED: BRANCH   5   7
DOCKED: ATOM      6  O   UNL     1      36.056  16.871 123.854 -0.33 -0.00    +0.000 OA
DOCKED: ATOM      7  C   UNL     1      35.041  16.189 123.549 -0.48 -0.00    +0.000 C 
DOCKED: ATOM      8  N   UNL     1      34.106  16.691 122.591 -0.38 -0.00    +0.000 N 
DOCKED: ATOM      9  H   UNL     1      33.311  16.158 122.360 -0.04 -0.00    +0.000 HD
DOCKED: BRANCH   8  10
DOCKED: ATOM     10  O   UNL     1      34.304  17.891 121.998 -0.42 -0.00    +0.000 OA
DOCKED: ATOM     11  H   UNL     1      35.118  18.291 122.341 -0.01 -0.00    +0.000 HD
DOCKED: ENDBRANCH   8  10
DOCKED: ENDBRANCH   5   7
DOCKED: ENDBRANCH   4   5
DOCKED: ENDBRANCH   3   4
DOCKED: ENDBRANCH   2   3
DOCKED: ENDBRANCH   1   2
DOCKED: BRANCH   1  12
DOCKED: ATOM     12  C   UNL     1      37.361  11.557 122.364 -0.37 -0.00    +0.000 C 
DOCKED: BRANCH  12  13
DOCKED: ATOM     13  C   UNL     1      36.660  10.267 122.053 -0.64 -0.00    +0.000 C 
DOCKED: ATOM     14  N   UNL     1      35.547   9.841 122.854 -0.61 -0.00    +0.000 N 
DOCKED: ATOM     15  O   UNL     1      37.066   9.560 121.091 -2.44 -0.00    +0.000 OA
DOCKED: ATOM     16  H   UNL     1      35.070  10.521 123.382 -0.26 -0.00    +0.000 HD
DOCKED: BRANCH  14  17
DOCKED: ATOM     17  C   UNL     1      35.085   8.481 122.935 -0.60 -0.00    +0.000 A 
DOCKED: ATOM     18  C   UNL     1      36.015   7.439 123.055 -0.69 -0.00    +0.000 A 
DOCKED: ATOM     19  C   UNL     1      35.581   6.113 123.101 -0.66 -0.00    +0.000 A 
DOCKED: ATOM     20  C   UNL     1      34.216   5.837 123.009 -0.56 -0.00    +0.000 A 
DOCKED: ATOM     21  N   UNL     1      33.325   6.853 122.867 -0.68 -0.00    +0.000 NA
DOCKED: ATOM     22  C   UNL     1      33.721   8.153 122.825 -0.60 -0.00    +0.000 A 
DOCKED: ATOM     23  CM  UNL     1      34.621   7.138 122.963 +0.00 -0.00    +0.000 AC
DOCKED: ENDBRANCH  14  17
DOCKED: ENDBRANCH  12  13
DOCKED: ENDBRANCH   1  12
DOCKED: TORSDOF 9DOCKED: TER
DOCKED: ENDMDL
________________________________________________________________________________


	BEGINNING GENETIC ALGORITHM DOCKING 52 of 100
Run: 52 Seed: 1183078509 126067301 [ Run 52 of 100 GA/GALS ]
Beginning LAMARCKIAN GENETIC ALGORITHM (LGA), with a maximum of 2500000 energy evaluations.

Final-Value: -13.721


	FINAL GENETIC ALGORITHM DOCKED STATE
	_______________________________________________


Detailed state:  trans 37.212 12.716 119.643 quatxyzw 0.508106 0.859010 0.026908 -0.056622 center -0.029 -0.207 0.469 ntor 9 10.3130 -159.9184 -179.7757 88.6838 162.8648 -48.2108 -126.6863 -158.2539 -57.3658
State:	 37.212  12.716 119.643   0.509  0.860  0.027 -173.508     10.31 -159.92 -179.78   88.68  162.86  -48.21 -126.69 -158.25  -57.37

DOCKED: MODEL       52
DOCKED: USER    Run = 52
DOCKED: USER    DPF = ligand_dock.biased.dpf
DOCKED: USER  
DOCKED: USER    Estimated Free Energy of Binding    =   -9.65 kcal/mol  [=(1)+(2)+(3)-(4)]
DOCKED: USER    Estimated Inhibition Constant, Ki   =   83.87 nM (nanomolar)  [Temperature = 298.15 K]
DOCKED: USER    
DOCKED: USER    (1) Final Intermolecular Energy     =  -12.34 kcal/mol
DOCKED: USER        vdW + Hbond + desolv Energy     =  -12.34 kcal/mol
DOCKED: USER        Electrostatic Energy            =   +0.00 kcal/mol
DOCKED: USER    (2) Final Total Internal Energy     =   -1.38 kcal/mol
DOCKED: USER    (3) Torsional Free Energy           =   +2.68 kcal/mol
DOCKED: USER    (4) Unbound System's Energy  [=(2)] =   -1.38 kcal/mol
DOCKED: USER    
DOCKED: USER    
DOCKED: USER    NEWDPF move ligand.dum.pdbqt
DOCKED: USER    NEWDPF about -0.029000 -0.207000 0.469000
DOCKED: USER    NEWDPF tran0 37.211506 12.716095 119.642846
DOCKED: USER    NEWDPF quaternion0 0.508106 0.859010 0.026908 -0.056622
DOCKED: USER    NEWDPF axisangle0 0.508923 0.860390 0.026952 -173.508121
DOCKED: USER    NEWDPF quat0 0.508923 0.860390 0.026952 -173.508121
DOCKED: USER    NEWDPF dihe0 10.31 -159.92 -179.78 88.68 162.86 -48.21 -126.69 -158.25 -57.37 
DOCKED: USER  keepresnum = 1 
DOCKED: USER  
DOCKED: REMARK  Name = 
DOCKED: REMARK  9 active torsions:
DOCKED: REMARK  status: ('A' for Active; 'I' for Inactive)
DOCKED: REMARK    1  A    between atoms: C_2  and  C_5
DOCKED: REMARK    2  A    between atoms: N_3  and  O_4
DOCKED: REMARK    3  A    between atoms: C_5  and  C_6
DOCKED: REMARK    4  A    between atoms: C_6  and  C_7
DOCKED: REMARK    5  A    between atoms: C_7  and  C_8
DOCKED: REMARK    6  A    between atoms: C_8  and  C_9
DOCKED: REMARK    7  A    between atoms: C_9  and  C_10
DOCKED: REMARK    8  A    between atoms: C_10  and  C_11
DOCKED: REMARK    9  A    between atoms: N_12  and  C_13
DOCKED: REMARK                            x       y       z     vdW  Elec       q    Type
DOCKED: REMARK                         _______ _______ _______ _____ _____    ______ ____
DOCKED: USER                              x       y       z     vdW  Elec       q    Type
DOCKED: USER                           _______ _______ _______ _____ _____    ______ ____
DOCKED: ROOT
DOCKED: ATOM      1  C   UNL     1      36.325  12.465 122.715 -0.61 -0.00    +0.000 C 
DOCKED: ENDROOT
DOCKED: BRANCH   1   2
DOCKED: ATOM      2  C   UNL     1      37.118  13.584 122.022 -0.47 -0.00    +0.000 C 
DOCKED: BRANCH   2   3
DOCKED: ATOM      3  C   UNL     1      37.653  13.118 120.660 -0.48 -0.00    +0.000 C 
DOCKED: BRANCH   3   4
DOCKED: ATOM      4  C   UNL     1      37.249  14.058 119.509 -0.36 -0.00    +0.000 C 
DOCKED: BRANCH   4   5
DOCKED: ATOM      5  C   UNL     1      36.649  13.343 118.287 -0.39 -0.00    +0.000 C 
DOCKED: BRANCH   5   7
DOCKED: ATOM      6  O   UNL     1      37.316  14.590 116.360 -0.26 -0.00    +0.000 OA
DOCKED: ATOM      7  C   UNL     1      37.475  13.547 117.050 -0.41 -0.00    +0.000 C 
DOCKED: ATOM      8  N   UNL     1      38.417  12.554 116.635 -0.33 -0.00    +0.000 N 
DOCKED: ATOM      9  H   UNL     1      38.534  11.738 117.173 -0.11 -0.00    +0.000 HD
DOCKED: BRANCH   8  10
DOCKED: ATOM     10  O   UNL     1      39.149  12.726 115.510 -0.67 -0.00    +0.000 OA
DOCKED: ATOM     11  H   UNL     1      39.040  13.635 115.189 -0.03 -0.00    +0.000 HD
DOCKED: ENDBRANCH   8  10
DOCKED: ENDBRANCH   5   7
DOCKED: ENDBRANCH   4   5
DOCKED: ENDBRANCH   3   4
DOCKED: ENDBRANCH   2   3
DOCKED: ENDBRANCH   1   2
DOCKED: BRANCH   1  12
DOCKED: ATOM     12  C   UNL     1      37.120  11.155 122.798 -0.56 -0.00    +0.000 C 
DOCKED: BRANCH  12  13
DOCKED: ATOM     13  C   UNL     1      36.341  10.005 122.232 -0.66 -0.00    +0.000 C 
DOCKED: ATOM     14  N   UNL     1      35.118   9.585 122.858 -0.59 -0.00    +0.000 N 
DOCKED: ATOM     15  O   UNL     1      36.776   9.407 121.210 -2.49 -0.00    +0.000 OA
DOCKED: ATOM     16  H   UNL     1      34.654  10.228 123.442 -0.42 -0.00    +0.000 HD
DOCKED: BRANCH  14  17
DOCKED: ATOM     17  C   UNL     1      34.529   8.284 122.687 -0.62 -0.00    +0.000 A 
DOCKED: ATOM     18  C   UNL     1      34.061   7.897 121.424 -0.57 -0.00    +0.000 A 
DOCKED: ATOM     19  C   UNL     1      33.457   6.650 121.251 -0.41 -0.00    +0.000 A 
DOCKED: ATOM     20  C   UNL     1      33.309   5.805 122.351 -0.60 -0.00    +0.000 A 
DOCKED: ATOM     21  N   UNL     1      33.742   6.201 123.577 -0.73 -0.00    +0.000 NA
DOCKED: ATOM     22  C   UNL     1      34.339   7.407 123.770 -0.58 -0.00    +0.000 A 
DOCKED: ATOM     23  CM  UNL     1      33.902   7.018 122.539 +0.00 -0.00    +0.000 AC
DOCKED: ENDBRANCH  14  17
DOCKED: ENDBRANCH  12  13
DOCKED: ENDBRANCH   1  12
DOCKED: TORSDOF 9DOCKED: TER
DOCKED: ENDMDL
________________________________________________________________________________


	BEGINNING GENETIC ALGORITHM DOCKING 53 of 100
Run: 53 Seed: 1787504139 874721170 [ Run 53 of 100 GA/GALS ]
Beginning LAMARCKIAN GENETIC ALGORITHM (LGA), with a maximum of 2500000 energy evaluations.

Final-Value: -14.436


	FINAL GENETIC ALGORITHM DOCKED STATE
	_______________________________________________


Detailed state:  trans 33.980 13.955 122.701 quatxyzw -0.262519 -0.752762 -0.083294 -0.597909 center -0.029 -0.207 0.469 ntor 9 -16.3003 -177.8306 -170.9141 -5.2465 -13.6872 -15.9642 167.4137 -52.7408 -91.3289
State:	 33.980  13.955 122.701  -0.328 -0.939 -0.104 -106.559    -16.30 -177.83 -170.91   -5.25  -13.69  -15.96  167.41  -52.74  -91.33

DOCKED: MODEL       53
DOCKED: USER    Run = 53
DOCKED: USER    DPF = ligand_dock.biased.dpf
DOCKED: USER  
DOCKED: USER    Estimated Free Energy of Binding    =  -10.40 kcal/mol  [=(1)+(2)+(3)-(4)]
DOCKED: USER    Estimated Inhibition Constant, Ki   =   23.79 nM (nanomolar)  [Temperature = 298.15 K]
DOCKED: USER    
DOCKED: USER    (1) Final Intermolecular Energy     =  -13.09 kcal/mol
DOCKED: USER        vdW + Hbond + desolv Energy     =  -13.09 kcal/mol
DOCKED: USER        Electrostatic Energy            =   +0.00 kcal/mol
DOCKED: USER    (2) Final Total Internal Energy     =   -1.35 kcal/mol
DOCKED: USER    (3) Torsional Free Energy           =   +2.68 kcal/mol
DOCKED: USER    (4) Unbound System's Energy  [=(2)] =   -1.35 kcal/mol
DOCKED: USER    
DOCKED: USER    
DOCKED: USER    NEWDPF move ligand.dum.pdbqt
DOCKED: USER    NEWDPF about -0.029000 -0.207000 0.469000
DOCKED: USER    NEWDPF tran0 33.979930 13.954716 122.700518
DOCKED: USER    NEWDPF quaternion0 -0.262519 -0.752762 -0.083294 -0.597909
DOCKED: USER    NEWDPF axisangle0 -0.327508 -0.939117 -0.103915 -106.559465
DOCKED: USER    NEWDPF quat0 -0.327508 -0.939117 -0.103915 -106.559465
DOCKED: USER    NEWDPF dihe0 -16.30 -177.83 -170.91 -5.25 -13.69 -15.96 167.41 -52.74 -91.33 
DOCKED: USER  keepresnum = 1 
DOCKED: USER  
DOCKED: REMARK  Name = 
DOCKED: REMARK  9 active torsions:
DOCKED: REMARK  status: ('A' for Active; 'I' for Inactive)
DOCKED: REMARK    1  A    between atoms: C_2  and  C_5
DOCKED: REMARK    2  A    between atoms: N_3  and  O_4
DOCKED: REMARK    3  A    between atoms: C_5  and  C_6
DOCKED: REMARK    4  A    between atoms: C_6  and  C_7
DOCKED: REMARK    5  A    between atoms: C_7  and  C_8
DOCKED: REMARK    6  A    between atoms: C_8  and  C_9
DOCKED: REMARK    7  A    between atoms: C_9  and  C_10
DOCKED: REMARK    8  A    between atoms: C_10  and  C_11
DOCKED: REMARK    9  A    between atoms: N_12  and  C_13
DOCKED: REMARK                            x       y       z     vdW  Elec       q    Type
DOCKED: REMARK                         _______ _______ _______ _____ _____    ______ ____
DOCKED: USER                              x       y       z     vdW  Elec       q    Type
DOCKED: USER                           _______ _______ _______ _____ _____    ______ ____
DOCKED: ROOT
DOCKED: ATOM      1  C   UNL     1      36.401  12.079 123.653 -0.70 -0.00    +0.000 C 
DOCKED: ENDROOT
DOCKED: BRANCH   1   2
DOCKED: ATOM      2  C   UNL     1      36.215  13.592 123.838 -0.56 -0.00    +0.000 C 
DOCKED: BRANCH   2   3
DOCKED: ATOM      3  C   UNL     1      36.637  14.358 122.577 -0.42 -0.00    +0.000 C 
DOCKED: BRANCH   3   4
DOCKED: ATOM      4  C   UNL     1      36.003  15.759 122.490 -0.27 -0.00    +0.000 C 
DOCKED: BRANCH   4   5
DOCKED: ATOM      5  C   UNL     1      36.207  16.627 123.742 -0.35 -0.00    +0.000 C 
DOCKED: BRANCH   5   7
DOCKED: ATOM      6  O   UNL     1      34.296  17.900 124.407 -0.41 -0.00    +0.000 OA
DOCKED: ATOM      7  C   UNL     1      34.932  16.817 124.512 -0.45 -0.00    +0.000 C 
DOCKED: ATOM      8  N   UNL     1      34.452  15.791 125.385 -0.47 -0.00    +0.000 N 
DOCKED: ATOM      9  H   UNL     1      34.955  14.948 125.470 -0.04 -0.00    +0.000 HD
DOCKED: BRANCH   8  10
DOCKED: ATOM     10  O   UNL     1      33.314  15.967 126.095 -0.96 -0.00    +0.000 OA
DOCKED: ATOM     11  H   UNL     1      33.083  16.908 126.109 -0.04 -0.00    +0.000 HD
DOCKED: ENDBRANCH   8  10
DOCKED: ENDBRANCH   5   7
DOCKED: ENDBRANCH   4   5
DOCKED: ENDBRANCH   3   4
DOCKED: ENDBRANCH   2   3
DOCKED: ENDBRANCH   1   2
DOCKED: BRANCH   1  12
DOCKED: ATOM     12  C   UNL     1      36.633  11.697 122.184 -0.62 -0.00    +0.000 C 
DOCKED: BRANCH  12  13
DOCKED: ATOM     13  C   UNL     1      36.356  10.242 121.946 -0.56 -0.00    +0.000 C 
DOCKED: ATOM     14  N   UNL     1      35.220   9.615 122.561 -0.60 -0.00    +0.000 N 
DOCKED: ATOM     15  O   UNL     1      37.135   9.577 121.210 -2.38 -0.00    +0.000 OA
DOCKED: ATOM     16  H   UNL     1      34.484  10.192 122.868 -0.31 -0.00    +0.000 HD
DOCKED: BRANCH  14  17
DOCKED: ATOM     17  C   UNL     1      35.091   8.196 122.760 -0.61 -0.00    +0.000 A 
DOCKED: ATOM     18  C   UNL     1      33.820   7.635 122.944 -0.63 -0.00    +0.000 A 
DOCKED: ATOM     19  C   UNL     1      33.683   6.265 123.171 -0.67 -0.00    +0.000 A 
DOCKED: ATOM     20  C   UNL     1      34.825   5.465 123.230 -0.41 -0.00    +0.000 A 
DOCKED: ATOM     21  N   UNL     1      36.055   6.022 123.077 -0.94 -0.00    +0.000 NA
DOCKED: ATOM     22  C   UNL     1      36.215   7.353 122.848 -0.69 -0.00    +0.000 A 
DOCKED: ATOM     23  CM  UNL     1      34.978   6.801 123.007 +0.00 -0.00    +0.000 AC
DOCKED: ENDBRANCH  14  17
DOCKED: ENDBRANCH  12  13
DOCKED: ENDBRANCH   1  12
DOCKED: TORSDOF 9DOCKED: TER
DOCKED: ENDMDL
________________________________________________________________________________


	BEGINNING GENETIC ALGORITHM DOCKING 54 of 100
Run: 54 Seed: 1672873977 893528898 [ Run 54 of 100 GA/GALS ]
Beginning LAMARCKIAN GENETIC ALGORITHM (LGA), with a maximum of 2500000 energy evaluations.

Final-Value: -13.439


	FINAL GENETIC ALGORITHM DOCKED STATE
	_______________________________________________


Detailed state:  trans 37.989 12.641 124.231 quatxyzw 0.505305 -0.303865 0.803020 -0.086558 center -0.029 -0.207 0.469 ntor 9 37.3004 -22.7525 150.5409 120.1710 163.9421 29.7431 -156.5415 24.1628 -55.7982
State:	 37.989  12.641 124.231   0.507 -0.305  0.806 -170.069     37.30  -22.75  150.54  120.17  163.94   29.74 -156.54   24.16  -55.80

DOCKED: MODEL       54
DOCKED: USER    Run = 54
DOCKED: USER    DPF = ligand_dock.biased.dpf
DOCKED: USER  
DOCKED: USER    Estimated Free Energy of Binding    =   -9.68 kcal/mol  [=(1)+(2)+(3)-(4)]
DOCKED: USER    Estimated Inhibition Constant, Ki   =   79.80 nM (nanomolar)  [Temperature = 298.15 K]
DOCKED: USER    
DOCKED: USER    (1) Final Intermolecular Energy     =  -12.37 kcal/mol
DOCKED: USER        vdW + Hbond + desolv Energy     =  -12.37 kcal/mol
DOCKED: USER        Electrostatic Energy            =   +0.00 kcal/mol
DOCKED: USER    (2) Final Total Internal Energy     =   -1.07 kcal/mol
DOCKED: USER    (3) Torsional Free Energy           =   +2.68 kcal/mol
DOCKED: USER    (4) Unbound System's Energy  [=(2)] =   -1.07 kcal/mol
DOCKED: USER    
DOCKED: USER    
DOCKED: USER    NEWDPF move ligand.dum.pdbqt
DOCKED: USER    NEWDPF about -0.029000 -0.207000 0.469000
DOCKED: USER    NEWDPF tran0 37.988979 12.641186 124.230746
DOCKED: USER    NEWDPF quaternion0 0.505305 -0.303865 0.803020 -0.086558
DOCKED: USER    NEWDPF axisangle0 0.507209 -0.305010 0.806045 -170.068730
DOCKED: USER    NEWDPF quat0 0.507209 -0.305010 0.806045 -170.068730
DOCKED: USER    NEWDPF dihe0 37.30 -22.75 150.54 120.17 163.94 29.74 -156.54 24.16 -55.80 
DOCKED: USER  keepresnum = 1 
DOCKED: USER  
DOCKED: REMARK  Name = 
DOCKED: REMARK  9 active torsions:
DOCKED: REMARK  status: ('A' for Active; 'I' for Inactive)
DOCKED: REMARK    1  A    between atoms: C_2  and  C_5
DOCKED: REMARK    2  A    between atoms: N_3  and  O_4
DOCKED: REMARK    3  A    between atoms: C_5  and  C_6
DOCKED: REMARK    4  A    between atoms: C_6  and  C_7
DOCKED: REMARK    5  A    between atoms: C_7  and  C_8
DOCKED: REMARK    6  A    between atoms: C_8  and  C_9
DOCKED: REMARK    7  A    between atoms: C_9  and  C_10
DOCKED: REMARK    8  A    between atoms: C_10  and  C_11
DOCKED: REMARK    9  A    between atoms: N_12  and  C_13
DOCKED: REMARK                            x       y       z     vdW  Elec       q    Type
DOCKED: REMARK                         _______ _______ _______ _____ _____    ______ ____
DOCKED: USER                              x       y       z     vdW  Elec       q    Type
DOCKED: USER                           _______ _______ _______ _____ _____    ______ ____
DOCKED: ROOT
DOCKED: ATOM      1  C   UNL     1      35.855  14.918 123.488 -0.50 -0.00    +0.000 C 
DOCKED: ENDROOT
DOCKED: BRANCH   1   2
DOCKED: ATOM      2  C   UNL     1      35.618  13.437 123.822 -0.49 -0.00    +0.000 C 
DOCKED: BRANCH   2   3
DOCKED: ATOM      3  C   UNL     1      36.605  12.537 123.067 -0.64 -0.00    +0.000 C 
DOCKED: BRANCH   3   4
DOCKED: ATOM      4  C   UNL     1      36.080  11.101 122.880 -0.69 -0.00    +0.000 C 
DOCKED: BRANCH   4   5
DOCKED: ATOM      5  C   UNL     1      37.069  10.003 123.302 -0.45 -0.00    +0.000 C 
DOCKED: BRANCH   5   7
DOCKED: ATOM      6  O   UNL     1      36.977   8.846 121.212 -2.66 -0.00    +0.000 OA
DOCKED: ATOM      7  C   UNL     1      36.925   8.762 122.468 -0.70 -0.00    +0.000 C 
DOCKED: ATOM      8  N   UNL     1      36.701   7.493 123.089 -0.76 -0.00    +0.000 N 
DOCKED: ATOM      9  H   UNL     1      36.655   7.432 124.071 -0.34 -0.00    +0.000 HD
DOCKED: BRANCH   8  10
DOCKED: ATOM     10  O   UNL     1      36.552   6.376 122.340 -1.05 -0.00    +0.000 OA
DOCKED: ATOM     11  H   UNL     1      37.147   6.418 121.576 -0.46 -0.00    +0.000 HD
DOCKED: ENDBRANCH   8  10
DOCKED: ENDBRANCH   5   7
DOCKED: ENDBRANCH   4   5
DOCKED: ENDBRANCH   3   4
DOCKED: ENDBRANCH   2   3
DOCKED: ENDBRANCH   1   2
DOCKED: BRANCH   1  12
DOCKED: ATOM     12  C   UNL     1      36.576  15.103 122.146 -0.26 -0.00    +0.000 C 
DOCKED: BRANCH  12  13
DOCKED: ATOM     13  C   UNL     1      37.818  15.930 122.301 -0.28 -0.00    +0.000 C 
DOCKED: ATOM     14  N   UNL     1      39.102  15.369 121.986 -0.29 -0.00    +0.000 N 
DOCKED: ATOM     15  O   UNL     1      37.722  17.116 122.718 -0.19 -0.00    +0.000 OA
DOCKED: ATOM     16  H   UNL     1      39.129  14.582 121.394 -0.01 -0.00    +0.000 HD
DOCKED: BRANCH  14  17
DOCKED: ATOM     17  C   UNL     1      40.351  15.882 122.480 -0.33 -0.00    +0.000 A 
DOCKED: ATOM     18  C   UNL     1      40.498  17.260 122.692 -0.21 -0.00    +0.000 A 
DOCKED: ATOM     19  C   UNL     1      41.716  17.775 123.141 -0.25 -0.00    +0.000 A 
DOCKED: ATOM     20  C   UNL     1      42.786  16.906 123.359 -0.31 -0.00    +0.000 A 
DOCKED: ATOM     21  N   UNL     1      42.640  15.576 123.125 -0.98 +0.00    +0.000 NA
DOCKED: ATOM     22  C   UNL     1      41.464  15.048 122.694 -0.51 -0.00    +0.000 A 
DOCKED: ATOM     23  CM  UNL     1      41.604  16.385 122.921 +0.00 -0.00    +0.000 AC
DOCKED: ENDBRANCH  14  17
DOCKED: ENDBRANCH  12  13
DOCKED: ENDBRANCH   1  12
DOCKED: TORSDOF 9DOCKED: TER
DOCKED: ENDMDL
________________________________________________________________________________


	BEGINNING GENETIC ALGORITHM DOCKING 55 of 100
Run: 55 Seed: 1731407393 768032544 [ Run 55 of 100 GA/GALS ]
Beginning LAMARCKIAN GENETIC ALGORITHM (LGA), with a maximum of 2500000 energy evaluations.

Final-Value: -14.033


	FINAL GENETIC ALGORITHM DOCKED STATE
	_______________________________________________


Detailed state:  trans 39.782 14.624 122.555 quatxyzw 0.495215 0.360530 0.786701 -0.076692 center -0.029 -0.207 0.469 ntor 9 -0.7254 142.8868 -6.9455 82.1338 34.5094 138.4927 106.2100 -98.4294 -98.4678
State:	 39.782  14.624 122.555   0.497  0.362  0.789 -171.203     -0.73  142.89   -6.95   82.13   34.51  138.49  106.21  -98.43  -98.47

DOCKED: MODEL       55
DOCKED: USER    Run = 55
DOCKED: USER    DPF = ligand_dock.biased.dpf
DOCKED: USER  
DOCKED: USER    Estimated Free Energy of Binding    =   -9.66 kcal/mol  [=(1)+(2)+(3)-(4)]
DOCKED: USER    Estimated Inhibition Constant, Ki   =   82.62 nM (nanomolar)  [Temperature = 298.15 K]
DOCKED: USER    
DOCKED: USER    (1) Final Intermolecular Energy     =  -12.35 kcal/mol
DOCKED: USER        vdW + Hbond + desolv Energy     =  -12.35 kcal/mol
DOCKED: USER        Electrostatic Energy            =   +0.00 kcal/mol
DOCKED: USER    (2) Final Total Internal Energy     =   -1.69 kcal/mol
DOCKED: USER    (3) Torsional Free Energy           =   +2.68 kcal/mol
DOCKED: USER    (4) Unbound System's Energy  [=(2)] =   -1.69 kcal/mol
DOCKED: USER    
DOCKED: USER    
DOCKED: USER    NEWDPF move ligand.dum.pdbqt
DOCKED: USER    NEWDPF about -0.029000 -0.207000 0.469000
DOCKED: USER    NEWDPF tran0 39.782055 14.624279 122.554520
DOCKED: USER    NEWDPF quaternion0 0.495215 0.360530 0.786701 -0.076692
DOCKED: USER    NEWDPF axisangle0 0.496677 0.361595 0.789025 -171.203095
DOCKED: USER    NEWDPF quat0 0.496677 0.361595 0.789025 -171.203095
DOCKED: USER    NEWDPF dihe0 -0.73 142.89 -6.95 82.13 34.51 138.49 106.21 -98.43 -98.47 
DOCKED: USER  keepresnum = 1 
DOCKED: USER  
DOCKED: REMARK  Name = 
DOCKED: REMARK  9 active torsions:
DOCKED: REMARK  status: ('A' for Active; 'I' for Inactive)
DOCKED: REMARK    1  A    between atoms: C_2  and  C_5
DOCKED: REMARK    2  A    between atoms: N_3  and  O_4
DOCKED: REMARK    3  A    between atoms: C_5  and  C_6
DOCKED: REMARK    4  A    between atoms: C_6  and  C_7
DOCKED: REMARK    5  A    between atoms: C_7  and  C_8
DOCKED: REMARK    6  A    between atoms: C_8  and  C_9
DOCKED: REMARK    7  A    between atoms: C_9  and  C_10
DOCKED: REMARK    8  A    between atoms: C_10  and  C_11
DOCKED: REMARK    9  A    between atoms: N_12  and  C_13
DOCKED: REMARK                            x       y       z     vdW  Elec       q    Type
DOCKED: REMARK                         _______ _______ _______ _____ _____    ______ ____
DOCKED: USER                              x       y       z     vdW  Elec       q    Type
DOCKED: USER                           _______ _______ _______ _____ _____    ______ ____
DOCKED: ROOT
DOCKED: ATOM      1  C   UNL     1      37.019  13.485 121.390 -0.40 -0.00    +0.000 C 
DOCKED: ENDROOT
DOCKED: BRANCH   1   2
DOCKED: ATOM      2  C   UNL     1      37.615  13.333 122.798 -0.54 -0.00    +0.000 C 
DOCKED: BRANCH   2   3
DOCKED: ATOM      3  C   UNL     1      37.317  11.943 123.375 -0.57 -0.00    +0.000 C 
DOCKED: BRANCH   3   4
DOCKED: ATOM      4  C   UNL     1      35.844  11.529 123.204 -0.67 -0.00    +0.000 C 
DOCKED: BRANCH   4   5
DOCKED: ATOM      5  C   UNL     1      35.587  10.562 122.037 -0.46 -0.00    +0.000 C 
DOCKED: BRANCH   5   7
DOCKED: ATOM      6  O   UNL     1      36.939   8.844 121.068 -2.67 -0.00    +0.000 OA
DOCKED: ATOM      7  C   UNL     1      36.446   9.333 122.121 -0.69 -0.00    +0.000 C 
DOCKED: ATOM      8  N   UNL     1      36.682   8.698 123.380 -0.63 -0.00    +0.000 N 
DOCKED: ATOM      9  H   UNL     1      36.291   9.079 124.200 -0.33 -0.00    +0.000 HD
DOCKED: BRANCH   8  10
DOCKED: ATOM     10  O   UNL     1      37.440   7.579 123.457 -2.11 -0.00    +0.000 OA
DOCKED: ATOM     11  H   UNL     1      37.738   7.329 122.568 -0.26 -0.00    +0.000 HD
DOCKED: ENDBRANCH   8  10
DOCKED: ENDBRANCH   5   7
DOCKED: ENDBRANCH   4   5
DOCKED: ENDBRANCH   3   4
DOCKED: ENDBRANCH   2   3
DOCKED: ENDBRANCH   1   2
DOCKED: BRANCH   1  12
DOCKED: ATOM     12  C   UNL     1      37.825  12.719 120.332 -0.49 -0.00    +0.000 C 
DOCKED: BRANCH  12  13
DOCKED: ATOM     13  C   UNL     1      37.411  13.105 118.942 -0.43 -0.00    +0.000 C 
DOCKED: ATOM     14  N   UNL     1      36.315  14.011 118.742 -0.33 -0.00    +0.000 N 
DOCKED: ATOM     15  O   UNL     1      38.028  12.617 117.956 -0.30 -0.00    +0.000 OA
DOCKED: ATOM     16  H   UNL     1      36.058  14.596 119.491 -0.01 -0.00    +0.000 HD
DOCKED: BRANCH  14  17
DOCKED: ATOM     17  C   UNL     1      35.570  14.119 117.517 -0.33 -0.00    +0.000 A 
DOCKED: ATOM     18  C   UNL     1      36.168  14.701 116.391 -0.25 -0.00    +0.000 A 
DOCKED: ATOM     19  C   UNL     1      35.445  14.841 115.205 -0.19 -0.00    +0.000 A 
DOCKED: ATOM     20  C   UNL     1      34.117  14.412 115.161 -0.23 -0.00    +0.000 A 
DOCKED: ATOM     21  N   UNL     1      33.538  13.873 116.266 -0.35 -0.00    +0.000 NA
DOCKED: ATOM     22  C   UNL     1      34.223  13.720 117.430 -0.10 -0.00    +0.000 A 
DOCKED: ATOM     23  CM  UNL     1      34.808  14.267 116.327 +0.00 -0.00    +0.000 AC
DOCKED: ENDBRANCH  14  17
DOCKED: ENDBRANCH  12  13
DOCKED: ENDBRANCH   1  12
DOCKED: TORSDOF 9DOCKED: TER
DOCKED: ENDMDL
________________________________________________________________________________


	BEGINNING GENETIC ALGORITHM DOCKING 56 of 100
Run: 56 Seed: 81055733 1090929135 [ Run 56 of 100 GA/GALS ]
Beginning LAMARCKIAN GENETIC ALGORITHM (LGA), with a maximum of 2500000 energy evaluations.

Final-Value: -14.288


	FINAL GENETIC ALGORITHM DOCKED STATE
	_______________________________________________


Detailed state:  trans 35.024 14.403 122.251 quatxyzw -0.414375 0.643080 0.326485 0.555112 center -0.029 -0.207 0.469 ntor 9 -6.7462 -174.7387 177.6611 43.2267 132.5969 -176.8900 -36.0415 -28.4528 59.1138
State:	 35.024  14.403 122.251  -0.498  0.773  0.393 112.563     -6.75 -174.74  177.66   43.23  132.60 -176.89  -36.04  -28.45   59.11

DOCKED: MODEL       56
DOCKED: USER    Run = 56
DOCKED: USER    DPF = ligand_dock.biased.dpf
DOCKED: USER  
DOCKED: USER    Estimated Free Energy of Binding    =  -10.21 kcal/mol  [=(1)+(2)+(3)-(4)]
DOCKED: USER    Estimated Inhibition Constant, Ki   =   32.61 nM (nanomolar)  [Temperature = 298.15 K]
DOCKED: USER    
DOCKED: USER    (1) Final Intermolecular Energy     =  -12.90 kcal/mol
DOCKED: USER        vdW + Hbond + desolv Energy     =  -12.90 kcal/mol
DOCKED: USER        Electrostatic Energy            =   +0.00 kcal/mol
DOCKED: USER    (2) Final Total Internal Energy     =   -1.39 kcal/mol
DOCKED: USER    (3) Torsional Free Energy           =   +2.68 kcal/mol
DOCKED: USER    (4) Unbound System's Energy  [=(2)] =   -1.39 kcal/mol
DOCKED: USER    
DOCKED: USER    
DOCKED: USER    NEWDPF move ligand.dum.pdbqt
DOCKED: USER    NEWDPF about -0.029000 -0.207000 0.469000
DOCKED: USER    NEWDPF tran0 35.024239 14.402667 122.251349
DOCKED: USER    NEWDPF quaternion0 -0.414375 0.643080 0.326485 0.555112
DOCKED: USER    NEWDPF axisangle0 -0.498181 0.773141 0.392516 112.563145
DOCKED: USER    NEWDPF quat0 -0.498181 0.773141 0.392516 112.563145
DOCKED: USER    NEWDPF dihe0 -6.75 -174.74 177.66 43.23 132.60 -176.89 -36.04 -28.45 59.11 
DOCKED: USER  keepresnum = 1 
DOCKED: USER  
DOCKED: REMARK  Name = 
DOCKED: REMARK  9 active torsions:
DOCKED: REMARK  status: ('A' for Active; 'I' for Inactive)
DOCKED: REMARK    1  A    between atoms: C_2  and  C_5
DOCKED: REMARK    2  A    between atoms: N_3  and  O_4
DOCKED: REMARK    3  A    between atoms: C_5  and  C_6
DOCKED: REMARK    4  A    between atoms: C_6  and  C_7
DOCKED: REMARK    5  A    between atoms: C_7  and  C_8
DOCKED: REMARK    6  A    between atoms: C_8  and  C_9
DOCKED: REMARK    7  A    between atoms: C_9  and  C_10
DOCKED: REMARK    8  A    between atoms: C_10  and  C_11
DOCKED: REMARK    9  A    between atoms: N_12  and  C_13
DOCKED: REMARK                            x       y       z     vdW  Elec       q    Type
DOCKED: REMARK                         _______ _______ _______ _____ _____    ______ ____
DOCKED: USER                              x       y       z     vdW  Elec       q    Type
DOCKED: USER                           _______ _______ _______ _____ _____    ______ ____
DOCKED: ROOT
DOCKED: ATOM      1  C   UNL     1      38.230  14.286 122.280 -0.45 -0.00    +0.000 C 
DOCKED: ENDROOT
DOCKED: BRANCH   1   2
DOCKED: ATOM      2  C   UNL     1      37.244  14.186 123.454 -0.48 -0.00    +0.000 C 
DOCKED: BRANCH   2   3
DOCKED: ATOM      3  C   UNL     1      36.550  12.817 123.477 -0.65 -0.00    +0.000 C 
DOCKED: BRANCH   3   4
DOCKED: ATOM      4  C   UNL     1      36.963  11.920 122.295 -0.60 -0.00    +0.000 C 
DOCKED: BRANCH   4   5
DOCKED: ATOM      5  C   UNL     1      35.995  10.760 122.009 -0.55 -0.00    +0.000 C 
DOCKED: BRANCH   5   7
DOCKED: ATOM      6  O   UNL     1      37.060   8.840 121.063 -2.70 -0.00    +0.000 OA
DOCKED: ATOM      7  C   UNL     1      36.670   9.422 122.111 -0.70 -0.00    +0.000 C 
DOCKED: ATOM      8  N   UNL     1      36.845   8.793 123.383 -0.62 -0.00    +0.000 N 
DOCKED: ATOM      9  H   UNL     1      36.533   9.247 124.199 -0.42 -0.00    +0.000 HD
DOCKED: BRANCH   8  10
DOCKED: ATOM     10  O   UNL     1      37.435   7.578 123.475 -2.09 -0.00    +0.000 OA
DOCKED: ATOM     11  H   UNL     1      37.585   7.223 122.586 -0.26 -0.00    +0.000 HD
DOCKED: ENDBRANCH   8  10
DOCKED: ENDBRANCH   5   7
DOCKED: ENDBRANCH   4   5
DOCKED: ENDBRANCH   3   4
DOCKED: ENDBRANCH   2   3
DOCKED: ENDBRANCH   1   2
DOCKED: BRANCH   1  12
DOCKED: ATOM     12  C   UNL     1      38.248  15.688 121.655 -0.26 -0.00    +0.000 C 
DOCKED: BRANCH  12  13
DOCKED: ATOM     13  C   UNL     1      37.126  16.535 122.177 -0.23 -0.00    +0.000 C 
DOCKED: ATOM     14  N   UNL     1      37.097  16.919 123.560 -0.25 -0.00    +0.000 N 
DOCKED: ATOM     15  O   UNL     1      36.208  16.897 121.392 -0.23 -0.00    +0.000 OA
DOCKED: ATOM     16  H   UNL     1      37.941  16.891 124.065 -0.02 -0.00    +0.000 HD
DOCKED: BRANCH  14  17
DOCKED: ATOM     17  C   UNL     1      35.911  17.343 124.255 -0.28 -0.00    +0.000 A 
DOCKED: ATOM     18  C   UNL     1      35.779  18.681 124.648 -0.21 -0.00    +0.000 A 
DOCKED: ATOM     19  C   UNL     1      34.648  19.099 125.353 -0.23 -0.00    +0.000 A 
DOCKED: ATOM     20  C   UNL     1      33.662  18.165 125.675 -0.33 -0.00    +0.000 A 
DOCKED: ATOM     21  N   UNL     1      33.812  16.864 125.312 -0.43 -0.00    +0.000 NA
DOCKED: ATOM     22  C   UNL     1      34.900  16.434 124.621 -0.42 -0.00    +0.000 A 
DOCKED: ATOM     23  CM  UNL     1      34.759  17.740 124.986 -0.47 -0.00    +0.000 AC
DOCKED: ENDBRANCH  14  17
DOCKED: ENDBRANCH  12  13
DOCKED: ENDBRANCH   1  12
DOCKED: TORSDOF 9DOCKED: TER
DOCKED: ENDMDL
________________________________________________________________________________


	BEGINNING GENETIC ALGORITHM DOCKING 57 of 100
Run: 57 Seed: 240582725 504989339 [ Run 57 of 100 GA/GALS ]
Beginning LAMARCKIAN GENETIC ALGORITHM (LGA), with a maximum of 2500000 energy evaluations.

Final-Value: -14.698


	FINAL GENETIC ALGORITHM DOCKED STATE
	_______________________________________________


Detailed state:  trans 38.240 14.387 121.525 quatxyzw 0.397184 0.778487 0.460462 -0.155493 center -0.029 -0.207 0.469 ntor 9 -13.3567 47.3345 -176.5878 -133.4288 139.7285 -35.6007 -158.8658 -136.7438 -117.5270
State:	 38.240  14.387 121.525   0.402  0.788  0.466 -162.109    -13.36   47.33 -176.59 -133.43  139.73  -35.60 -158.87 -136.74 -117.53

DOCKED: MODEL       57
DOCKED: USER    Run = 57
DOCKED: USER    DPF = ligand_dock.biased.dpf
DOCKED: USER  
DOCKED: USER    Estimated Free Energy of Binding    =  -10.75 kcal/mol  [=(1)+(2)+(3)-(4)]
DOCKED: USER    Estimated Inhibition Constant, Ki   =   13.28 nM (nanomolar)  [Temperature = 298.15 K]
DOCKED: USER    
DOCKED: USER    (1) Final Intermolecular Energy     =  -13.43 kcal/mol
DOCKED: USER        vdW + Hbond + desolv Energy     =  -13.43 kcal/mol
DOCKED: USER        Electrostatic Energy            =   +0.00 kcal/mol
DOCKED: USER    (2) Final Total Internal Energy     =   -1.27 kcal/mol
DOCKED: USER    (3) Torsional Free Energy           =   +2.68 kcal/mol
DOCKED: USER    (4) Unbound System's Energy  [=(2)] =   -1.27 kcal/mol
DOCKED: USER    
DOCKED: USER    
DOCKED: USER    NEWDPF move ligand.dum.pdbqt
DOCKED: USER    NEWDPF about -0.029000 -0.207000 0.469000
DOCKED: USER    NEWDPF tran0 38.240306 14.387345 121.524889
DOCKED: USER    NEWDPF quaternion0 0.397184 0.778487 0.460462 -0.155493
DOCKED: USER    NEWDPF axisangle0 0.402074 0.788072 0.466131 -162.109249
DOCKED: USER    NEWDPF quat0 0.402074 0.788072 0.466131 -162.109249
DOCKED: USER    NEWDPF dihe0 -13.36 47.33 -176.59 -133.43 139.73 -35.60 -158.87 -136.74 -117.53 
DOCKED: USER  keepresnum = 1 
DOCKED: USER  
DOCKED: REMARK  Name = 
DOCKED: REMARK  9 active torsions:
DOCKED: REMARK  status: ('A' for Active; 'I' for Inactive)
DOCKED: REMARK    1  A    between atoms: C_2  and  C_5
DOCKED: REMARK    2  A    between atoms: N_3  and  O_4
DOCKED: REMARK    3  A    between atoms: C_5  and  C_6
DOCKED: REMARK    4  A    between atoms: C_6  and  C_7
DOCKED: REMARK    5  A    between atoms: C_7  and  C_8
DOCKED: REMARK    6  A    between atoms: C_8  and  C_9
DOCKED: REMARK    7  A    between atoms: C_9  and  C_10
DOCKED: REMARK    8  A    between atoms: C_10  and  C_11
DOCKED: REMARK    9  A    between atoms: N_12  and  C_13
DOCKED: REMARK                            x       y       z     vdW  Elec       q    Type
DOCKED: REMARK                         _______ _______ _______ _____ _____    ______ ____
DOCKED: USER                              x       y       z     vdW  Elec       q    Type
DOCKED: USER                           _______ _______ _______ _____ _____    ______ ____
DOCKED: ROOT
DOCKED: ATOM      1  C   UNL     1      36.057  12.356 122.707 -0.53 -0.00    +0.000 C 
DOCKED: ENDROOT
DOCKED: BRANCH   1   2
DOCKED: ATOM      2  C   UNL     1      36.664  13.612 123.351 -0.57 -0.00    +0.000 C 
DOCKED: BRANCH   2   3
DOCKED: ATOM      3  C   UNL     1      38.194  13.612 123.225 -0.41 -0.00    +0.000 C 
DOCKED: BRANCH   3   4
DOCKED: ATOM      4  C   UNL     1      38.763  14.999 122.872 -0.34 -0.00    +0.000 C 
DOCKED: BRANCH   4   5
DOCKED: ATOM      5  C   UNL     1      40.113  14.964 122.138 -0.43 -0.00    +0.000 C 
DOCKED: BRANCH   5   7
DOCKED: ATOM      6  O   UNL     1      42.245  14.894 123.218 -1.02 +0.00    +0.000 OA
DOCKED: ATOM      7  C   UNL     1      41.217  15.574 122.955 -0.45 -0.00    +0.000 C 
DOCKED: ATOM      8  N   UNL     1      41.094  16.907 123.459 -0.33 -0.00    +0.000 N 
DOCKED: ATOM      9  H   UNL     1      40.287  17.432 123.256 -0.00 -0.00    +0.000 HD
DOCKED: BRANCH   8  10
DOCKED: ATOM     10  O   UNL     1      42.078  17.452 124.211 -0.70 -0.00    +0.000 OA
DOCKED: ATOM     11  H   UNL     1      42.692  16.756 124.494 -0.42 +0.00    +0.000 HD
DOCKED: ENDBRANCH   8  10
DOCKED: ENDBRANCH   5   7
DOCKED: ENDBRANCH   4   5
DOCKED: ENDBRANCH   3   4
DOCKED: ENDBRANCH   2   3
DOCKED: ENDBRANCH   1   2
DOCKED: BRANCH   1  12
DOCKED: ATOM     12  C   UNL     1      37.084  11.225 122.558 -0.58 -0.00    +0.000 C 
DOCKED: BRANCH  12  13
DOCKED: ATOM     13  C   UNL     1      36.437   9.956 122.087 -0.63 -0.00    +0.000 C 
DOCKED: ATOM     14  N   UNL     1      35.181   9.539 122.643 -0.60 -0.00    +0.000 N 
DOCKED: ATOM     15  O   UNL     1      37.013   9.258 121.209 -2.69 -0.00    +0.000 OA
DOCKED: ATOM     16  H   UNL     1      34.620  10.221 123.081 -0.33 -0.00    +0.000 HD
DOCKED: BRANCH  14  17
DOCKED: ATOM     17  C   UNL     1      34.688   8.188 122.602 -0.61 -0.00    +0.000 A 
DOCKED: ATOM     18  C   UNL     1      35.268   7.214 123.426 -0.65 -0.00    +0.000 A 
DOCKED: ATOM     19  C   UNL     1      34.822   5.893 123.372 -0.63 -0.00    +0.000 A 
DOCKED: ATOM     20  C   UNL     1      33.806   5.551 122.479 -0.32 -0.00    +0.000 A 
DOCKED: ATOM     21  N   UNL     1      33.268   6.498 121.666 -0.58 -0.00    +0.000 NA
DOCKED: ATOM     22  C   UNL     1      33.681   7.793 121.703 -0.60 -0.00    +0.000 A 
DOCKED: ATOM     23  CM  UNL     1      34.229   6.847 122.518 +0.00 -0.00    +0.000 AC
DOCKED: ENDBRANCH  14  17
DOCKED: ENDBRANCH  12  13
DOCKED: ENDBRANCH   1  12
DOCKED: TORSDOF 9DOCKED: TER
DOCKED: ENDMDL
________________________________________________________________________________


	BEGINNING GENETIC ALGORITHM DOCKING 58 of 100
Run: 58 Seed: 1590615384 1838922988 [ Run 58 of 100 GA/GALS ]
Beginning LAMARCKIAN GENETIC ALGORITHM (LGA), with a maximum of 2500000 energy evaluations.

Final-Value: -12.902


	FINAL GENETIC ALGORITHM DOCKED STATE
	_______________________________________________


Detailed state:  trans 37.911 13.332 125.150 quatxyzw -0.220870 -0.169132 -0.924273 -0.261401 center -0.029 -0.207 0.469 ntor 9 140.8934 -142.9943 -31.8047 -111.0433 76.0972 -163.9228 56.4470 23.4206 -158.6940
State:	 37.911  13.332 125.150  -0.229 -0.175 -0.958 -149.694    140.89 -142.99  -31.80 -111.04   76.10 -163.92   56.45   23.42 -158.69

DOCKED: MODEL       58
DOCKED: USER    Run = 58
DOCKED: USER    DPF = ligand_dock.biased.dpf
DOCKED: USER  
DOCKED: USER    Estimated Free Energy of Binding    =   -9.27 kcal/mol  [=(1)+(2)+(3)-(4)]
DOCKED: USER    Estimated Inhibition Constant, Ki   =  161.00 nM (nanomolar)  [Temperature = 298.15 K]
DOCKED: USER    
DOCKED: USER    (1) Final Intermolecular Energy     =  -11.95 kcal/mol
DOCKED: USER        vdW + Hbond + desolv Energy     =  -11.95 kcal/mol
DOCKED: USER        Electrostatic Energy            =   +0.00 kcal/mol
DOCKED: USER    (2) Final Total Internal Energy     =   -0.95 kcal/mol
DOCKED: USER    (3) Torsional Free Energy           =   +2.68 kcal/mol
DOCKED: USER    (4) Unbound System's Energy  [=(2)] =   -0.95 kcal/mol
DOCKED: USER    
DOCKED: USER    
DOCKED: USER    NEWDPF move ligand.dum.pdbqt
DOCKED: USER    NEWDPF about -0.029000 -0.207000 0.469000
DOCKED: USER    NEWDPF tran0 37.911043 13.331703 125.149968
DOCKED: USER    NEWDPF quaternion0 -0.220870 -0.169132 -0.924273 -0.261401
DOCKED: USER    NEWDPF axisangle0 -0.228826 -0.175225 -0.957567 -149.693601
DOCKED: USER    NEWDPF quat0 -0.228826 -0.175225 -0.957567 -149.693601
DOCKED: USER    NEWDPF dihe0 140.89 -142.99 -31.80 -111.04 76.10 -163.92 56.45 23.42 -158.69 
DOCKED: USER  keepresnum = 1 
DOCKED: USER  
DOCKED: REMARK  Name = 
DOCKED: REMARK  9 active torsions:
DOCKED: REMARK  status: ('A' for Active; 'I' for Inactive)
DOCKED: REMARK    1  A    between atoms: C_2  and  C_5
DOCKED: REMARK    2  A    between atoms: N_3  and  O_4
DOCKED: REMARK    3  A    between atoms: C_5  and  C_6
DOCKED: REMARK    4  A    between atoms: C_6  and  C_7
DOCKED: REMARK    5  A    between atoms: C_7  and  C_8
DOCKED: REMARK    6  A    between atoms: C_8  and  C_9
DOCKED: REMARK    7  A    between atoms: C_9  and  C_10
DOCKED: REMARK    8  A    between atoms: C_10  and  C_11
DOCKED: REMARK    9  A    between atoms: N_12  and  C_13
DOCKED: REMARK                            x       y       z     vdW  Elec       q    Type
DOCKED: REMARK                         _______ _______ _______ _____ _____    ______ ____
DOCKED: USER                              x       y       z     vdW  Elec       q    Type
DOCKED: USER                           _______ _______ _______ _____ _____    ______ ____
DOCKED: ROOT
DOCKED: ATOM      1  C   UNL     1      36.591  12.447 122.364 -0.57 -0.00    +0.000 C 
DOCKED: ENDROOT
DOCKED: BRANCH   1   2
DOCKED: ATOM      2  C   UNL     1      36.986  11.581 123.569 -0.68 -0.00    +0.000 C 
DOCKED: BRANCH   2   3
DOCKED: ATOM      3  C   UNL     1      36.388  10.172 123.454 -0.46 -0.00    +0.000 C 
DOCKED: BRANCH   3   4
DOCKED: ATOM      4  C   UNL     1      35.771   9.896 122.070 -0.52 -0.00    +0.000 C 
DOCKED: BRANCH   4   5
DOCKED: ATOM      5  C   UNL     1      35.988   8.465 121.552 -0.62 -0.00    +0.000 C 
DOCKED: BRANCH   5   7
DOCKED: ATOM      6  O   UNL     1      37.074   7.509 123.454 -2.18 -0.00    +0.000 OA
DOCKED: ATOM      7  C   UNL     1      36.088   7.468 122.670 -0.77 -0.00    +0.000 C 
DOCKED: ATOM      8  N   UNL     1      35.090   6.457 122.832 -0.68 -0.00    +0.000 N 
DOCKED: ATOM      9  H   UNL     1      34.324   6.424 122.214 -0.02 -0.00    +0.000 HD
DOCKED: BRANCH   8  10
DOCKED: ATOM     10  O   UNL     1      35.187   5.545 123.827 -1.05 -0.00    +0.000 OA
DOCKED: ATOM     11  H   UNL     1      34.308   5.377 124.199 -0.63 -0.00    +0.000 HD
DOCKED: ENDBRANCH   8  10
DOCKED: ENDBRANCH   5   7
DOCKED: ENDBRANCH   4   5
DOCKED: ENDBRANCH   3   4
DOCKED: ENDBRANCH   2   3
DOCKED: ENDBRANCH   1   2
DOCKED: BRANCH   1  12
DOCKED: ATOM     12  C   UNL     1      37.813  13.032 121.643 -0.48 -0.00    +0.000 C 
DOCKED: BRANCH  12  13
DOCKED: ATOM     13  C   UNL     1      37.726  12.824 120.160 -0.48 -0.00    +0.000 C 
DOCKED: ATOM     14  N   UNL     1      37.666  13.954 119.275 -0.32 -0.00    +0.000 N 
DOCKED: ATOM     15  O   UNL     1      37.697  11.649 119.701 -0.51 -0.00    +0.000 OA
DOCKED: ATOM     16  H   UNL     1      37.987  14.821 119.612 -0.01 -0.00    +0.000 HD
DOCKED: BRANCH  14  17
DOCKED: ATOM     17  C   UNL     1      37.164  13.899 117.928 -0.35 -0.00    +0.000 A 
DOCKED: ATOM     18  C   UNL     1      35.829  14.242 117.673 -0.32 -0.00    +0.000 A 
DOCKED: ATOM     19  C   UNL     1      35.320  14.162 116.375 -0.30 -0.00    +0.000 A 
DOCKED: ATOM     20  C   UNL     1      36.149  13.721 115.343 -0.27 -0.00    +0.000 A 
DOCKED: ATOM     21  N   UNL     1      37.434  13.366 115.606 -0.41 -0.00    +0.000 NA
DOCKED: ATOM     22  C   UNL     1      37.955  13.441 116.859 -0.33 -0.00    +0.000 A 
DOCKED: ATOM     23  CM  UNL     1      36.663  13.793 116.603 +0.00 -0.00    +0.000 AC
DOCKED: ENDBRANCH  14  17
DOCKED: ENDBRANCH  12  13
DOCKED: ENDBRANCH   1  12
DOCKED: TORSDOF 9DOCKED: TER
DOCKED: ENDMDL
________________________________________________________________________________


	BEGINNING GENETIC ALGORITHM DOCKING 59 of 100
Run: 59 Seed: 543149559 1702660182 [ Run 59 of 100 GA/GALS ]
Beginning LAMARCKIAN GENETIC ALGORITHM (LGA), with a maximum of 2500000 energy evaluations.

Final-Value: -13.911


	FINAL GENETIC ALGORITHM DOCKED STATE
	_______________________________________________


Detailed state:  trans 39.336 13.585 119.209 quatxyzw -0.435686 0.794897 -0.351245 -0.234399 center -0.029 -0.207 0.469 ntor 9 9.8916 -147.1040 59.0291 -170.5542 53.0033 177.8485 -26.0593 101.8063 -37.1017
State:	 39.336  13.585 119.209  -0.448  0.818 -0.361 -152.888      9.89 -147.10   59.03 -170.55   53.00  177.85  -26.06  101.81  -37.10

DOCKED: MODEL       59
DOCKED: USER    Run = 59
DOCKED: USER    DPF = ligand_dock.biased.dpf
DOCKED: USER  
DOCKED: USER    Estimated Free Energy of Binding    =   -9.88 kcal/mol  [=(1)+(2)+(3)-(4)]
DOCKED: USER    Estimated Inhibition Constant, Ki   =   57.04 nM (nanomolar)  [Temperature = 298.15 K]
DOCKED: USER    
DOCKED: USER    (1) Final Intermolecular Energy     =  -12.57 kcal/mol
DOCKED: USER        vdW + Hbond + desolv Energy     =  -12.57 kcal/mol
DOCKED: USER        Electrostatic Energy            =   +0.00 kcal/mol
DOCKED: USER    (2) Final Total Internal Energy     =   -1.34 kcal/mol
DOCKED: USER    (3) Torsional Free Energy           =   +2.68 kcal/mol
DOCKED: USER    (4) Unbound System's Energy  [=(2)] =   -1.34 kcal/mol
DOCKED: USER    
DOCKED: USER    
DOCKED: USER    NEWDPF move ligand.dum.pdbqt
DOCKED: USER    NEWDPF about -0.029000 -0.207000 0.469000
DOCKED: USER    NEWDPF tran0 39.336192 13.585328 119.209084
DOCKED: USER    NEWDPF quaternion0 -0.435686 0.794897 -0.351245 -0.234399
DOCKED: USER    NEWDPF axisangle0 -0.448172 0.817678 -0.361311 -152.887562
DOCKED: USER    NEWDPF quat0 -0.448172 0.817678 -0.361311 -152.887562
DOCKED: USER    NEWDPF dihe0 9.89 -147.10 59.03 -170.55 53.00 177.85 -26.06 101.81 -37.10 
DOCKED: USER  keepresnum = 1 
DOCKED: USER  
DOCKED: REMARK  Name = 
DOCKED: REMARK  9 active torsions:
DOCKED: REMARK  status: ('A' for Active; 'I' for Inactive)
DOCKED: REMARK    1  A    between atoms: C_2  and  C_5
DOCKED: REMARK    2  A    between atoms: N_3  and  O_4
DOCKED: REMARK    3  A    between atoms: C_5  and  C_6
DOCKED: REMARK    4  A    between atoms: C_6  and  C_7
DOCKED: REMARK    5  A    between atoms: C_7  and  C_8
DOCKED: REMARK    6  A    between atoms: C_8  and  C_9
DOCKED: REMARK    7  A    between atoms: C_9  and  C_10
DOCKED: REMARK    8  A    between atoms: C_10  and  C_11
DOCKED: REMARK    9  A    between atoms: N_12  and  C_13
DOCKED: REMARK                            x       y       z     vdW  Elec       q    Type
DOCKED: REMARK                         _______ _______ _______ _____ _____    ______ ____
DOCKED: USER                              x       y       z     vdW  Elec       q    Type
DOCKED: USER                           _______ _______ _______ _____ _____    ______ ____
DOCKED: ROOT
DOCKED: ATOM      1  C   UNL     1      37.503  14.499 121.677 -0.38 -0.00    +0.000 C 
DOCKED: ENDROOT
DOCKED: BRANCH   1   2
DOCKED: ATOM      2  C   UNL     1      37.085  14.100 120.254 -0.32 -0.00    +0.000 C 
DOCKED: BRANCH   2   3
DOCKED: ATOM      3  C   UNL     1      36.947  12.577 120.126 -0.45 -0.00    +0.000 C 
DOCKED: BRANCH   3   4
DOCKED: ATOM      4  C   UNL     1      37.440  11.827 121.378 -0.46 -0.00    +0.000 C 
DOCKED: BRANCH   4   5
DOCKED: ATOM      5  C   UNL     1      36.362  10.983 122.078 -0.63 -0.00    +0.000 C 
DOCKED: BRANCH   5   7
DOCKED: ATOM      6  O   UNL     1      36.726   8.838 121.086 -2.62 -0.00    +0.000 OA
DOCKED: ATOM      7  C   UNL     1      36.734   9.529 122.141 -0.69 -0.00    +0.000 C 
DOCKED: ATOM      8  N   UNL     1      37.067   8.919 123.390 -0.61 -0.00    +0.000 N 
DOCKED: ATOM      9  H   UNL     1      37.066   9.460 124.213 -0.58 -0.00    +0.000 HD
DOCKED: BRANCH   8  10
DOCKED: ATOM     10  O   UNL     1      37.384   7.605 123.453 -2.14 -0.00    +0.000 OA
DOCKED: ATOM     11  H   UNL     1      37.491   7.255 122.554 -0.21 -0.00    +0.000 HD
DOCKED: ENDBRANCH   8  10
DOCKED: ENDBRANCH   5   7
DOCKED: ENDBRANCH   4   5
DOCKED: ENDBRANCH   3   4
DOCKED: ENDBRANCH   2   3
DOCKED: ENDBRANCH   1   2
DOCKED: BRANCH   1  12
DOCKED: ATOM     12  C   UNL     1      38.271  15.828 121.707 -0.25 -0.00    +0.000 C 
DOCKED: BRANCH  12  13
DOCKED: ATOM     13  C   UNL     1      39.733  15.609 121.963 -0.33 -0.00    +0.000 C 
DOCKED: ATOM     14  N   UNL     1      40.566  16.708 122.367 -0.22 -0.00    +0.000 N 
DOCKED: ATOM     15  O   UNL     1      40.222  14.457 121.812 -1.02 -0.00    +0.000 OA
DOCKED: ATOM     16  H   UNL     1      40.129  17.497 122.763 +0.00 -0.00    +0.000 HD
DOCKED: BRANCH  14  17
DOCKED: ATOM     17  C   UNL     1      41.997  16.729 122.228 -0.30 -0.00    +0.000 A 
DOCKED: ATOM     18  C   UNL     1      42.594  16.127 121.112 -0.25 -0.00    +0.000 A 
DOCKED: ATOM     19  C   UNL     1      43.984  16.112 120.981 -0.24 -0.00    +0.000 A 
DOCKED: ATOM     20  C   UNL     1      44.769  16.687 121.981 -0.25 -0.00    +0.000 A 
DOCKED: ATOM     21  N   UNL     1      44.182  17.245 123.072 -0.35 -0.00    +0.000 NA
DOCKED: ATOM     22  C   UNL     1      42.831  17.278 123.219 -0.28 -0.00    +0.000 A 
DOCKED: ATOM     23  CM  UNL     1      43.414  16.711 122.125 +0.00 -0.00    +0.000 AC
DOCKED: ENDBRANCH  14  17
DOCKED: ENDBRANCH  12  13
DOCKED: ENDBRANCH   1  12
DOCKED: TORSDOF 9DOCKED: TER
DOCKED: ENDMDL
________________________________________________________________________________


	BEGINNING GENETIC ALGORITHM DOCKING 60 of 100
Run: 60 Seed: 1218495930 558715978 [ Run 60 of 100 GA/GALS ]
Beginning LAMARCKIAN GENETIC ALGORITHM (LGA), with a maximum of 2500000 energy evaluations.

Final-Value: -14.647


	FINAL GENETIC ALGORITHM DOCKED STATE
	_______________________________________________


Detailed state:  trans 34.499 12.626 121.307 quatxyzw 0.320136 0.869742 -0.140742 0.348216 center -0.029 -0.207 0.469 ntor 9 3.7385 -36.8234 123.9944 -148.1882 159.0512 131.0922 152.4448 -123.2077 -33.7128
State:	 34.499  12.626 121.307   0.342  0.928 -0.150 139.244      3.74  -36.82  123.99 -148.19  159.05  131.09  152.44 -123.21  -33.71

DOCKED: MODEL       60
DOCKED: USER    Run = 60
DOCKED: USER    DPF = ligand_dock.biased.dpf
DOCKED: USER  
DOCKED: USER    Estimated Free Energy of Binding    =  -10.70 kcal/mol  [=(1)+(2)+(3)-(4)]
DOCKED: USER    Estimated Inhibition Constant, Ki   =   14.23 nM (nanomolar)  [Temperature = 298.15 K]
DOCKED: USER    
DOCKED: USER    (1) Final Intermolecular Energy     =  -13.39 kcal/mol
DOCKED: USER        vdW + Hbond + desolv Energy     =  -13.39 kcal/mol
DOCKED: USER        Electrostatic Energy            =   +0.00 kcal/mol
DOCKED: USER    (2) Final Total Internal Energy     =   -1.26 kcal/mol
DOCKED: USER    (3) Torsional Free Energy           =   +2.68 kcal/mol
DOCKED: USER    (4) Unbound System's Energy  [=(2)] =   -1.26 kcal/mol
DOCKED: USER    
DOCKED: USER    
DOCKED: USER    NEWDPF move ligand.dum.pdbqt
DOCKED: USER    NEWDPF about -0.029000 -0.207000 0.469000
DOCKED: USER    NEWDPF tran0 34.498868 12.625812 121.306561
DOCKED: USER    NEWDPF quaternion0 0.320136 0.869742 -0.140742 0.348216
DOCKED: USER    NEWDPF axisangle0 0.341509 0.927809 -0.150139 139.243529
DOCKED: USER    NEWDPF quat0 0.341509 0.927809 -0.150139 139.243529
DOCKED: USER    NEWDPF dihe0 3.74 -36.82 123.99 -148.19 159.05 131.09 152.44 -123.21 -33.71 
DOCKED: USER  keepresnum = 1 
DOCKED: USER  
DOCKED: REMARK  Name = 
DOCKED: REMARK  9 active torsions:
DOCKED: REMARK  status: ('A' for Active; 'I' for Inactive)
DOCKED: REMARK    1  A    between atoms: C_2  and  C_5
DOCKED: REMARK    2  A    between atoms: N_3  and  O_4
DOCKED: REMARK    3  A    between atoms: C_5  and  C_6
DOCKED: REMARK    4  A    between atoms: C_6  and  C_7
DOCKED: REMARK    5  A    between atoms: C_7  and  C_8
DOCKED: REMARK    6  A    between atoms: C_8  and  C_9
DOCKED: REMARK    7  A    between atoms: C_9  and  C_10
DOCKED: REMARK    8  A    between atoms: C_10  and  C_11
DOCKED: REMARK    9  A    between atoms: N_12  and  C_13
DOCKED: REMARK                            x       y       z     vdW  Elec       q    Type
DOCKED: REMARK                         _______ _______ _______ _____ _____    ______ ____
DOCKED: USER                              x       y       z     vdW  Elec       q    Type
DOCKED: USER                           _______ _______ _______ _____ _____    ______ ____
DOCKED: ROOT
DOCKED: ATOM      1  C   UNL     1      36.439  12.254 123.834 -0.68 -0.00    +0.000 C 
DOCKED: ENDROOT
DOCKED: BRANCH   1   2
DOCKED: ATOM      2  C   UNL     1      36.072  13.537 123.072 -0.49 -0.00    +0.000 C 
DOCKED: BRANCH   2   3
DOCKED: ATOM      3  C   UNL     1      37.143  13.884 122.029 -0.44 -0.00    +0.000 C 
DOCKED: BRANCH   3   4
DOCKED: ATOM      4  C   UNL     1      38.555  13.983 122.635 -0.43 -0.00    +0.000 C 
DOCKED: BRANCH   4   5
DOCKED: ATOM      5  C   UNL     1      39.360  15.208 122.171 -0.38 -0.00    +0.000 C 
DOCKED: BRANCH   5   7
DOCKED: ATOM      6  O   UNL     1      41.401  14.094 122.727 -1.07 +0.00    +0.000 OA
DOCKED: ATOM      7  C   UNL     1      40.771  15.185 122.685 -0.48 -0.00    +0.000 C 
DOCKED: ATOM      8  N   UNL     1      41.392  16.386 123.154 -0.38 -0.00    +0.000 N 
DOCKED: ATOM      9  H   UNL     1      40.895  17.235 123.125 -0.01 -0.00    +0.000 HD
DOCKED: BRANCH   8  10
DOCKED: ATOM     10  O   UNL     1      42.656  16.364 123.636 -1.05 +0.00    +0.000 OA
DOCKED: ATOM     11  H   UNL     1      43.023  15.472 123.542 -0.07 +0.00    +0.000 HD
DOCKED: ENDBRANCH   8  10
DOCKED: ENDBRANCH   5   7
DOCKED: ENDBRANCH   4   5
DOCKED: ENDBRANCH   3   4
DOCKED: ENDBRANCH   2   3
DOCKED: ENDBRANCH   1   2
DOCKED: BRANCH   1  12
DOCKED: ATOM     12  C   UNL     1      37.295  11.301 122.989 -0.43 -0.00    +0.000 C 
DOCKED: BRANCH  12  13
DOCKED: ATOM     13  C   UNL     1      36.482  10.154 122.465 -0.69 -0.00    +0.000 C 
DOCKED: ATOM     14  N   UNL     1      35.344   9.681 123.202 -0.56 -0.00    +0.000 N 
DOCKED: ATOM     15  O   UNL     1      36.816   9.605 121.380 -2.21 -0.00    +0.000 OA
DOCKED: ATOM     16  H   UNL     1      34.933  10.291 123.857 -0.44 -0.00    +0.000 HD
DOCKED: BRANCH  14  17
DOCKED: ATOM     17  C   UNL     1      34.766   8.374 123.044 -0.60 -0.00    +0.000 A 
DOCKED: ATOM     18  C   UNL     1      35.556   7.237 123.260 -0.66 -0.00    +0.000 A 
DOCKED: ATOM     19  C   UNL     1      35.017   5.962 123.078 -0.67 -0.00    +0.000 A 
DOCKED: ATOM     20  C   UNL     1      33.690   5.835 122.664 -0.59 -0.00    +0.000 A 
DOCKED: ATOM     21  N   UNL     1      32.940   6.944 122.432 -0.47 -0.00    +0.000 NA
DOCKED: ATOM     22  C   UNL     1      33.440   8.196 122.608 -0.60 -0.00    +0.000 A 
DOCKED: ATOM     23  CM  UNL     1      34.200   7.087 122.836 +0.00 -0.00    +0.000 AC
DOCKED: ENDBRANCH  14  17
DOCKED: ENDBRANCH  12  13
DOCKED: ENDBRANCH   1  12
DOCKED: TORSDOF 9DOCKED: TER
DOCKED: ENDMDL
________________________________________________________________________________


	BEGINNING GENETIC ALGORITHM DOCKING 61 of 100
Run: 61 Seed: 1316086859 258246133 [ Run 61 of 100 GA/GALS ]
Beginning LAMARCKIAN GENETIC ALGORITHM (LGA), with a maximum of 2500000 energy evaluations.

Final-Value: -13.223


	FINAL GENETIC ALGORITHM DOCKED STATE
	_______________________________________________


Detailed state:  trans 39.305 13.249 125.236 quatxyzw 0.180990 -0.117266 0.976454 -0.005463 center -0.029 -0.207 0.469 ntor 9 28.9004 -115.0026 -176.3637 20.9781 53.2767 -72.1031 34.8214 -137.6402 -43.3098
State:	 39.305  13.249 125.236   0.181 -0.117  0.976 -179.374     28.90 -115.00 -176.36   20.98   53.28  -72.10   34.82 -137.64  -43.31

DOCKED: MODEL       61
DOCKED: USER    Run = 61
DOCKED: USER    DPF = ligand_dock.biased.dpf
DOCKED: USER  
DOCKED: USER    Estimated Free Energy of Binding    =   -9.37 kcal/mol  [=(1)+(2)+(3)-(4)]
DOCKED: USER    Estimated Inhibition Constant, Ki   =  135.55 nM (nanomolar)  [Temperature = 298.15 K]
DOCKED: USER    
DOCKED: USER    (1) Final Intermolecular Energy     =  -12.05 kcal/mol
DOCKED: USER        vdW + Hbond + desolv Energy     =  -12.05 kcal/mol
DOCKED: USER        Electrostatic Energy            =   +0.00 kcal/mol
DOCKED: USER    (2) Final Total Internal Energy     =   -1.17 kcal/mol
DOCKED: USER    (3) Torsional Free Energy           =   +2.68 kcal/mol
DOCKED: USER    (4) Unbound System's Energy  [=(2)] =   -1.17 kcal/mol
DOCKED: USER    
DOCKED: USER    
DOCKED: USER    NEWDPF move ligand.dum.pdbqt
DOCKED: USER    NEWDPF about -0.029000 -0.207000 0.469000
DOCKED: USER    NEWDPF tran0 39.304676 13.248717 125.235850
DOCKED: USER    NEWDPF quaternion0 0.180990 -0.117266 0.976454 -0.005463
DOCKED: USER    NEWDPF axisangle0 0.180992 -0.117268 0.976468 -179.373984
DOCKED: USER    NEWDPF quat0 0.180992 -0.117268 0.976468 -179.373984
DOCKED: USER    NEWDPF dihe0 28.90 -115.00 -176.36 20.98 53.28 -72.10 34.82 -137.64 -43.31 
DOCKED: USER  keepresnum = 1 
DOCKED: USER  
DOCKED: REMARK  Name = 
DOCKED: REMARK  9 active torsions:
DOCKED: REMARK  status: ('A' for Active; 'I' for Inactive)
DOCKED: REMARK    1  A    between atoms: C_2  and  C_5
DOCKED: REMARK    2  A    between atoms: N_3  and  O_4
DOCKED: REMARK    3  A    between atoms: C_5  and  C_6
DOCKED: REMARK    4  A    between atoms: C_6  and  C_7
DOCKED: REMARK    5  A    between atoms: C_7  and  C_8
DOCKED: REMARK    6  A    between atoms: C_8  and  C_9
DOCKED: REMARK    7  A    between atoms: C_9  and  C_10
DOCKED: REMARK    8  A    between atoms: C_10  and  C_11
DOCKED: REMARK    9  A    between atoms: N_12  and  C_13
DOCKED: REMARK                            x       y       z     vdW  Elec       q    Type
DOCKED: REMARK                         _______ _______ _______ _____ _____    ______ ____
DOCKED: USER                              x       y       z     vdW  Elec       q    Type
DOCKED: USER                           _______ _______ _______ _____ _____    ______ ____
DOCKED: ROOT
DOCKED: ATOM      1  C   UNL     1      38.235  14.535 122.499 -0.44 -0.00    +0.000 C 
DOCKED: ENDROOT
DOCKED: BRANCH   1   2
DOCKED: ATOM      2  C   UNL     1      37.839  13.211 123.169 -0.49 -0.00    +0.000 C 
DOCKED: BRANCH   2   3
DOCKED: ATOM      3  C   UNL     1      36.353  12.900 122.940 -0.59 -0.00    +0.000 C 
DOCKED: BRANCH   3   4
DOCKED: ATOM      4  C   UNL     1      36.128  11.839 121.846 -0.44 -0.00    +0.000 C 
DOCKED: BRANCH   4   5
DOCKED: ATOM      5  C   UNL     1      35.408  10.570 122.331 -0.61 -0.00    +0.000 C 
DOCKED: BRANCH   5   7
DOCKED: ATOM      6  O   UNL     1      37.062   9.213 121.266 -2.67 -0.00    +0.000 OA
DOCKED: ATOM      7  C   UNL     1      36.287   9.355 122.250 -0.70 -0.00    +0.000 C 
DOCKED: ATOM      8  N   UNL     1      36.228   8.348 123.263 -0.66 -0.00    +0.000 N 
DOCKED: ATOM      9  H   UNL     1      35.616   8.460 124.027 -0.07 -0.00    +0.000 HD
DOCKED: BRANCH   8  10
DOCKED: ATOM     10  O   UNL     1      37.005   7.243 123.183 -2.03 -0.00    +0.000 OA
DOCKED: ATOM     11  H   UNL     1      37.819   7.455 122.700 -0.34 -0.00    +0.000 HD
DOCKED: ENDBRANCH   8  10
DOCKED: ENDBRANCH   5   7
DOCKED: ENDBRANCH   4   5
DOCKED: ENDBRANCH   3   4
DOCKED: ENDBRANCH   2   3
DOCKED: ENDBRANCH   1   2
DOCKED: BRANCH   1  12
DOCKED: ATOM     12  C   UNL     1      39.675  14.511 121.969 -0.36 -0.00    +0.000 C 
DOCKED: BRANCH  12  13
DOCKED: ATOM     13  C   UNL     1      40.556  15.456 122.731 -0.41 -0.00    +0.000 C 
DOCKED: ATOM     14  N   UNL     1      40.086  16.773 123.059 -0.27 -0.00    +0.000 N 
DOCKED: ATOM     15  O   UNL     1      41.713  15.085 123.070 -1.03 +0.00    +0.000 OA
DOCKED: ATOM     16  H   UNL     1      39.114  16.929 123.059 -0.00 -0.00    +0.000 HD
DOCKED: BRANCH  14  17
DOCKED: ATOM     17  C   UNL     1      40.946  17.878 123.387 -0.23 -0.00    +0.000 A 
DOCKED: ATOM     18  C   UNL     1      40.663  18.665 124.512 -0.22 -0.00    +0.000 A 
DOCKED: ATOM     19  C   UNL     1      41.470  19.761 124.823 -0.13 -0.00    +0.000 A 
DOCKED: ATOM     20  C   UNL     1      42.548  20.072 123.993 -0.05 -0.00    +0.000 A 
DOCKED: ATOM     21  N   UNL     1      42.798  19.318 122.891 -0.13 -0.00    +0.000 NA
DOCKED: ATOM     22  C   UNL     1      42.031  18.243 122.569 -0.17 -0.00    +0.000 A 
DOCKED: ATOM     23  CM  UNL     1      41.771  18.998 123.674 +0.00 -0.00    +0.000 AC
DOCKED: ENDBRANCH  14  17
DOCKED: ENDBRANCH  12  13
DOCKED: ENDBRANCH   1  12
DOCKED: TORSDOF 9DOCKED: TER
DOCKED: ENDMDL
________________________________________________________________________________


	BEGINNING GENETIC ALGORITHM DOCKING 62 of 100
Run: 62 Seed: 814039380 992714991 [ Run 62 of 100 GA/GALS ]
Beginning LAMARCKIAN GENETIC ALGORITHM (LGA), with a maximum of 2500000 energy evaluations.

Final-Value: -13.436


	FINAL GENETIC ALGORITHM DOCKED STATE
	_______________________________________________


Detailed state:  trans 39.631 13.354 119.616 quatxyzw -0.903780 0.013244 -0.328145 0.274458 center -0.029 -0.207 0.469 ntor 9 -23.0979 178.5468 41.7762 -177.1148 99.0082 73.2906 175.8461 65.9938 -19.3295
State:	 39.631  13.354 119.616  -0.940  0.014 -0.341 148.141    -23.10  178.55   41.78 -177.11   99.01   73.29  175.85   65.99  -19.33

DOCKED: MODEL       62
DOCKED: USER    Run = 62
DOCKED: USER    DPF = ligand_dock.biased.dpf
DOCKED: USER  
DOCKED: USER    Estimated Free Energy of Binding    =   -9.33 kcal/mol  [=(1)+(2)+(3)-(4)]
DOCKED: USER    Estimated Inhibition Constant, Ki   =  145.18 nM (nanomolar)  [Temperature = 298.15 K]
DOCKED: USER    
DOCKED: USER    (1) Final Intermolecular Energy     =  -12.01 kcal/mol
DOCKED: USER        vdW + Hbond + desolv Energy     =  -12.01 kcal/mol
DOCKED: USER        Electrostatic Energy            =   +0.00 kcal/mol
DOCKED: USER    (2) Final Total Internal Energy     =   -1.42 kcal/mol
DOCKED: USER    (3) Torsional Free Energy           =   +2.68 kcal/mol
DOCKED: USER    (4) Unbound System's Energy  [=(2)] =   -1.42 kcal/mol
DOCKED: USER    
DOCKED: USER    
DOCKED: USER    NEWDPF move ligand.dum.pdbqt
DOCKED: USER    NEWDPF about -0.029000 -0.207000 0.469000
DOCKED: USER    NEWDPF tran0 39.630507 13.353920 119.615684
DOCKED: USER    NEWDPF quaternion0 -0.903780 0.013244 -0.328145 0.274458
DOCKED: USER    NEWDPF axisangle0 -0.939872 0.013773 -0.341249 148.140512
DOCKED: USER    NEWDPF quat0 -0.939872 0.013773 -0.341249 148.140512
DOCKED: USER    NEWDPF dihe0 -23.10 178.55 41.78 -177.11 99.01 73.29 175.85 65.99 -19.33 
DOCKED: USER  keepresnum = 1 
DOCKED: USER  
DOCKED: REMARK  Name = 
DOCKED: REMARK  9 active torsions:
DOCKED: REMARK  status: ('A' for Active; 'I' for Inactive)
DOCKED: REMARK    1  A    between atoms: C_2  and  C_5
DOCKED: REMARK    2  A    between atoms: N_3  and  O_4
DOCKED: REMARK    3  A    between atoms: C_5  and  C_6
DOCKED: REMARK    4  A    between atoms: C_6  and  C_7
DOCKED: REMARK    5  A    between atoms: C_7  and  C_8
DOCKED: REMARK    6  A    between atoms: C_8  and  C_9
DOCKED: REMARK    7  A    between atoms: C_9  and  C_10
DOCKED: REMARK    8  A    between atoms: C_10  and  C_11
DOCKED: REMARK    9  A    between atoms: N_12  and  C_13
DOCKED: REMARK                            x       y       z     vdW  Elec       q    Type
DOCKED: REMARK                         _______ _______ _______ _____ _____    ______ ____
DOCKED: USER                              x       y       z     vdW  Elec       q    Type
DOCKED: USER                           _______ _______ _______ _____ _____    ______ ____
DOCKED: ROOT
DOCKED: ATOM      1  C   UNL     1      37.889  15.432 121.330 -0.27 -0.00    +0.000 C 
DOCKED: ENDROOT
DOCKED: BRANCH   1   2
DOCKED: ATOM      2  C   UNL     1      38.616  14.160 121.794 -0.41 -0.00    +0.000 C 
DOCKED: BRANCH   2   3
DOCKED: ATOM      3  C   UNL     1      37.875  12.900 121.327 -0.45 -0.00    +0.000 C 
DOCKED: BRANCH   3   4
DOCKED: ATOM      4  C   UNL     1      37.258  12.104 122.492 -0.54 -0.00    +0.000 C 
DOCKED: BRANCH   4   5
DOCKED: ATOM      5  C   UNL     1      36.221  11.053 122.065 -0.61 -0.00    +0.000 C 
DOCKED: BRANCH   5   7
DOCKED: ATOM      6  O   UNL     1      37.069   9.075 121.025 -2.72 -0.00    +0.000 OA
DOCKED: ATOM      7  C   UNL     1      36.779   9.659 122.104 -0.67 -0.00    +0.000 C 
DOCKED: ATOM      8  N   UNL     1      36.956   8.983 123.352 -0.61 -0.00    +0.000 N 
DOCKED: ATOM      9  H   UNL     1      36.723   9.441 124.192 -0.49 -0.00    +0.000 HD
DOCKED: BRANCH   8  10
DOCKED: ATOM     10  O   UNL     1      37.441   7.720 123.388 -2.18 -0.00    +0.000 OA
DOCKED: ATOM     11  H   UNL     1      37.280   7.287 122.536 -0.14 -0.00    +0.000 HD
DOCKED: ENDBRANCH   8  10
DOCKED: ENDBRANCH   5   7
DOCKED: ENDBRANCH   4   5
DOCKED: ENDBRANCH   3   4
DOCKED: ENDBRANCH   2   3
DOCKED: ENDBRANCH   1   2
DOCKED: BRANCH   1  12
DOCKED: ATOM     12  C   UNL     1      36.692  15.118 120.422 -0.08 -0.00    +0.000 C 
DOCKED: BRANCH  12  13
DOCKED: ATOM     13  C   UNL     1      37.100  15.047 118.981 -0.26 -0.00    +0.000 C 
DOCKED: ATOM     14  N   UNL     1      36.269  14.365 118.029 -0.32 -0.00    +0.000 N 
DOCKED: ATOM     15  O   UNL     1      38.183  15.583 118.618 -0.17 -0.00    +0.000 OA
DOCKED: ATOM     16  H   UNL     1      35.321  14.228 118.258 -0.03 -0.00    +0.000 HD
DOCKED: BRANCH  14  17
DOCKED: ATOM     17  C   UNL     1      36.733  13.868 116.762 -0.33 -0.00    +0.000 A 
DOCKED: ATOM     18  C   UNL     1      38.069  13.468 116.622 -0.36 -0.00    +0.000 A 
DOCKED: ATOM     19  C   UNL     1      38.541  13.015 115.389 -0.50 -0.00    +0.000 A 
DOCKED: ATOM     20  C   UNL     1      37.674  12.982 114.296 -0.28 -0.00    +0.000 A 
DOCKED: ATOM     21  N   UNL     1      36.388  13.397 114.436 -0.33 -0.00    +0.000 NA
DOCKED: ATOM     22  C   UNL     1      35.902  13.837 115.627 -0.25 -0.00    +0.000 A 
DOCKED: ATOM     23  CM  UNL     1      37.195  13.427 115.493 +0.00 -0.00    +0.000 AC
DOCKED: ENDBRANCH  14  17
DOCKED: ENDBRANCH  12  13
DOCKED: ENDBRANCH   1  12
DOCKED: TORSDOF 9DOCKED: TER
DOCKED: ENDMDL
________________________________________________________________________________


	BEGINNING GENETIC ALGORITHM DOCKING 63 of 100
Run: 63 Seed: 724153336 2055525413 [ Run 63 of 100 GA/GALS ]
Beginning LAMARCKIAN GENETIC ALGORITHM (LGA), with a maximum of 2500000 energy evaluations.

Final-Value: -13.337


	FINAL GENETIC ALGORITHM DOCKED STATE
	_______________________________________________


Detailed state:  trans 39.237 11.851 120.501 quatxyzw 0.722580 -0.518715 0.409901 0.201974 center -0.029 -0.207 0.469 ntor 9 2.2196 -32.0759 -98.8438 179.8862 126.4014 -84.5683 24.5413 -163.7947 -119.6722
State:	 39.237  11.851 120.501   0.738 -0.530  0.419 156.695      2.22  -32.08  -98.84  179.89  126.40  -84.57   24.54 -163.79 -119.67

DOCKED: MODEL       63
DOCKED: USER    Run = 63
DOCKED: USER    DPF = ligand_dock.biased.dpf
DOCKED: USER  
DOCKED: USER    Estimated Free Energy of Binding    =   -9.79 kcal/mol  [=(1)+(2)+(3)-(4)]
DOCKED: USER    Estimated Inhibition Constant, Ki   =   66.12 nM (nanomolar)  [Temperature = 298.15 K]
DOCKED: USER    
DOCKED: USER    (1) Final Intermolecular Energy     =  -12.48 kcal/mol
DOCKED: USER        vdW + Hbond + desolv Energy     =  -12.48 kcal/mol
DOCKED: USER        Electrostatic Energy            =   +0.00 kcal/mol
DOCKED: USER    (2) Final Total Internal Energy     =   -0.86 kcal/mol
DOCKED: USER    (3) Torsional Free Energy           =   +2.68 kcal/mol
DOCKED: USER    (4) Unbound System's Energy  [=(2)] =   -0.86 kcal/mol
DOCKED: USER    
DOCKED: USER    
DOCKED: USER    NEWDPF move ligand.dum.pdbqt
DOCKED: USER    NEWDPF about -0.029000 -0.207000 0.469000
DOCKED: USER    NEWDPF tran0 39.237415 11.850644 120.501216
DOCKED: USER    NEWDPF quaternion0 0.722580 -0.518715 0.409901 0.201974
DOCKED: USER    NEWDPF axisangle0 0.737785 -0.529631 0.418526 156.695146
DOCKED: USER    NEWDPF quat0 0.737785 -0.529631 0.418526 156.695146
DOCKED: USER    NEWDPF dihe0 2.22 -32.08 -98.84 179.89 126.40 -84.57 24.54 -163.79 -119.67 
DOCKED: USER  keepresnum = 1 
DOCKED: USER  
DOCKED: REMARK  Name = 
DOCKED: REMARK  9 active torsions:
DOCKED: REMARK  status: ('A' for Active; 'I' for Inactive)
DOCKED: REMARK    1  A    between atoms: C_2  and  C_5
DOCKED: REMARK    2  A    between atoms: N_3  and  O_4
DOCKED: REMARK    3  A    between atoms: C_5  and  C_6
DOCKED: REMARK    4  A    between atoms: C_6  and  C_7
DOCKED: REMARK    5  A    between atoms: C_7  and  C_8
DOCKED: REMARK    6  A    between atoms: C_8  and  C_9
DOCKED: REMARK    7  A    between atoms: C_9  and  C_10
DOCKED: REMARK    8  A    between atoms: C_10  and  C_11
DOCKED: REMARK    9  A    between atoms: N_12  and  C_13
DOCKED: REMARK                            x       y       z     vdW  Elec       q    Type
DOCKED: REMARK                         _______ _______ _______ _____ _____    ______ ____
DOCKED: USER                              x       y       z     vdW  Elec       q    Type
DOCKED: USER                           _______ _______ _______ _____ _____    ______ ____
DOCKED: ROOT
DOCKED: ATOM      1  C   UNL     1      37.040  12.500 122.746 -0.61 -0.00    +0.000 C 
DOCKED: ENDROOT
DOCKED: BRANCH   1   2
DOCKED: ATOM      2  C   UNL     1      37.066  11.362 121.714 -0.55 -0.00    +0.000 C 
DOCKED: BRANCH   2   3
DOCKED: ATOM      3  C   UNL     1      36.690  10.022 122.361 -0.69 -0.00    +0.000 C 
DOCKED: BRANCH   3   4
DOCKED: ATOM      4  C   UNL     1      35.176   9.743 122.318 -0.64 -0.00    +0.000 C 
DOCKED: BRANCH   4   5
DOCKED: ATOM      5  C   UNL     1      34.719   8.579 123.212 -0.61 -0.00    +0.000 C 
DOCKED: BRANCH   5   7
DOCKED: ATOM      6  O   UNL     1      36.944   7.711 123.336 -2.26 -0.00    +0.000 OA
DOCKED: ATOM      7  C   UNL     1      35.714   7.453 123.227 -0.75 -0.00    +0.000 C 
DOCKED: ATOM      8  N   UNL     1      35.278   6.099 123.088 -0.73 -0.00    +0.000 N 
DOCKED: ATOM      9  H   UNL     1      34.318   5.902 122.996 -0.11 -0.00    +0.000 HD
DOCKED: BRANCH   8  10
DOCKED: ATOM     10  O   UNL     1      36.174   5.084 123.081 -1.13 -0.00    +0.000 OA
DOCKED: ATOM     11  H   UNL     1      37.067   5.440 123.215 -0.11 -0.00    +0.000 HD
DOCKED: ENDBRANCH   8  10
DOCKED: ENDBRANCH   5   7
DOCKED: ENDBRANCH   4   5
DOCKED: ENDBRANCH   3   4
DOCKED: ENDBRANCH   2   3
DOCKED: ENDBRANCH   1   2
DOCKED: BRANCH   1  12
DOCKED: ATOM     12  C   UNL     1      36.833  13.873 122.091 -0.39 -0.00    +0.000 C 
DOCKED: BRANCH  12  13
DOCKED: ATOM     13  C   UNL     1      36.587  14.938 123.119 -0.45 -0.00    +0.000 C 
DOCKED: ATOM     14  N   UNL     1      35.359  14.953 123.862 -0.53 -0.00    +0.000 N 
DOCKED: ATOM     15  O   UNL     1      37.464  15.823 123.314 -0.37 -0.00    +0.000 OA
DOCKED: ATOM     16  H   UNL     1      34.842  14.116 123.917 -0.05 -0.00    +0.000 HD
DOCKED: BRANCH  14  17
DOCKED: ATOM     17  C   UNL     1      34.834  16.112 124.532 -0.47 -0.00    +0.000 A 
DOCKED: ATOM     18  C   UNL     1      35.171  17.391 124.069 -0.33 -0.00    +0.000 A 
DOCKED: ATOM     19  C   UNL     1      34.695  18.525 124.729 -0.28 -0.00    +0.000 A 
DOCKED: ATOM     20  C   UNL     1      33.896  18.370 125.863 -0.31 -0.00    +0.000 A 
DOCKED: ATOM     21  N   UNL     1      33.598  17.126 126.320 -0.44 -0.00    +0.000 NA
DOCKED: ATOM     22  C   UNL     1      34.043  16.006 125.691 -0.37 -0.00    +0.000 A 
DOCKED: ATOM     23  CM  UNL     1      34.352  17.251 125.231 -0.32 -0.00    +0.000 AC
DOCKED: ENDBRANCH  14  17
DOCKED: ENDBRANCH  12  13
DOCKED: ENDBRANCH   1  12
DOCKED: TORSDOF 9DOCKED: TER
DOCKED: ENDMDL
________________________________________________________________________________


	BEGINNING GENETIC ALGORITHM DOCKING 64 of 100
Run: 64 Seed: 160583631 1066038691 [ Run 64 of 100 GA/GALS ]
Beginning LAMARCKIAN GENETIC ALGORITHM (LGA), with a maximum of 2500000 energy evaluations.

Final-Value: -13.825


	FINAL GENETIC ALGORITHM DOCKED STATE
	_______________________________________________


Detailed state:  trans 37.402 13.015 120.833 quatxyzw 0.534349 0.824498 0.184056 0.028251 center -0.029 -0.207 0.469 ntor 9 -5.1399 -177.6135 -9.2499 -92.8303 -163.3918 73.6797 -62.8142 -149.4794 -59.7880
State:	 37.402  13.015 120.833   0.535  0.825  0.184 176.762     -5.14 -177.61   -9.25  -92.83 -163.39   73.68  -62.81 -149.48  -59.79

DOCKED: MODEL       64
DOCKED: USER    Run = 64
DOCKED: USER    DPF = ligand_dock.biased.dpf
DOCKED: USER  
DOCKED: USER    Estimated Free Energy of Binding    =   -9.64 kcal/mol  [=(1)+(2)+(3)-(4)]
DOCKED: USER    Estimated Inhibition Constant, Ki   =   86.23 nM (nanomolar)  [Temperature = 298.15 K]
DOCKED: USER    
DOCKED: USER    (1) Final Intermolecular Energy     =  -12.32 kcal/mol
DOCKED: USER        vdW + Hbond + desolv Energy     =  -12.32 kcal/mol
DOCKED: USER        Electrostatic Energy            =   +0.00 kcal/mol
DOCKED: USER    (2) Final Total Internal Energy     =   -1.50 kcal/mol
DOCKED: USER    (3) Torsional Free Energy           =   +2.68 kcal/mol
DOCKED: USER    (4) Unbound System's Energy  [=(2)] =   -1.50 kcal/mol
DOCKED: USER    
DOCKED: USER    
DOCKED: USER    NEWDPF move ligand.dum.pdbqt
DOCKED: USER    NEWDPF about -0.029000 -0.207000 0.469000
DOCKED: USER    NEWDPF tran0 37.401698 13.014970 120.833486
DOCKED: USER    NEWDPF quaternion0 0.534349 0.824498 0.184056 0.028251
DOCKED: USER    NEWDPF axisangle0 0.534562 0.824827 0.184129 176.762300
DOCKED: USER    NEWDPF quat0 0.534562 0.824827 0.184129 176.762300
DOCKED: USER    NEWDPF dihe0 -5.14 -177.61 -9.25 -92.83 -163.39 73.68 -62.81 -149.48 -59.79 
DOCKED: USER  keepresnum = 1 
DOCKED: USER  
DOCKED: REMARK  Name = 
DOCKED: REMARK  9 active torsions:
DOCKED: REMARK  status: ('A' for Active; 'I' for Inactive)
DOCKED: REMARK    1  A    between atoms: C_2  and  C_5
DOCKED: REMARK    2  A    between atoms: N_3  and  O_4
DOCKED: REMARK    3  A    between atoms: C_5  and  C_6
DOCKED: REMARK    4  A    between atoms: C_6  and  C_7
DOCKED: REMARK    5  A    between atoms: C_7  and  C_8
DOCKED: REMARK    6  A    between atoms: C_8  and  C_9
DOCKED: REMARK    7  A    between atoms: C_9  and  C_10
DOCKED: REMARK    8  A    between atoms: C_10  and  C_11
DOCKED: REMARK    9  A    between atoms: N_12  and  C_13
DOCKED: REMARK                            x       y       z     vdW  Elec       q    Type
DOCKED: REMARK                         _______ _______ _______ _____ _____    ______ ____
DOCKED: USER                              x       y       z     vdW  Elec       q    Type
DOCKED: USER                           _______ _______ _______ _____ _____    ______ ____
DOCKED: ROOT
DOCKED: ATOM      1  C   UNL     1      36.422  11.744 123.611 -0.71 -0.00    +0.000 C 
DOCKED: ENDROOT
DOCKED: BRANCH   1   2
DOCKED: ATOM      2  C   UNL     1      37.292  12.987 123.365 -0.59 -0.00    +0.000 C 
DOCKED: BRANCH   2   3
DOCKED: ATOM      3  C   UNL     1      36.667  13.895 122.297 -0.40 -0.00    +0.000 C 
DOCKED: BRANCH   3   4
DOCKED: ATOM      4  C   UNL     1      37.490  13.938 120.996 -0.40 -0.00    +0.000 C 
DOCKED: BRANCH   4   5
DOCKED: ATOM      5  C   UNL     1      38.436  15.145 120.883 -0.28 -0.00    +0.000 C 
DOCKED: BRANCH   5   7
DOCKED: ATOM      6  O   UNL     1      39.043  16.142 122.970 -0.31 -0.00    +0.000 OA
DOCKED: ATOM      7  C   UNL     1      39.321  15.284 122.089 -0.37 -0.00    +0.000 C 
DOCKED: ATOM      8  N   UNL     1      40.490  14.472 122.228 -0.42 -0.00    +0.000 N 
DOCKED: ATOM      9  H   UNL     1      40.707  13.807 121.535 -0.02 +0.00    +0.000 HD
DOCKED: BRANCH   8  10
DOCKED: ATOM     10  O   UNL     1      41.299  14.609 123.304 -0.88 +0.00    +0.000 OA
DOCKED: ATOM     11  H   UNL     1      40.995  15.353 123.846 -0.01 +0.00    +0.000 HD
DOCKED: ENDBRANCH   8  10
DOCKED: ENDBRANCH   5   7
DOCKED: ENDBRANCH   4   5
DOCKED: ENDBRANCH   3   4
DOCKED: ENDBRANCH   2   3
DOCKED: ENDBRANCH   1   2
DOCKED: BRANCH   1  12
DOCKED: ATOM     12  C   UNL     1      37.143  10.445 123.227 -0.45 -0.00    +0.000 C 
DOCKED: BRANCH  12  13
DOCKED: ATOM     13  C   UNL     1      36.294   9.592 122.331 -0.70 -0.00    +0.000 C 
DOCKED: ATOM     14  N   UNL     1      34.975   9.204 122.745 -0.60 -0.00    +0.000 N 
DOCKED: ATOM     15  O   UNL     1      36.755   9.213 121.220 -2.64 -0.00    +0.000 OA
DOCKED: ATOM     16  H   UNL     1      34.534   9.739 123.444 -0.46 -0.00    +0.000 HD
DOCKED: BRANCH  14  17
DOCKED: ATOM     17  C   UNL     1      34.256   8.081 122.203 -0.61 -0.00    +0.000 A 
DOCKED: ATOM     18  C   UNL     1      33.975   6.979 123.021 -0.69 -0.00    +0.000 A 
DOCKED: ATOM     19  C   UNL     1      33.307   5.870 122.500 -0.60 -0.00    +0.000 A 
DOCKED: ATOM     20  C   UNL     1      32.940   5.865 121.153 -0.14 -0.00    +0.000 A 
DOCKED: ATOM     21  N   UNL     1      33.241   6.927 120.362 -0.53 -0.00    +0.000 NA
DOCKED: ATOM     22  C   UNL     1      33.885   8.022 120.847 -0.54 -0.00    +0.000 A 
DOCKED: ATOM     23  CM  UNL     1      33.591   6.957 121.645 +0.00 -0.00    +0.000 AC
DOCKED: ENDBRANCH  14  17
DOCKED: ENDBRANCH  12  13
DOCKED: ENDBRANCH   1  12
DOCKED: TORSDOF 9DOCKED: TER
DOCKED: ENDMDL
________________________________________________________________________________


	BEGINNING GENETIC ALGORITHM DOCKING 65 of 100
Run: 65 Seed: 716094719 2008738364 [ Run 65 of 100 GA/GALS ]
Beginning LAMARCKIAN GENETIC ALGORITHM (LGA), with a maximum of 2500000 energy evaluations.

Final-Value: -13.251


	FINAL GENETIC ALGORITHM DOCKED STATE
	_______________________________________________


Detailed state:  trans 35.399 14.373 121.001 quatxyzw -0.299297 -0.701641 0.487194 -0.425163 center -0.029 -0.207 0.469 ntor 9 6.3155 -169.5467 -72.4234 14.9066 -176.1470 -108.1970 -50.7694 -179.6536 6.1428
State:	 35.399  14.373 121.001  -0.331 -0.775  0.538 -129.678      6.32 -169.55  -72.42   14.91 -176.15 -108.20  -50.77 -179.65    6.14

DOCKED: MODEL       65
DOCKED: USER    Run = 65
DOCKED: USER    DPF = ligand_dock.biased.dpf
DOCKED: USER  
DOCKED: USER    Estimated Free Energy of Binding    =   -7.75 kcal/mol  [=(1)+(2)+(3)-(4)]
DOCKED: USER    Estimated Inhibition Constant, Ki   =    2.07 uM (micromolar)  [Temperature = 298.15 K]
DOCKED: USER    
DOCKED: USER    (1) Final Intermolecular Energy     =  -10.44 kcal/mol
DOCKED: USER        vdW + Hbond + desolv Energy     =  -10.44 kcal/mol
DOCKED: USER        Electrostatic Energy            =   +0.00 kcal/mol
DOCKED: USER    (2) Final Total Internal Energy     =   -2.81 kcal/mol
DOCKED: USER    (3) Torsional Free Energy           =   +2.68 kcal/mol
DOCKED: USER    (4) Unbound System's Energy  [=(2)] =   -2.81 kcal/mol
DOCKED: USER    
DOCKED: USER    
DOCKED: USER    NEWDPF move ligand.dum.pdbqt
DOCKED: USER    NEWDPF about -0.029000 -0.207000 0.469000
DOCKED: USER    NEWDPF tran0 35.398543 14.373089 121.000985
DOCKED: USER    NEWDPF quaternion0 -0.299297 -0.701641 0.487194 -0.425163
DOCKED: USER    NEWDPF axisangle0 -0.330672 -0.775193 0.538266 -129.678042
DOCKED: USER    NEWDPF quat0 -0.330672 -0.775193 0.538266 -129.678042
DOCKED: USER    NEWDPF dihe0 6.32 -169.55 -72.42 14.91 -176.15 -108.20 -50.77 -179.65 6.14 
DOCKED: USER  keepresnum = 1 
DOCKED: USER  
DOCKED: REMARK  Name = 
DOCKED: REMARK  9 active torsions:
DOCKED: REMARK  status: ('A' for Active; 'I' for Inactive)
DOCKED: REMARK    1  A    between atoms: C_2  and  C_5
DOCKED: REMARK    2  A    between atoms: N_3  and  O_4
DOCKED: REMARK    3  A    between atoms: C_5  and  C_6
DOCKED: REMARK    4  A    between atoms: C_6  and  C_7
DOCKED: REMARK    5  A    between atoms: C_7  and  C_8
DOCKED: REMARK    6  A    between atoms: C_8  and  C_9
DOCKED: REMARK    7  A    between atoms: C_9  and  C_10
DOCKED: REMARK    8  A    between atoms: C_10  and  C_11
DOCKED: REMARK    9  A    between atoms: N_12  and  C_13
DOCKED: REMARK                            x       y       z     vdW  Elec       q    Type
DOCKED: REMARK                         _______ _______ _______ _____ _____    ______ ____
DOCKED: USER                              x       y       z     vdW  Elec       q    Type
DOCKED: USER                           _______ _______ _______ _____ _____    ______ ____
DOCKED: ROOT
DOCKED: ATOM      1  C   UNL     1      38.204  15.519 122.052 -0.31 -0.00    +0.000 C 
DOCKED: ENDROOT
DOCKED: BRANCH   1   2
DOCKED: ATOM      2  C   UNL     1      37.225  16.130 121.038 -0.21 -0.00    +0.000 C 
DOCKED: BRANCH   2   3
DOCKED: ATOM      3  C   UNL     1      35.850  16.373 121.677 -0.15 -0.00    +0.000 C 
DOCKED: BRANCH   3   4
DOCKED: ATOM      4  C   UNL     1      35.887  17.450 122.777 -0.28 -0.00    +0.000 C 
DOCKED: BRANCH   4   5
DOCKED: ATOM      5  C   UNL     1      35.688  16.909 124.202 -0.37 -0.00    +0.000 C 
DOCKED: BRANCH   5   7
DOCKED: ATOM      6  O   UNL     1      34.008  15.209 124.251 -0.69 -0.00    +0.000 OA
DOCKED: ATOM      7  C   UNL     1      35.239  15.475 124.205 -0.54 -0.00    +0.000 C 
DOCKED: ATOM      8  N   UNL     1      36.198  14.415 124.186 -0.48 -0.00    +0.000 N 
DOCKED: ATOM      9  H   UNL     1      37.159  14.628 124.156 -0.04 -0.00    +0.000 HD
DOCKED: BRANCH   8  10
DOCKED: ATOM     10  O   UNL     1      35.797  13.123 124.208 -0.63 -0.00    +0.000 OA
DOCKED: ATOM     11  H   UNL     1      34.831  13.083 124.136 +0.02 -0.00    +0.000 HD
DOCKED: ENDBRANCH   8  10
DOCKED: ENDBRANCH   5   7
DOCKED: ENDBRANCH   4   5
DOCKED: ENDBRANCH   3   4
DOCKED: ENDBRANCH   2   3
DOCKED: ENDBRANCH   1   2
DOCKED: BRANCH   1  12
DOCKED: ATOM     12  C   UNL     1      38.880  14.250 121.515 -0.39 -0.00    +0.000 C 
DOCKED: BRANCH  12  13
DOCKED: ATOM     13  C   UNL     1      37.880  13.161 121.264 -0.46 -0.00    +0.000 C 
DOCKED: ATOM     14  N   UNL     1      37.482  12.288 122.332 -0.49 -0.00    +0.000 N 
DOCKED: ATOM     15  O   UNL     1      37.402  13.015 120.105 -0.47 -0.00    +0.000 OA
DOCKED: ATOM     16  H   UNL     1      37.622  12.596 123.257 -0.03 -0.00    +0.000 HD
DOCKED: BRANCH  14  17
DOCKED: ATOM     17  C   UNL     1      36.891  10.991 122.137 -0.52 -0.00    +0.000 A 
DOCKED: ATOM     18  C   UNL     1      35.823  10.587 122.949 -0.60 -0.00    +0.000 A 
DOCKED: ATOM     19  C   UNL     1      35.262   9.318 122.793 -0.58 -0.00    +0.000 A 
DOCKED: ATOM     20  C   UNL     1      35.788   8.453 121.833 -0.59 -0.00    +0.000 A 
DOCKED: ATOM     21  N   UNL     1      36.841   8.844 121.068 -2.55 -0.00    +0.000 NA
DOCKED: ATOM     22  C   UNL     1      37.401  10.076 121.197 -0.06 -0.00    +0.000 A 
DOCKED: ATOM     23  CM  UNL     1      36.348   9.688 121.971 +0.00 -0.00    +0.000 AC
DOCKED: ENDBRANCH  14  17
DOCKED: ENDBRANCH  12  13
DOCKED: ENDBRANCH   1  12
DOCKED: TORSDOF 9DOCKED: TER
DOCKED: ENDMDL
________________________________________________________________________________


	BEGINNING GENETIC ALGORITHM DOCKING 66 of 100
Run: 66 Seed: 1875738821 2102344764 [ Run 66 of 100 GA/GALS ]
Beginning LAMARCKIAN GENETIC ALGORITHM (LGA), with a maximum of 2500000 energy evaluations.

Final-Value: -13.330


	FINAL GENETIC ALGORITHM DOCKED STATE
	_______________________________________________


Detailed state:  trans 35.819 15.136 120.444 quatxyzw -0.989262 0.132574 0.009687 -0.060749 center -0.029 -0.207 0.469 ntor 9 13.8039 -128.8883 128.3425 -120.0564 -155.1236 -7.6086 43.5596 -1.9307 -136.3535
State:	 35.819  15.136 120.444  -0.991  0.133  0.010 -173.034     13.80 -128.89  128.34 -120.06 -155.12   -7.61   43.56   -1.93 -136.35

DOCKED: MODEL       66
DOCKED: USER    Run = 66
DOCKED: USER    DPF = ligand_dock.biased.dpf
DOCKED: USER  
DOCKED: USER    Estimated Free Energy of Binding    =   -9.45 kcal/mol  [=(1)+(2)+(3)-(4)]
DOCKED: USER    Estimated Inhibition Constant, Ki   =  118.22 nM (nanomolar)  [Temperature = 298.15 K]
DOCKED: USER    
DOCKED: USER    (1) Final Intermolecular Energy     =  -12.14 kcal/mol
DOCKED: USER        vdW + Hbond + desolv Energy     =  -12.14 kcal/mol
DOCKED: USER        Electrostatic Energy            =   +0.00 kcal/mol
DOCKED: USER    (2) Final Total Internal Energy     =   -1.19 kcal/mol
DOCKED: USER    (3) Torsional Free Energy           =   +2.68 kcal/mol
DOCKED: USER    (4) Unbound System's Energy  [=(2)] =   -1.19 kcal/mol
DOCKED: USER    
DOCKED: USER    
DOCKED: USER    NEWDPF move ligand.dum.pdbqt
DOCKED: USER    NEWDPF about -0.029000 -0.207000 0.469000
DOCKED: USER    NEWDPF tran0 35.818663 15.136281 120.443821
DOCKED: USER    NEWDPF quaternion0 -0.989262 0.132574 0.009687 -0.060749
DOCKED: USER    NEWDPF axisangle0 -0.991093 0.132820 0.009705 -173.034419
DOCKED: USER    NEWDPF quat0 -0.991093 0.132820 0.009705 -173.034419
DOCKED: USER    NEWDPF dihe0 13.80 -128.89 128.34 -120.06 -155.12 -7.61 43.56 -1.93 -136.35 
DOCKED: USER  keepresnum = 1 
DOCKED: USER  
DOCKED: REMARK  Name = 
DOCKED: REMARK  9 active torsions:
DOCKED: REMARK  status: ('A' for Active; 'I' for Inactive)
DOCKED: REMARK    1  A    between atoms: C_2  and  C_5
DOCKED: REMARK    2  A    between atoms: N_3  and  O_4
DOCKED: REMARK    3  A    between atoms: C_5  and  C_6
DOCKED: REMARK    4  A    between atoms: C_6  and  C_7
DOCKED: REMARK    5  A    between atoms: C_7  and  C_8
DOCKED: REMARK    6  A    between atoms: C_8  and  C_9
DOCKED: REMARK    7  A    between atoms: C_9  and  C_10
DOCKED: REMARK    8  A    between atoms: C_10  and  C_11
DOCKED: REMARK    9  A    between atoms: N_12  and  C_13
DOCKED: REMARK                            x       y       z     vdW  Elec       q    Type
DOCKED: REMARK                         _______ _______ _______ _____ _____    ______ ____
DOCKED: USER                              x       y       z     vdW  Elec       q    Type
DOCKED: USER                           _______ _______ _______ _____ _____    ______ ____
DOCKED: ROOT
DOCKED: ATOM      1  C   UNL     1      35.968  15.301 123.644 -0.48 -0.00    +0.000 C 
DOCKED: ENDROOT
DOCKED: BRANCH   1   2
DOCKED: ATOM      2  C   UNL     1      36.288  14.118 122.717 -0.39 -0.00    +0.000 C 
DOCKED: BRANCH   2   3
DOCKED: ATOM      3  C   UNL     1      37.291  13.159 123.372 -0.57 -0.00    +0.000 C 
DOCKED: BRANCH   3   4
DOCKED: ATOM      4  C   UNL     1      37.396  11.811 122.636 -0.45 -0.00    +0.000 C 
DOCKED: BRANCH   4   5
DOCKED: ATOM      5  C   UNL     1      36.399  10.745 123.120 -0.69 -0.00    +0.000 C 
DOCKED: BRANCH   5   7
DOCKED: ATOM      6  O   UNL     1      36.818   9.257 121.296 -2.55 -0.00    +0.000 OA
DOCKED: ATOM      7  C   UNL     1      36.697   9.390 122.544 -0.73 -0.00    +0.000 C 
DOCKED: ATOM      8  N   UNL     1      36.813   8.248 123.398 -0.70 -0.00    +0.000 N 
DOCKED: ATOM      9  H   UNL     1      36.711   8.355 124.371 -0.35 -0.00    +0.000 HD
DOCKED: BRANCH   8  10
DOCKED: ATOM     10  O   UNL     1      37.062   7.023 122.879 -1.76 -0.00    +0.000 OA
DOCKED: ATOM     11  H   UNL     1      37.347   7.114 121.957 -0.17 -0.00    +0.000 HD
DOCKED: ENDBRANCH   8  10
DOCKED: ENDBRANCH   5   7
DOCKED: ENDBRANCH   4   5
DOCKED: ENDBRANCH   3   4
DOCKED: ENDBRANCH   2   3
DOCKED: ENDBRANCH   1   2
DOCKED: BRANCH   1  12
DOCKED: ATOM     12  C   UNL     1      34.471  15.640 123.658 -0.55 -0.00    +0.000 C 
DOCKED: BRANCH  12  13
DOCKED: ATOM     13  C   UNL     1      34.072  16.305 124.942 -0.51 -0.00    +0.000 C 
DOCKED: ATOM     14  N   UNL     1      34.082  17.737 125.045 -0.38 -0.00    +0.000 N 
DOCKED: ATOM     15  O   UNL     1      33.739  15.594 125.929 -0.88 -0.00    +0.000 OA
DOCKED: ATOM     16  H   UNL     1      34.047  18.260 124.211 -0.02 -0.00    +0.000 HD
DOCKED: BRANCH  14  17
DOCKED: ATOM     17  C   UNL     1      34.142  18.457 126.289 -0.27 -0.00    +0.000 A 
DOCKED: ATOM     18  C   UNL     1      35.387  18.732 126.871 -0.16 -0.00    +0.000 A 
DOCKED: ATOM     19  C   UNL     1      35.458  19.401 128.094 -0.10 -0.00    +0.000 A 
DOCKED: ATOM     20  C   UNL     1      34.277  19.776 128.736 -0.06 -0.00    +0.000 A 
DOCKED: ATOM     21  N   UNL     1      33.074  19.481 128.177 -0.12 -0.00    +0.000 NA
DOCKED: ATOM     22  C   UNL     1      32.978  18.836 126.983 -0.24 -0.00    +0.000 A 
DOCKED: ATOM     23  CM  UNL     1      34.188  19.124 127.543 +0.00 -0.00    +0.000 AC
DOCKED: ENDBRANCH  14  17
DOCKED: ENDBRANCH  12  13
DOCKED: ENDBRANCH   1  12
DOCKED: TORSDOF 9DOCKED: TER
DOCKED: ENDMDL
________________________________________________________________________________


	BEGINNING GENETIC ALGORITHM DOCKING 67 of 100
Run: 67 Seed: 1111626755 724011455 [ Run 67 of 100 GA/GALS ]
Beginning LAMARCKIAN GENETIC ALGORITHM (LGA), with a maximum of 2500000 energy evaluations.

Final-Value: -13.597


	FINAL GENETIC ALGORITHM DOCKED STATE
	_______________________________________________


Detailed state:  trans 36.497 13.902 125.256 quatxyzw 0.015662 -0.194473 -0.704095 -0.682778 center -0.029 -0.207 0.469 ntor 9 7.0109 61.7783 -126.7619 -173.4697 74.9068 -177.0386 -27.0317 -147.4656 13.1493
State:	 36.497  13.902 125.256   0.021 -0.266 -0.964 -93.878      7.01   61.78 -126.76 -173.47   74.91 -177.04  -27.03 -147.47   13.15

DOCKED: MODEL       67
DOCKED: USER    Run = 67
DOCKED: USER    DPF = ligand_dock.biased.dpf
DOCKED: USER  
DOCKED: USER    Estimated Free Energy of Binding    =   -9.22 kcal/mol  [=(1)+(2)+(3)-(4)]
DOCKED: USER    Estimated Inhibition Constant, Ki   =  174.51 nM (nanomolar)  [Temperature = 298.15 K]
DOCKED: USER    
DOCKED: USER    (1) Final Intermolecular Energy     =  -11.90 kcal/mol
DOCKED: USER        vdW + Hbond + desolv Energy     =  -11.90 kcal/mol
DOCKED: USER        Electrostatic Energy            =   +0.00 kcal/mol
DOCKED: USER    (2) Final Total Internal Energy     =   -1.69 kcal/mol
DOCKED: USER    (3) Torsional Free Energy           =   +2.68 kcal/mol
DOCKED: USER    (4) Unbound System's Energy  [=(2)] =   -1.69 kcal/mol
DOCKED: USER    
DOCKED: USER    
DOCKED: USER    NEWDPF move ligand.dum.pdbqt
DOCKED: USER    NEWDPF about -0.029000 -0.207000 0.469000
DOCKED: USER    NEWDPF tran0 36.496698 13.901514 125.256012
DOCKED: USER    NEWDPF quaternion0 0.015662 -0.194473 -0.704095 -0.682778
DOCKED: USER    NEWDPF axisangle0 0.021437 -0.266173 -0.963687 -93.877826
DOCKED: USER    NEWDPF quat0 0.021437 -0.266173 -0.963687 -93.877826
DOCKED: USER    NEWDPF dihe0 7.01 61.78 -126.76 -173.47 74.91 -177.04 -27.03 -147.47 13.15 
DOCKED: USER  keepresnum = 1 
DOCKED: USER  
DOCKED: REMARK  Name = 
DOCKED: REMARK  9 active torsions:
DOCKED: REMARK  status: ('A' for Active; 'I' for Inactive)
DOCKED: REMARK    1  A    between atoms: C_2  and  C_5
DOCKED: REMARK    2  A    between atoms: N_3  and  O_4
DOCKED: REMARK    3  A    between atoms: C_5  and  C_6
DOCKED: REMARK    4  A    between atoms: C_6  and  C_7
DOCKED: REMARK    5  A    between atoms: C_7  and  C_8
DOCKED: REMARK    6  A    between atoms: C_8  and  C_9
DOCKED: REMARK    7  A    between atoms: C_9  and  C_10
DOCKED: REMARK    8  A    between atoms: C_10  and  C_11
DOCKED: REMARK    9  A    between atoms: N_12  and  C_13
DOCKED: REMARK                            x       y       z     vdW  Elec       q    Type
DOCKED: REMARK                         _______ _______ _______ _____ _____    ______ ____
DOCKED: USER                              x       y       z     vdW  Elec       q    Type
DOCKED: USER                           _______ _______ _______ _____ _____    ______ ____
DOCKED: ROOT
DOCKED: ATOM      1  C   UNL     1      36.858  13.112 122.168 -0.51 -0.00    +0.000 C 
DOCKED: ENDROOT
DOCKED: BRANCH   1   2
DOCKED: ATOM      2  C   UNL     1      37.697  12.688 123.383 -0.43 -0.00    +0.000 C 
DOCKED: BRANCH   2   3
DOCKED: ATOM      3  C   UNL     1      37.058  11.493 124.104 -0.55 -0.00    +0.000 C 
DOCKED: BRANCH   3   4
DOCKED: ATOM      4  C   UNL     1      35.718  11.065 123.477 -0.60 -0.00    +0.000 C 
DOCKED: BRANCH   4   5
DOCKED: ATOM      5  C   UNL     1      35.498   9.544 123.426 -0.31 -0.00    +0.000 C 
DOCKED: BRANCH   5   7
DOCKED: ATOM      6  O   UNL     1      37.009   7.774 122.880 -2.19 -0.00    +0.000 OA
DOCKED: ATOM      7  C   UNL     1      36.482   8.861 122.519 -0.75 -0.00    +0.000 C 
DOCKED: ATOM      8  N   UNL     1      36.844   9.449 121.268 -0.42 -0.00    +0.000 N 
DOCKED: ATOM      9  H   UNL     1      36.435  10.301 120.992 +0.03 +0.00    +0.000 HD
DOCKED: BRANCH   8  10
DOCKED: ATOM     10  O   UNL     1      37.745   8.845 120.458 -1.69 -0.00    +0.000 OA
DOCKED: ATOM     11  H   UNL     1      37.968   7.973 120.817 -0.37 -0.00    +0.000 HD
DOCKED: ENDBRANCH   8  10
DOCKED: ENDBRANCH   5   7
DOCKED: ENDBRANCH   4   5
DOCKED: ENDBRANCH   3   4
DOCKED: ENDBRANCH   2   3
DOCKED: ENDBRANCH   1   2
DOCKED: BRANCH   1  12
DOCKED: ATOM     12  C   UNL     1      37.016  14.604 121.845 -0.34 -0.00    +0.000 C 
DOCKED: BRANCH  12  13
DOCKED: ATOM     13  C   UNL     1      36.669  15.461 123.026 -0.39 -0.00    +0.000 C 
DOCKED: ATOM     14  N   UNL     1      35.404  15.299 123.686 -0.49 -0.00    +0.000 N 
DOCKED: ATOM     15  O   UNL     1      37.493  16.328 123.424 -0.32 -0.00    +0.000 OA
DOCKED: ATOM     16  H   UNL     1      34.924  14.448 123.562 -0.04 -0.00    +0.000 HD
DOCKED: BRANCH  14  17
DOCKED: ATOM     17  C   UNL     1      34.792  16.302 124.515 -0.46 -0.00    +0.000 A 
DOCKED: ATOM     18  C   UNL     1      34.982  17.658 124.217 -0.33 -0.00    +0.000 A 
DOCKED: ATOM     19  C   UNL     1      34.421  18.642 125.032 -0.28 -0.00    +0.000 A 
DOCKED: ATOM     20  C   UNL     1      33.685  18.260 126.155 -0.31 -0.00    +0.000 A 
DOCKED: ATOM     21  N   UNL     1      33.529  16.943 126.451 -0.50 -0.00    +0.000 NA
DOCKED: ATOM     22  C   UNL     1      34.060  15.966 125.669 -0.38 -0.00    +0.000 A 
DOCKED: ATOM     23  CM  UNL     1      34.226  17.285 125.370 -0.28 -0.00    +0.000 AC
DOCKED: ENDBRANCH  14  17
DOCKED: ENDBRANCH  12  13
DOCKED: ENDBRANCH   1  12
DOCKED: TORSDOF 9DOCKED: TER
DOCKED: ENDMDL
________________________________________________________________________________


	BEGINNING GENETIC ALGORITHM DOCKING 68 of 100
Run: 68 Seed: 817071774 1407363691 [ Run 68 of 100 GA/GALS ]
Beginning LAMARCKIAN GENETIC ALGORITHM (LGA), with a maximum of 2500000 energy evaluations.

Final-Value: -14.373


	FINAL GENETIC ALGORITHM DOCKED STATE
	_______________________________________________


Detailed state:  trans 37.968 14.740 122.049 quatxyzw 0.380418 0.774822 0.490166 -0.121124 center -0.029 -0.207 0.469 ntor 9 3.2141 56.9706 -169.1292 -153.8110 16.8652 60.9406 -51.4186 -141.4311 -120.3670
State:	 37.968  14.740 122.049   0.383  0.781  0.494 -166.086      3.21   56.97 -169.13 -153.81   16.87   60.94  -51.42 -141.43 -120.37

DOCKED: MODEL       68
DOCKED: USER    Run = 68
DOCKED: USER    DPF = ligand_dock.biased.dpf
DOCKED: USER  
DOCKED: USER    Estimated Free Energy of Binding    =  -10.13 kcal/mol  [=(1)+(2)+(3)-(4)]
DOCKED: USER    Estimated Inhibition Constant, Ki   =   37.37 nM (nanomolar)  [Temperature = 298.15 K]
DOCKED: USER    
DOCKED: USER    (1) Final Intermolecular Energy     =  -12.82 kcal/mol
DOCKED: USER        vdW + Hbond + desolv Energy     =  -12.82 kcal/mol
DOCKED: USER        Electrostatic Energy            =   +0.00 kcal/mol
DOCKED: USER    (2) Final Total Internal Energy     =   -1.56 kcal/mol
DOCKED: USER    (3) Torsional Free Energy           =   +2.68 kcal/mol
DOCKED: USER    (4) Unbound System's Energy  [=(2)] =   -1.56 kcal/mol
DOCKED: USER    
DOCKED: USER    
DOCKED: USER    NEWDPF move ligand.dum.pdbqt
DOCKED: USER    NEWDPF about -0.029000 -0.207000 0.469000
DOCKED: USER    NEWDPF tran0 37.967891 14.740242 122.049432
DOCKED: USER    NEWDPF quaternion0 0.380418 0.774822 0.490166 -0.121124
DOCKED: USER    NEWDPF axisangle0 0.383240 0.780569 0.493801 -166.086063
DOCKED: USER    NEWDPF quat0 0.383240 0.780569 0.493801 -166.086063
DOCKED: USER    NEWDPF dihe0 3.21 56.97 -169.13 -153.81 16.87 60.94 -51.42 -141.43 -120.37 
DOCKED: USER  keepresnum = 1 
DOCKED: USER  
DOCKED: REMARK  Name = 
DOCKED: REMARK  9 active torsions:
DOCKED: REMARK  status: ('A' for Active; 'I' for Inactive)
DOCKED: REMARK    1  A    between atoms: C_2  and  C_5
DOCKED: REMARK    2  A    between atoms: N_3  and  O_4
DOCKED: REMARK    3  A    between atoms: C_5  and  C_6
DOCKED: REMARK    4  A    between atoms: C_6  and  C_7
DOCKED: REMARK    5  A    between atoms: C_7  and  C_8
DOCKED: REMARK    6  A    between atoms: C_8  and  C_9
DOCKED: REMARK    7  A    between atoms: C_9  and  C_10
DOCKED: REMARK    8  A    between atoms: C_10  and  C_11
DOCKED: REMARK    9  A    between atoms: N_12  and  C_13
DOCKED: REMARK                            x       y       z     vdW  Elec       q    Type
DOCKED: REMARK                         _______ _______ _______ _____ _____    ______ ____
DOCKED: USER                              x       y       z     vdW  Elec       q    Type
DOCKED: USER                           _______ _______ _______ _____ _____    ______ ____
DOCKED: ROOT
DOCKED: ATOM      1  C   UNL     1      35.937  12.494 123.106 -0.59 -0.00    +0.000 C 
DOCKED: ENDROOT
DOCKED: BRANCH   1   2
DOCKED: ATOM      2  C   UNL     1      36.473  13.737 123.833 -0.52 -0.00    +0.000 C 
DOCKED: BRANCH   2   3
DOCKED: ATOM      3  C   UNL     1      36.106  15.020 123.073 -0.44 -0.00    +0.000 C 
DOCKED: BRANCH   3   4
DOCKED: ATOM      4  C   UNL     1      37.335  15.884 122.736 -0.32 -0.00    +0.000 C 
DOCKED: BRANCH   4   5
DOCKED: ATOM      5  C   UNL     1      38.084  15.454 121.464 -0.27 -0.00    +0.000 C 
DOCKED: BRANCH   5   7
DOCKED: ATOM      6  O   UNL     1      39.713  13.723 121.204 -0.70 -0.00    +0.000 OA
DOCKED: ATOM      7  C   UNL     1      39.401  14.802 121.776 -0.39 -0.00    +0.000 C 
DOCKED: ATOM      8  N   UNL     1      40.287  15.382 122.738 -0.39 -0.00    +0.000 N 
DOCKED: ATOM      9  H   UNL     1      40.037  16.221 123.187 -0.01 -0.00    +0.000 HD
DOCKED: BRANCH   8  10
DOCKED: ATOM     10  O   UNL     1      41.465  14.786 123.035 -0.93 -0.00    +0.000 OA
DOCKED: ATOM     11  H   UNL     1      41.582  14.003 122.475 -0.06 +0.00    +0.000 HD
DOCKED: ENDBRANCH   8  10
DOCKED: ENDBRANCH   5   7
DOCKED: ENDBRANCH   4   5
DOCKED: ENDBRANCH   3   4
DOCKED: ENDBRANCH   2   3
DOCKED: ENDBRANCH   1   2
DOCKED: BRANCH   1  12
DOCKED: ATOM     12  C   UNL     1      37.031  11.445 122.864 -0.64 -0.00    +0.000 C 
DOCKED: BRANCH  12  13
DOCKED: ATOM     13  C   UNL     1      36.451  10.150 122.376 -0.68 -0.00    +0.000 C 
DOCKED: ATOM     14  N   UNL     1      35.315   9.574 123.039 -0.60 -0.00    +0.000 N 
DOCKED: ATOM     15  O   UNL     1      36.978   9.572 121.387 -2.27 -0.00    +0.000 OA
DOCKED: ATOM     16  H   UNL     1      34.752  10.166 123.588 -0.45 -0.00    +0.000 HD
DOCKED: BRANCH  14  17
DOCKED: ATOM     17  C   UNL     1      34.947   8.187 122.951 -0.61 -0.00    +0.000 A 
DOCKED: ATOM     18  C   UNL     1      35.899   7.199 123.239 -0.66 -0.00    +0.000 A 
DOCKED: ATOM     19  C   UNL     1      35.565   5.848 123.127 -0.63 -0.00    +0.000 A 
DOCKED: ATOM     20  C   UNL     1      34.281   5.495 122.709 -0.34 -0.00    +0.000 A 
DOCKED: ATOM     21  N   UNL     1      33.374   6.460 122.407 -0.68 -0.00    +0.000 NA
DOCKED: ATOM     22  C   UNL     1      33.672   7.782 122.514 -0.64 -0.00    +0.000 A 
DOCKED: ATOM     23  CM  UNL     1      34.589   6.819 122.813 +0.00 -0.00    +0.000 AC
DOCKED: ENDBRANCH  14  17
DOCKED: ENDBRANCH  12  13
DOCKED: ENDBRANCH   1  12
DOCKED: TORSDOF 9DOCKED: TER
DOCKED: ENDMDL
________________________________________________________________________________


	BEGINNING GENETIC ALGORITHM DOCKING 69 of 100
Run: 69 Seed: 979529127 425623584 [ Run 69 of 100 GA/GALS ]
Beginning LAMARCKIAN GENETIC ALGORITHM (LGA), with a maximum of 2500000 energy evaluations.

Final-Value: -14.770


	FINAL GENETIC ALGORITHM DOCKED STATE
	_______________________________________________


Detailed state:  trans 36.700 12.940 124.513 quatxyzw -0.172381 -0.003694 0.906039 0.386477 center -0.029 -0.207 0.469 ntor 9 -14.0319 138.7507 32.6730 168.9679 -71.8943 -49.2942 -96.3553 -90.3922 -28.2368
State:	 36.700  12.940 124.513  -0.187 -0.004  0.982 134.529    -14.03  138.75   32.67  168.97  -71.89  -49.29  -96.36  -90.39  -28.24

DOCKED: MODEL       69
DOCKED: USER    Run = 69
DOCKED: USER    DPF = ligand_dock.biased.dpf
DOCKED: USER  
DOCKED: USER    Estimated Free Energy of Binding    =  -10.58 kcal/mol  [=(1)+(2)+(3)-(4)]
DOCKED: USER    Estimated Inhibition Constant, Ki   =   17.58 nM (nanomolar)  [Temperature = 298.15 K]
DOCKED: USER    
DOCKED: USER    (1) Final Intermolecular Energy     =  -13.26 kcal/mol
DOCKED: USER        vdW + Hbond + desolv Energy     =  -13.26 kcal/mol
DOCKED: USER        Electrostatic Energy            =   +0.00 kcal/mol
DOCKED: USER    (2) Final Total Internal Energy     =   -1.51 kcal/mol
DOCKED: USER    (3) Torsional Free Energy           =   +2.68 kcal/mol
DOCKED: USER    (4) Unbound System's Energy  [=(2)] =   -1.51 kcal/mol
DOCKED: USER    
DOCKED: USER    
DOCKED: USER    NEWDPF move ligand.dum.pdbqt
DOCKED: USER    NEWDPF about -0.029000 -0.207000 0.469000
DOCKED: USER    NEWDPF tran0 36.699627 12.939735 124.512832
DOCKED: USER    NEWDPF quaternion0 -0.172381 -0.003694 0.906039 0.386477
DOCKED: USER    NEWDPF axisangle0 -0.186904 -0.004005 0.982370 134.529018
DOCKED: USER    NEWDPF quat0 -0.186904 -0.004005 0.982370 134.529018
DOCKED: USER    NEWDPF dihe0 -14.03 138.75 32.67 168.97 -71.89 -49.29 -96.36 -90.39 -28.24 
DOCKED: USER  keepresnum = 1 
DOCKED: USER  
DOCKED: REMARK  Name = 
DOCKED: REMARK  9 active torsions:
DOCKED: REMARK  status: ('A' for Active; 'I' for Inactive)
DOCKED: REMARK    1  A    between atoms: C_2  and  C_5
DOCKED: REMARK    2  A    between atoms: N_3  and  O_4
DOCKED: REMARK    3  A    between atoms: C_5  and  C_6
DOCKED: REMARK    4  A    between atoms: C_6  and  C_7
DOCKED: REMARK    5  A    between atoms: C_7  and  C_8
DOCKED: REMARK    6  A    between atoms: C_8  and  C_9
DOCKED: REMARK    7  A    between atoms: C_9  and  C_10
DOCKED: REMARK    8  A    between atoms: C_10  and  C_11
DOCKED: REMARK    9  A    between atoms: N_12  and  C_13
DOCKED: REMARK                            x       y       z     vdW  Elec       q    Type
DOCKED: REMARK                         _______ _______ _______ _____ _____    ______ ____
DOCKED: USER                              x       y       z     vdW  Elec       q    Type
DOCKED: USER                           _______ _______ _______ _____ _____    ______ ____
DOCKED: ROOT
DOCKED: ATOM      1  C   UNL     1      37.282  13.792 121.476 -0.41 -0.00    +0.000 C 
DOCKED: ENDROOT
DOCKED: BRANCH   1   2
DOCKED: ATOM      2  C   UNL     1      37.437  12.418 122.145 -0.52 -0.00    +0.000 C 
DOCKED: BRANCH   2   3
DOCKED: ATOM      3  C   UNL     1      36.720  12.381 123.502 -0.68 -0.00    +0.000 C 
DOCKED: BRANCH   3   4
DOCKED: ATOM      4  C   UNL     1      35.705  11.228 123.609 -0.54 -0.00    +0.000 C 
DOCKED: BRANCH   4   5
DOCKED: ATOM      5  C   UNL     1      35.507  10.433 122.308 -0.62 -0.00    +0.000 C 
DOCKED: BRANCH   5   7
DOCKED: ATOM      6  O   UNL     1      36.862   8.845 121.143 -2.65 -0.00    +0.000 OA
DOCKED: ATOM      7  C   UNL     1      36.387   9.217 122.250 -0.72 -0.00    +0.000 C 
DOCKED: ATOM      8  N   UNL     1      36.663   8.464 123.434 -0.66 -0.00    +0.000 N 
DOCKED: ATOM      9  H   UNL     1      36.286   8.755 124.296 -0.27 -0.00    +0.000 HD
DOCKED: BRANCH   8  10
DOCKED: ATOM     10  O   UNL     1      37.440   7.357 123.381 -1.98 -0.00    +0.000 OA
DOCKED: ATOM     11  H   UNL     1      37.546   7.081 122.458 -0.27 -0.00    +0.000 HD
DOCKED: ENDBRANCH   8  10
DOCKED: ENDBRANCH   5   7
DOCKED: ENDBRANCH   4   5
DOCKED: ENDBRANCH   3   4
DOCKED: ENDBRANCH   2   3
DOCKED: ENDBRANCH   1   2
DOCKED: BRANCH   1  12
DOCKED: ATOM     12  C   UNL     1      38.304  14.811 121.998 -0.39 -0.00    +0.000 C 
DOCKED: BRANCH  12  13
DOCKED: ATOM     13  C   UNL     1      37.709  15.689 123.059 -0.35 -0.00    +0.000 C 
DOCKED: ATOM     14  N   UNL     1      36.367  15.458 123.516 -0.40 -0.00    +0.000 N 
DOCKED: ATOM     15  O   UNL     1      38.395  16.634 123.535 -0.30 -0.00    +0.000 OA
DOCKED: ATOM     16  H   UNL     1      35.975  14.568 123.365 -0.02 -0.00    +0.000 HD
DOCKED: BRANCH  14  17
DOCKED: ATOM     17  C   UNL     1      35.560  16.446 124.180 -0.37 -0.00    +0.000 A 
DOCKED: ATOM     18  C   UNL     1      35.935  17.795 124.130 -0.25 -0.00    +0.000 A 
DOCKED: ATOM     19  C   UNL     1      35.179  18.760 124.798 -0.24 -0.00    +0.000 A 
DOCKED: ATOM     20  C   UNL     1      34.058  18.363 125.528 -0.31 -0.00    +0.000 A 
DOCKED: ATOM     21  N   UNL     1      33.717  17.049 125.592 -0.42 -0.00    +0.000 NA
DOCKED: ATOM     22  C   UNL     1      34.434  16.091 124.946 -0.48 -0.00    +0.000 A 
DOCKED: ATOM     23  CM  UNL     1      34.784  17.407 124.882 -0.43 -0.00    +0.000 AC
DOCKED: ENDBRANCH  14  17
DOCKED: ENDBRANCH  12  13
DOCKED: ENDBRANCH   1  12
DOCKED: TORSDOF 9DOCKED: TER
DOCKED: ENDMDL
________________________________________________________________________________


	BEGINNING GENETIC ALGORITHM DOCKING 70 of 100
Run: 70 Seed: 484034078 1940166642 [ Run 70 of 100 GA/GALS ]
Beginning LAMARCKIAN GENETIC ALGORITHM (LGA), with a maximum of 2500000 energy evaluations.

Final-Value: -13.995


	FINAL GENETIC ALGORITHM DOCKED STATE
	_______________________________________________


Detailed state:  trans 38.041 13.923 124.576 quatxyzw -0.124287 0.295510 0.504465 -0.801711 center -0.029 -0.207 0.469 ntor 9 7.2330 152.5619 -147.7230 -96.9900 88.1298 50.8868 -15.9481 137.9503 -169.3834
State:	 38.041  13.923 124.576  -0.208  0.494  0.844 -73.412      7.23  152.56 -147.72  -96.99   88.13   50.89  -15.95  137.95 -169.38

DOCKED: MODEL       70
DOCKED: USER    Run = 70
DOCKED: USER    DPF = ligand_dock.biased.dpf
DOCKED: USER  
DOCKED: USER    Estimated Free Energy of Binding    =   -9.96 kcal/mol  [=(1)+(2)+(3)-(4)]
DOCKED: USER    Estimated Inhibition Constant, Ki   =   50.20 nM (nanomolar)  [Temperature = 298.15 K]
DOCKED: USER    
DOCKED: USER    (1) Final Intermolecular Energy     =  -12.64 kcal/mol
DOCKED: USER        vdW + Hbond + desolv Energy     =  -12.64 kcal/mol
DOCKED: USER        Electrostatic Energy            =   +0.00 kcal/mol
DOCKED: USER    (2) Final Total Internal Energy     =   -1.35 kcal/mol
DOCKED: USER    (3) Torsional Free Energy           =   +2.68 kcal/mol
DOCKED: USER    (4) Unbound System's Energy  [=(2)] =   -1.35 kcal/mol
DOCKED: USER    
DOCKED: USER    
DOCKED: USER    NEWDPF move ligand.dum.pdbqt
DOCKED: USER    NEWDPF about -0.029000 -0.207000 0.469000
DOCKED: USER    NEWDPF tran0 38.041415 13.923277 124.576326
DOCKED: USER    NEWDPF quaternion0 -0.124287 0.295510 0.504465 -0.801711
DOCKED: USER    NEWDPF axisangle0 -0.207938 0.494403 0.843995 -73.412354
DOCKED: USER    NEWDPF quat0 -0.207938 0.494403 0.843995 -73.412354
DOCKED: USER    NEWDPF dihe0 7.23 152.56 -147.72 -96.99 88.13 50.89 -15.95 137.95 -169.38 
DOCKED: USER  keepresnum = 1 
DOCKED: USER  
DOCKED: REMARK  Name = 
DOCKED: REMARK  9 active torsions:
DOCKED: REMARK  status: ('A' for Active; 'I' for Inactive)
DOCKED: REMARK    1  A    between atoms: C_2  and  C_5
DOCKED: REMARK    2  A    between atoms: N_3  and  O_4
DOCKED: REMARK    3  A    between atoms: C_5  and  C_6
DOCKED: REMARK    4  A    between atoms: C_6  and  C_7
DOCKED: REMARK    5  A    between atoms: C_7  and  C_8
DOCKED: REMARK    6  A    between atoms: C_8  and  C_9
DOCKED: REMARK    7  A    between atoms: C_9  and  C_10
DOCKED: REMARK    8  A    between atoms: C_10  and  C_11
DOCKED: REMARK    9  A    between atoms: N_12  and  C_13
DOCKED: REMARK                            x       y       z     vdW  Elec       q    Type
DOCKED: REMARK                         _______ _______ _______ _____ _____    ______ ____
DOCKED: USER                              x       y       z     vdW  Elec       q    Type
DOCKED: USER                           _______ _______ _______ _____ _____    ______ ____
DOCKED: ROOT
DOCKED: ATOM      1  C   UNL     1      37.444  12.081 122.020 -0.46 -0.00    +0.000 C 
DOCKED: ENDROOT
DOCKED: BRANCH   1   2
DOCKED: ATOM      2  C   UNL     1      36.898  13.476 122.359 -0.50 -0.00    +0.000 C 
DOCKED: BRANCH   2   3
DOCKED: ATOM      3  C   UNL     1      37.740  14.574 121.694 -0.38 -0.00    +0.000 C 
DOCKED: BRANCH   3   4
DOCKED: ATOM      4  C   UNL     1      38.071  15.734 122.652 -0.32 -0.00    +0.000 C 
DOCKED: BRANCH   4   5
DOCKED: ATOM      5  C   UNL     1      39.352  16.507 122.295 -0.24 -0.00    +0.000 C 
DOCKED: BRANCH   5   7
DOCKED: ATOM      6  O   UNL     1      41.412  16.581 123.505 -0.89 -0.00    +0.000 OA
DOCKED: ATOM      7  C   UNL     1      40.579  15.869 122.880 -0.34 -0.00    +0.000 C 
DOCKED: ATOM      8  N   UNL     1      40.822  14.471 122.709 -0.52 -0.00    +0.000 N 
DOCKED: ATOM      9  H   UNL     1      40.173  13.920 122.216 -0.02 +0.00    +0.000 HD
DOCKED: BRANCH   8  10
DOCKED: ATOM     10  O   UNL     1      41.937  13.898 123.219 -0.87 -0.00    +0.000 OA
DOCKED: ATOM     11  H   UNL     1      42.411  14.543 123.767 -0.10 +0.00    +0.000 HD
DOCKED: ENDBRANCH   8  10
DOCKED: ENDBRANCH   5   7
DOCKED: ENDBRANCH   4   5
DOCKED: ENDBRANCH   3   4
DOCKED: ENDBRANCH   2   3
DOCKED: ENDBRANCH   1   2
DOCKED: BRANCH   1  12
DOCKED: ATOM     12  C   UNL     1      36.910  11.001 122.970 -0.65 -0.00    +0.000 C 
DOCKED: BRANCH  12  13
DOCKED: ATOM     13  C   UNL     1      36.170   9.931 122.224 -0.64 -0.00    +0.000 C 
DOCKED: ATOM     14  N   UNL     1      34.843   9.557 122.627 -0.59 -0.00    +0.000 N 
DOCKED: ATOM     15  O   UNL     1      36.728   9.359 121.248 -2.49 -0.00    +0.000 OA
DOCKED: ATOM     16  H   UNL     1      34.327  10.198 123.168 -0.36 -0.00    +0.000 HD
DOCKED: BRANCH  14  17
DOCKED: ATOM     17  C   UNL     1      34.219   8.306 122.290 -0.61 -0.00    +0.000 A 
DOCKED: ATOM     18  C   UNL     1      34.009   7.346 123.289 -0.64 -0.00    +0.000 A 
DOCKED: ATOM     19  C   UNL     1      33.434   6.114 122.970 -0.58 -0.00    +0.000 A 
DOCKED: ATOM     20  C   UNL     1      33.089   5.845 121.645 -0.34 -0.00    +0.000 A 
DOCKED: ATOM     21  N   UNL     1      33.321   6.772 120.679 -0.55 -0.00    +0.000 NA
DOCKED: ATOM     22  C   UNL     1      33.874   7.981 120.965 -0.55 -0.00    +0.000 A 
DOCKED: ATOM     23  CM  UNL     1      33.649   7.053 121.938 +0.00 -0.00    +0.000 AC
DOCKED: ENDBRANCH  14  17
DOCKED: ENDBRANCH  12  13
DOCKED: ENDBRANCH   1  12
DOCKED: TORSDOF 9DOCKED: TER
DOCKED: ENDMDL
________________________________________________________________________________


	BEGINNING GENETIC ALGORITHM DOCKING 71 of 100
Run: 71 Seed: 972212157 457138973 [ Run 71 of 100 GA/GALS ]
Beginning LAMARCKIAN GENETIC ALGORITHM (LGA), with a maximum of 2500000 energy evaluations.

Final-Value: -13.868


	FINAL GENETIC ALGORITHM DOCKED STATE
	_______________________________________________


Detailed state:  trans 38.246 16.562 124.037 quatxyzw 0.289169 0.318032 0.871034 0.237774 center -0.029 -0.207 0.469 ntor 9 0.6656 -178.3644 146.9284 -115.8695 164.8132 -103.0631 53.5794 -161.7683 -127.1271
State:	 38.246  16.562 124.037   0.298  0.327  0.897 152.490      0.67 -178.36  146.93 -115.87  164.81 -103.06   53.58 -161.77 -127.13

DOCKED: MODEL       71
DOCKED: USER    Run = 71
DOCKED: USER    DPF = ligand_dock.biased.dpf
DOCKED: USER  
DOCKED: USER    Estimated Free Energy of Binding    =   -9.70 kcal/mol  [=(1)+(2)+(3)-(4)]
DOCKED: USER    Estimated Inhibition Constant, Ki   =   77.40 nM (nanomolar)  [Temperature = 298.15 K]
DOCKED: USER    
DOCKED: USER    (1) Final Intermolecular Energy     =  -12.39 kcal/mol
DOCKED: USER        vdW + Hbond + desolv Energy     =  -12.39 kcal/mol
DOCKED: USER        Electrostatic Energy            =   +0.00 kcal/mol
DOCKED: USER    (2) Final Total Internal Energy     =   -1.48 kcal/mol
DOCKED: USER    (3) Torsional Free Energy           =   +2.68 kcal/mol
DOCKED: USER    (4) Unbound System's Energy  [=(2)] =   -1.48 kcal/mol
DOCKED: USER    
DOCKED: USER    
DOCKED: USER    NEWDPF move ligand.dum.pdbqt
DOCKED: USER    NEWDPF about -0.029000 -0.207000 0.469000
DOCKED: USER    NEWDPF tran0 38.245640 16.561569 124.036901
DOCKED: USER    NEWDPF quaternion0 0.289169 0.318032 0.871034 0.237774
DOCKED: USER    NEWDPF axisangle0 0.297708 0.327423 0.896752 152.489650
DOCKED: USER    NEWDPF quat0 0.297708 0.327423 0.896752 152.489650
DOCKED: USER    NEWDPF dihe0 0.67 -178.36 146.93 -115.87 164.81 -103.06 53.58 -161.77 -127.13 
DOCKED: USER  keepresnum = 1 
DOCKED: USER  
DOCKED: REMARK  Name = 
DOCKED: REMARK  9 active torsions:
DOCKED: REMARK  status: ('A' for Active; 'I' for Inactive)
DOCKED: REMARK    1  A    between atoms: C_2  and  C_5
DOCKED: REMARK    2  A    between atoms: N_3  and  O_4
DOCKED: REMARK    3  A    between atoms: C_5  and  C_6
DOCKED: REMARK    4  A    between atoms: C_6  and  C_7
DOCKED: REMARK    5  A    between atoms: C_7  and  C_8
DOCKED: REMARK    6  A    between atoms: C_8  and  C_9
DOCKED: REMARK    7  A    between atoms: C_9  and  C_10
DOCKED: REMARK    8  A    between atoms: C_10  and  C_11
DOCKED: REMARK    9  A    between atoms: N_12  and  C_13
DOCKED: REMARK                            x       y       z     vdW  Elec       q    Type
DOCKED: REMARK                         _______ _______ _______ _____ _____    ______ ____
DOCKED: USER                              x       y       z     vdW  Elec       q    Type
DOCKED: USER                           _______ _______ _______ _____ _____    ______ ____
DOCKED: ROOT
DOCKED: ATOM      1  C   UNL     1      36.799  14.774 121.801 -0.26 -0.00    +0.000 C 
DOCKED: ENDROOT
DOCKED: BRANCH   1   2
DOCKED: ATOM      2  C   UNL     1      37.296  14.368 123.196 -0.48 -0.00    +0.000 C 
DOCKED: BRANCH   2   3
DOCKED: ATOM      3  C   UNL     1      36.689  13.026 123.629 -0.60 -0.00    +0.000 C 
DOCKED: BRANCH   3   4
DOCKED: ATOM      4  C   UNL     1      37.263  11.831 122.844 -0.54 -0.00    +0.000 C 
DOCKED: BRANCH   4   5
DOCKED: ATOM      5  C   UNL     1      36.200  10.905 122.231 -0.64 -0.00    +0.000 C 
DOCKED: BRANCH   5   7
DOCKED: ATOM      6  O   UNL     1      37.061   9.066 120.968 -2.73 -0.00    +0.000 OA
DOCKED: ATOM      7  C   UNL     1      36.691   9.492 122.096 -0.70 -0.00    +0.000 C 
DOCKED: ATOM      8  N   UNL     1      36.713   8.621 123.230 -0.67 -0.00    +0.000 N 
DOCKED: ATOM      9  H   UNL     1      36.418   8.955 124.108 -0.35 -0.00    +0.000 HD
DOCKED: BRANCH   8  10
DOCKED: ATOM     10  O   UNL     1      37.137   7.341 123.107 -2.12 -0.00    +0.000 OA
DOCKED: ATOM     11  H   UNL     1      37.400   7.174 122.189 -0.17 -0.00    +0.000 HD
DOCKED: ENDBRANCH   8  10
DOCKED: ENDBRANCH   5   7
DOCKED: ENDBRANCH   4   5
DOCKED: ENDBRANCH   3   4
DOCKED: ENDBRANCH   2   3
DOCKED: ENDBRANCH   1   2
DOCKED: BRANCH   1  12
DOCKED: ATOM     12  C   UNL     1      37.954  15.103 120.845 -0.28 -0.00    +0.000 C 
DOCKED: BRANCH  12  13
DOCKED: ATOM     13  C   UNL     1      37.500  15.102 119.415 -0.25 -0.00    +0.000 C 
DOCKED: ATOM     14  N   UNL     1      37.096  13.875 118.789 -0.35 -0.00    +0.000 N 
DOCKED: ATOM     15  O   UNL     1      37.487  16.185 118.770 -0.14 -0.00    +0.000 OA
DOCKED: ATOM     16  H   UNL     1      36.829  13.125 119.369 -0.04 -0.00    +0.000 HD
DOCKED: BRANCH  14  17
DOCKED: ATOM     17  C   UNL     1      37.057  13.669 117.365 -0.36 -0.00    +0.000 A 
DOCKED: ATOM     18  C   UNL     1      38.188  13.167 116.707 -0.32 -0.00    +0.000 A 
DOCKED: ATOM     19  C   UNL     1      38.175  12.993 115.322 -0.47 -0.00    +0.000 A 
DOCKED: ATOM     20  C   UNL     1      37.033  13.342 114.601 -0.33 -0.00    +0.000 A 
DOCKED: ATOM     21  N   UNL     1      35.951  13.853 115.246 -0.29 -0.00    +0.000 NA
DOCKED: ATOM     22  C   UNL     1      35.936  14.026 116.594 -0.31 -0.00    +0.000 A 
DOCKED: ATOM     23  CM  UNL     1      37.027  13.518 115.953 +0.00 -0.00    +0.000 AC
DOCKED: ENDBRANCH  14  17
DOCKED: ENDBRANCH  12  13
DOCKED: ENDBRANCH   1  12
DOCKED: TORSDOF 9DOCKED: TER
DOCKED: ENDMDL
________________________________________________________________________________


	BEGINNING GENETIC ALGORITHM DOCKING 72 of 100
Run: 72 Seed: 1098356467 279863954 [ Run 72 of 100 GA/GALS ]
Beginning LAMARCKIAN GENETIC ALGORITHM (LGA), with a maximum of 2500000 energy evaluations.

Final-Value: -14.132


	FINAL GENETIC ALGORITHM DOCKED STATE
	_______________________________________________


Detailed state:  trans 34.486 12.872 121.926 quatxyzw 0.406627 -0.633761 -0.005201 -0.658008 center -0.029 -0.207 0.469 ntor 9 -179.6721 128.5393 163.6112 82.5926 -148.5170 179.4568 -33.2671 86.6429 -73.1095
State:	 34.486  12.872 121.926   0.540 -0.842 -0.007 -97.704   -179.67  128.54  163.61   82.59 -148.52  179.46  -33.27   86.64  -73.11

DOCKED: MODEL       72
DOCKED: USER    Run = 72
DOCKED: USER    DPF = ligand_dock.biased.dpf
DOCKED: USER  
DOCKED: USER    Estimated Free Energy of Binding    =  -10.44 kcal/mol  [=(1)+(2)+(3)-(4)]
DOCKED: USER    Estimated Inhibition Constant, Ki   =   22.18 nM (nanomolar)  [Temperature = 298.15 K]
DOCKED: USER    
DOCKED: USER    (1) Final Intermolecular Energy     =  -13.13 kcal/mol
DOCKED: USER        vdW + Hbond + desolv Energy     =  -13.13 kcal/mol
DOCKED: USER        Electrostatic Energy            =   +0.00 kcal/mol
DOCKED: USER    (2) Final Total Internal Energy     =   -1.01 kcal/mol
DOCKED: USER    (3) Torsional Free Energy           =   +2.68 kcal/mol
DOCKED: USER    (4) Unbound System's Energy  [=(2)] =   -1.01 kcal/mol
DOCKED: USER    
DOCKED: USER    
DOCKED: USER    NEWDPF move ligand.dum.pdbqt
DOCKED: USER    NEWDPF about -0.029000 -0.207000 0.469000
DOCKED: USER    NEWDPF tran0 34.485929 12.871814 121.926312
DOCKED: USER    NEWDPF quaternion0 0.406627 -0.633761 -0.005201 -0.658008
DOCKED: USER    NEWDPF axisangle0 0.540001 -0.841636 -0.006907 -97.703792
DOCKED: USER    NEWDPF quat0 0.540001 -0.841636 -0.006907 -97.703792
DOCKED: USER    NEWDPF dihe0 -179.67 128.54 163.61 82.59 -148.52 179.46 -33.27 86.64 -73.11 
DOCKED: USER  keepresnum = 1 
DOCKED: USER  
DOCKED: REMARK  Name = 
DOCKED: REMARK  9 active torsions:
DOCKED: REMARK  status: ('A' for Active; 'I' for Inactive)
DOCKED: REMARK    1  A    between atoms: C_2  and  C_5
DOCKED: REMARK    2  A    between atoms: N_3  and  O_4
DOCKED: REMARK    3  A    between atoms: C_5  and  C_6
DOCKED: REMARK    4  A    between atoms: C_6  and  C_7
DOCKED: REMARK    5  A    between atoms: C_7  and  C_8
DOCKED: REMARK    6  A    between atoms: C_8  and  C_9
DOCKED: REMARK    7  A    between atoms: C_9  and  C_10
DOCKED: REMARK    8  A    between atoms: C_10  and  C_11
DOCKED: REMARK    9  A    between atoms: N_12  and  C_13
DOCKED: REMARK                            x       y       z     vdW  Elec       q    Type
DOCKED: REMARK                         _______ _______ _______ _____ _____    ______ ____
DOCKED: USER                              x       y       z     vdW  Elec       q    Type
DOCKED: USER                           _______ _______ _______ _____ _____    ______ ____
DOCKED: ROOT
DOCKED: ATOM      1  C   UNL     1      37.421  14.163 122.029 -0.43 -0.00    +0.000 C 
DOCKED: ENDROOT
DOCKED: BRANCH   1   2
DOCKED: ATOM      2  C   UNL     1      36.311  14.188 123.091 -0.50 -0.00    +0.000 C 
DOCKED: BRANCH   2   3
DOCKED: ATOM      3  C   UNL     1      36.229  12.848 123.835 -0.62 -0.00    +0.000 C 
DOCKED: BRANCH   3   4
DOCKED: ATOM      4  C   UNL     1      37.159  11.776 123.237 -0.62 -0.00    +0.000 C 
DOCKED: BRANCH   4   5
DOCKED: ATOM      5  C   UNL     1      36.585  11.049 122.011 -0.62 -0.00    +0.000 C 
DOCKED: BRANCH   5   7
DOCKED: ATOM      6  O   UNL     1      36.817   8.882 121.028 -2.65 -0.00    +0.000 OA
DOCKED: ATOM      7  C   UNL     1      36.789   9.562 122.089 -0.67 -0.00    +0.000 C 
DOCKED: ATOM      8  N   UNL     1      36.921   8.914 123.356 -0.61 -0.00    +0.000 N 
DOCKED: ATOM      9  H   UNL     1      36.893   9.448 124.183 -0.53 -0.00    +0.000 HD
DOCKED: BRANCH   8  10
DOCKED: ATOM     10  O   UNL     1      37.086   7.572 123.429 -2.22 -0.00    +0.000 OA
DOCKED: ATOM     11  H   UNL     1      37.154   7.305 124.359 -0.55 -0.00    +0.000 HD
DOCKED: ENDBRANCH   8  10
DOCKED: ENDBRANCH   5   7
DOCKED: ENDBRANCH   4   5
DOCKED: ENDBRANCH   3   4
DOCKED: ENDBRANCH   2   3
DOCKED: ENDBRANCH   1   2
DOCKED: BRANCH   1  12
DOCKED: ATOM     12  C   UNL     1      37.058  14.992 120.789 -0.25 -0.00    +0.000 C 
DOCKED: BRANCH  12  13
DOCKED: ATOM     13  C   UNL     1      37.548  14.339 119.531 -0.33 -0.00    +0.000 C 
DOCKED: ATOM     14  N   UNL     1      37.323  14.967 118.259 -0.22 -0.00    +0.000 N 
DOCKED: ATOM     15  O   UNL     1      38.148  13.232 119.602 -0.38 -0.00    +0.000 OA
DOCKED: ATOM     16  H   UNL     1      37.136  15.934 118.248 +0.00 -0.00    +0.000 HD
DOCKED: BRANCH  14  17
DOCKED: ATOM     17  C   UNL     1      37.351  14.272 116.999 -0.30 -0.00    +0.000 A 
DOCKED: ATOM     18  C   UNL     1      38.574  13.814 116.489 -0.27 -0.00    +0.000 A 
DOCKED: ATOM     19  C   UNL     1      38.620  13.168 115.253 -0.48 -0.00    +0.000 A 
DOCKED: ATOM     20  C   UNL     1      37.441  13.000 114.525 -0.28 -0.00    +0.000 A 
DOCKED: ATOM     21  N   UNL     1      36.265  13.471 115.017 -0.30 -0.00    +0.000 NA
DOCKED: ATOM     22  C   UNL     1      36.192  14.098 116.221 -0.30 -0.00    +0.000 A 
DOCKED: ATOM     23  CM  UNL     1      37.376  13.633 115.731 +0.00 -0.00    +0.000 AC
DOCKED: ENDBRANCH  14  17
DOCKED: ENDBRANCH  12  13
DOCKED: ENDBRANCH   1  12
DOCKED: TORSDOF 9DOCKED: TER
DOCKED: ENDMDL
________________________________________________________________________________


	BEGINNING GENETIC ALGORITHM DOCKING 73 of 100
Run: 73 Seed: 478252838 489416931 [ Run 73 of 100 GA/GALS ]
Beginning LAMARCKIAN GENETIC ALGORITHM (LGA), with a maximum of 2500000 energy evaluations.

Final-Value: -12.804


	FINAL GENETIC ALGORITHM DOCKED STATE
	_______________________________________________


Detailed state:  trans 34.110 13.868 121.710 quatxyzw 0.379832 0.753357 -0.246609 0.476829 center -0.029 -0.207 0.469 ntor 9 -126.8131 -12.5318 103.1329 -158.2308 66.4642 -166.7089 81.8391 89.8891 -64.6262
State:	 34.110  13.868 121.710   0.432  0.857 -0.281 123.043   -126.81  -12.53  103.13 -158.23   66.46 -166.71   81.84   89.89  -64.63

DOCKED: MODEL       73
DOCKED: USER    Run = 73
DOCKED: USER    DPF = ligand_dock.biased.dpf
DOCKED: USER  
DOCKED: USER    Estimated Free Energy of Binding    =   -9.29 kcal/mol  [=(1)+(2)+(3)-(4)]
DOCKED: USER    Estimated Inhibition Constant, Ki   =  156.20 nM (nanomolar)  [Temperature = 298.15 K]
DOCKED: USER    
DOCKED: USER    (1) Final Intermolecular Energy     =  -11.97 kcal/mol
DOCKED: USER        vdW + Hbond + desolv Energy     =  -11.97 kcal/mol
DOCKED: USER        Electrostatic Energy            =   +0.00 kcal/mol
DOCKED: USER    (2) Final Total Internal Energy     =   -0.83 kcal/mol
DOCKED: USER    (3) Torsional Free Energy           =   +2.68 kcal/mol
DOCKED: USER    (4) Unbound System's Energy  [=(2)] =   -0.83 kcal/mol
DOCKED: USER    
DOCKED: USER    
DOCKED: USER    NEWDPF move ligand.dum.pdbqt
DOCKED: USER    NEWDPF about -0.029000 -0.207000 0.469000
DOCKED: USER    NEWDPF tran0 34.110326 13.867632 121.709878
DOCKED: USER    NEWDPF quaternion0 0.379832 0.753357 -0.246609 0.476829
DOCKED: USER    NEWDPF axisangle0 0.432120 0.857064 -0.280558 123.043056
DOCKED: USER    NEWDPF quat0 0.432120 0.857064 -0.280558 123.043056
DOCKED: USER    NEWDPF dihe0 -126.81 -12.53 103.13 -158.23 66.46 -166.71 81.84 89.89 -64.63 
DOCKED: USER  keepresnum = 1 
DOCKED: USER  
DOCKED: REMARK  Name = 
DOCKED: REMARK  9 active torsions:
DOCKED: REMARK  status: ('A' for Active; 'I' for Inactive)
DOCKED: REMARK    1  A    between atoms: C_2  and  C_5
DOCKED: REMARK    2  A    between atoms: N_3  and  O_4
DOCKED: REMARK    3  A    between atoms: C_5  and  C_6
DOCKED: REMARK    4  A    between atoms: C_6  and  C_7
DOCKED: REMARK    5  A    between atoms: C_7  and  C_8
DOCKED: REMARK    6  A    between atoms: C_8  and  C_9
DOCKED: REMARK    7  A    between atoms: C_9  and  C_10
DOCKED: REMARK    8  A    between atoms: C_10  and  C_11
DOCKED: REMARK    9  A    between atoms: N_12  and  C_13
DOCKED: REMARK                            x       y       z     vdW  Elec       q    Type
DOCKED: REMARK                         _______ _______ _______ _____ _____    ______ ____
DOCKED: USER                              x       y       z     vdW  Elec       q    Type
DOCKED: USER                           _______ _______ _______ _____ _____    ______ ____
DOCKED: ROOT
DOCKED: ATOM      1  C   UNL     1      36.779  13.549 123.461 -0.57 -0.00    +0.000 C 
DOCKED: ENDROOT
DOCKED: BRANCH   1   2
DOCKED: ATOM      2  C   UNL     1      36.301  14.750 122.629 -0.34 -0.00    +0.000 C 
DOCKED: BRANCH   2   3
DOCKED: ATOM      3  C   UNL     1      37.425  15.780 122.452 -0.31 -0.00    +0.000 C 
DOCKED: BRANCH   3   4
DOCKED: ATOM      4  C   UNL     1      38.783  15.278 122.978 -0.29 -0.00    +0.000 C 
DOCKED: BRANCH   4   5
DOCKED: ATOM      5  C   UNL     1      39.959  15.499 122.013 -0.36 -0.00    +0.000 C 
DOCKED: BRANCH   5   7
DOCKED: ATOM      6  O   UNL     1      41.610  14.223 123.181 -0.99 -0.00    +0.000 OA
DOCKED: ATOM      7  C   UNL     1      41.287  15.341 122.696 -0.52 -0.00    +0.000 C 
DOCKED: ATOM      8  N   UNL     1      42.173  16.457 122.824 -0.40 -0.00    +0.000 N 
DOCKED: ATOM      9  H   UNL     1      41.915  17.330 122.450 -0.00 -0.00    +0.000 HD
DOCKED: BRANCH   8  10
DOCKED: ATOM     10  O   UNL     1      43.363  16.322 123.456 -0.85 -0.00    +0.000 OA
DOCKED: ATOM     11  H   UNL     1      43.440  16.998 124.147 -0.59 -0.00    +0.000 HD
DOCKED: ENDBRANCH   8  10
DOCKED: ENDBRANCH   5   7
DOCKED: ENDBRANCH   4   5
DOCKED: ENDBRANCH   3   4
DOCKED: ENDBRANCH   2   3
DOCKED: ENDBRANCH   1   2
DOCKED: BRANCH   1  12
DOCKED: ATOM     12  C   UNL     1      37.166  12.351 122.583 -0.59 -0.00    +0.000 C 
DOCKED: BRANCH  12  13
DOCKED: ATOM     13  C   UNL     1      36.591  11.073 123.116 -0.70 -0.00    +0.000 C 
DOCKED: ATOM     14  N   UNL     1      36.908   9.822 122.487 -0.62 -0.00    +0.000 N 
DOCKED: ATOM     15  O   UNL     1      35.820  11.110 124.114 -0.64 -0.00    +0.000 OA
DOCKED: ATOM     16  H   UNL     1      37.718   9.779 121.928 -0.03 -0.00    +0.000 HD
DOCKED: BRANCH  14  17
DOCKED: ATOM     17  C   UNL     1      36.118   8.628 122.618 -0.66 -0.00    +0.000 A 
DOCKED: ATOM     18  C   UNL     1      34.729   8.693 122.436 -0.60 -0.00    +0.000 A 
DOCKED: ATOM     19  C   UNL     1      33.946   7.548 122.593 -0.64 -0.00    +0.000 A 
DOCKED: ATOM     20  C   UNL     1      34.558   6.346 122.950 -0.68 -0.00    +0.000 A 
DOCKED: ATOM     21  N   UNL     1      35.901   6.299 123.151 -0.89 -0.00    +0.000 NA
DOCKED: ATOM     22  C   UNL     1      36.687   7.398 122.998 -0.70 -0.00    +0.000 A 
DOCKED: ATOM     23  CM  UNL     1      35.339   7.454 122.801 +0.00 -0.00    +0.000 AC
DOCKED: ENDBRANCH  14  17
DOCKED: ENDBRANCH  12  13
DOCKED: ENDBRANCH   1  12
DOCKED: TORSDOF 9DOCKED: TER
DOCKED: ENDMDL
________________________________________________________________________________


	BEGINNING GENETIC ALGORITHM DOCKING 74 of 100
Run: 74 Seed: 1623831780 107596909 [ Run 74 of 100 GA/GALS ]
Beginning LAMARCKIAN GENETIC ALGORITHM (LGA), with a maximum of 2500000 energy evaluations.

Final-Value: -14.793


	FINAL GENETIC ALGORITHM DOCKED STATE
	_______________________________________________


Detailed state:  trans 39.032 15.312 123.925 quatxyzw -0.458836 -0.301426 -0.835705 -0.014446 center -0.029 -0.207 0.469 ntor 9 -0.0912 101.5494 24.4740 -160.3329 34.2583 145.5127 115.0272 -30.1726 1.4390
State:	 39.032  15.312 123.925  -0.459 -0.301 -0.836 -178.345     -0.09  101.55   24.47 -160.33   34.26  145.51  115.03  -30.17    1.44

DOCKED: MODEL       74
DOCKED: USER    Run = 74
DOCKED: USER    DPF = ligand_dock.biased.dpf
DOCKED: USER  
DOCKED: USER    Estimated Free Energy of Binding    =  -10.49 kcal/mol  [=(1)+(2)+(3)-(4)]
DOCKED: USER    Estimated Inhibition Constant, Ki   =   20.28 nM (nanomolar)  [Temperature = 298.15 K]
DOCKED: USER    
DOCKED: USER    (1) Final Intermolecular Energy     =  -13.18 kcal/mol
DOCKED: USER        vdW + Hbond + desolv Energy     =  -13.18 kcal/mol
DOCKED: USER        Electrostatic Energy            =   +0.00 kcal/mol
DOCKED: USER    (2) Final Total Internal Energy     =   -1.61 kcal/mol
DOCKED: USER    (3) Torsional Free Energy           =   +2.68 kcal/mol
DOCKED: USER    (4) Unbound System's Energy  [=(2)] =   -1.61 kcal/mol
DOCKED: USER    
DOCKED: USER    
DOCKED: USER    NEWDPF move ligand.dum.pdbqt
DOCKED: USER    NEWDPF about -0.029000 -0.207000 0.469000
DOCKED: USER    NEWDPF tran0 39.031927 15.311635 123.924547
DOCKED: USER    NEWDPF quaternion0 -0.458836 -0.301426 -0.835705 -0.014446
DOCKED: USER    NEWDPF axisangle0 -0.458884 -0.301457 -0.835793 -178.344540
DOCKED: USER    NEWDPF quat0 -0.458884 -0.301457 -0.835793 -178.344540
DOCKED: USER    NEWDPF dihe0 -0.09 101.55 24.47 -160.33 34.26 145.51 115.03 -30.17 1.44 
DOCKED: USER  keepresnum = 1 
DOCKED: USER  
DOCKED: REMARK  Name = 
DOCKED: REMARK  9 active torsions:
DOCKED: REMARK  status: ('A' for Active; 'I' for Inactive)
DOCKED: REMARK    1  A    between atoms: C_2  and  C_5
DOCKED: REMARK    2  A    between atoms: N_3  and  O_4
DOCKED: REMARK    3  A    between atoms: C_5  and  C_6
DOCKED: REMARK    4  A    between atoms: C_6  and  C_7
DOCKED: REMARK    5  A    between atoms: C_7  and  C_8
DOCKED: REMARK    6  A    between atoms: C_8  and  C_9
DOCKED: REMARK    7  A    between atoms: C_9  and  C_10
DOCKED: REMARK    8  A    between atoms: C_10  and  C_11
DOCKED: REMARK    9  A    between atoms: N_12  and  C_13
DOCKED: REMARK                            x       y       z     vdW  Elec       q    Type
DOCKED: REMARK                         _______ _______ _______ _____ _____    ______ ____
DOCKED: USER                              x       y       z     vdW  Elec       q    Type
DOCKED: USER                           _______ _______ _______ _____ _____    ______ ____
DOCKED: ROOT
DOCKED: ATOM      1  C   UNL     1      36.474  14.145 122.381 -0.29 -0.00    +0.000 C 
DOCKED: ENDROOT
DOCKED: BRANCH   1   2
DOCKED: ATOM      2  C   UNL     1      37.032  13.763 123.760 -0.37 -0.00    +0.000 C 
DOCKED: BRANCH   2   3
DOCKED: ATOM      3  C   UNL     1      37.089  12.239 123.928 -0.49 -0.00    +0.000 C 
DOCKED: BRANCH   3   4
DOCKED: ATOM      4  C   UNL     1      35.856  11.527 123.341 -0.67 -0.00    +0.000 C 
DOCKED: BRANCH   4   5
DOCKED: ATOM      5  C   UNL     1      36.086  10.899 121.957 -0.56 -0.00    +0.000 C 
DOCKED: BRANCH   5   7
DOCKED: ATOM      6  O   UNL     1      36.859   8.849 121.000 -2.66 -0.00    +0.000 OA
DOCKED: ATOM      7  C   UNL     1      36.657   9.513 122.053 -0.69 -0.00    +0.000 C 
DOCKED: ATOM      8  N   UNL     1      36.945   8.934 123.328 -0.62 -0.00    +0.000 N 
DOCKED: ATOM      9  H   UNL     1      36.781   9.454 124.148 -0.50 -0.00    +0.000 HD
DOCKED: BRANCH   8  10
DOCKED: ATOM     10  O   UNL     1      37.443   7.679 123.418 -2.16 -0.00    +0.000 OA
DOCKED: ATOM     11  H   UNL     1      37.544   7.306 122.529 -0.20 -0.00    +0.000 HD
DOCKED: ENDBRANCH   8  10
DOCKED: ENDBRANCH   5   7
DOCKED: ENDBRANCH   4   5
DOCKED: ENDBRANCH   3   4
DOCKED: ENDBRANCH   2   3
DOCKED: ENDBRANCH   1   2
DOCKED: BRANCH   1  12
DOCKED: ATOM     12  C   UNL     1      37.405  13.719 121.238 -0.43 -0.00    +0.000 C 
DOCKED: BRANCH  12  13
DOCKED: ATOM     13  C   UNL     1      38.680  14.510 121.246 -0.36 -0.00    +0.000 C 
DOCKED: ATOM     14  N   UNL     1      39.587  14.404 122.354 -0.38 -0.00    +0.000 N 
DOCKED: ATOM     15  O   UNL     1      38.939  15.275 120.277 -0.24 -0.00    +0.000 OA
DOCKED: ATOM     16  H   UNL     1      39.523  13.607 122.928 -0.01 -0.00    +0.000 HD
DOCKED: BRANCH  14  17
DOCKED: ATOM     17  C   UNL     1      40.584  15.388 122.678 -0.39 -0.00    +0.000 A 
DOCKED: ATOM     18  C   UNL     1      40.239  16.746 122.690 -0.24 -0.00    +0.000 A 
DOCKED: ATOM     19  C   UNL     1      41.204  17.714 122.971 -0.22 -0.00    +0.000 A 
DOCKED: ATOM     20  C   UNL     1      42.518  17.315 123.223 -0.31 -0.00    +0.000 A 
DOCKED: ATOM     21  N   UNL     1      42.848  15.998 123.184 -0.94 +0.00    +0.000 NA
DOCKED: ATOM     22  C   UNL     1      41.925  15.035 122.918 -0.45 +0.00    +0.000 A 
DOCKED: ATOM     23  CM  UNL     1      41.588  16.356 122.950 +0.00 -0.00    +0.000 AC
DOCKED: ENDBRANCH  14  17
DOCKED: ENDBRANCH  12  13
DOCKED: ENDBRANCH   1  12
DOCKED: TORSDOF 9DOCKED: TER
DOCKED: ENDMDL
________________________________________________________________________________


	BEGINNING GENETIC ALGORITHM DOCKING 75 of 100
Run: 75 Seed: 1840448002 516848001 [ Run 75 of 100 GA/GALS ]
Beginning LAMARCKIAN GENETIC ALGORITHM (LGA), with a maximum of 2500000 energy evaluations.

Final-Value: -14.554


	FINAL GENETIC ALGORITHM DOCKED STATE
	_______________________________________________


Detailed state:  trans 37.379 11.860 122.245 quatxyzw -0.691446 0.118932 0.058405 0.710174 center -0.029 -0.207 0.469 ntor 9 13.9671 -166.1167 -173.8192 127.4428 119.3455 -114.0304 -136.2017 170.5435 135.5604
State:	 37.379  11.860 122.245  -0.982  0.169  0.083 89.502     13.97 -166.12 -173.82  127.44  119.35 -114.03 -136.20  170.54  135.56

DOCKED: MODEL       75
DOCKED: USER    Run = 75
DOCKED: USER    DPF = ligand_dock.biased.dpf
DOCKED: USER  
DOCKED: USER    Estimated Free Energy of Binding    =  -10.47 kcal/mol  [=(1)+(2)+(3)-(4)]
DOCKED: USER    Estimated Inhibition Constant, Ki   =   21.03 nM (nanomolar)  [Temperature = 298.15 K]
DOCKED: USER    
DOCKED: USER    (1) Final Intermolecular Energy     =  -13.16 kcal/mol
DOCKED: USER        vdW + Hbond + desolv Energy     =  -13.16 kcal/mol
DOCKED: USER        Electrostatic Energy            =   +0.00 kcal/mol
DOCKED: USER    (2) Final Total Internal Energy     =   -1.40 kcal/mol
DOCKED: USER    (3) Torsional Free Energy           =   +2.68 kcal/mol
DOCKED: USER    (4) Unbound System's Energy  [=(2)] =   -1.40 kcal/mol
DOCKED: USER    
DOCKED: USER    
DOCKED: USER    NEWDPF move ligand.dum.pdbqt
DOCKED: USER    NEWDPF about -0.029000 -0.207000 0.469000
DOCKED: USER    NEWDPF tran0 37.378809 11.859953 122.245253
DOCKED: USER    NEWDPF quaternion0 -0.691446 0.118932 0.058405 0.710174
DOCKED: USER    NEWDPF axisangle0 -0.982130 0.168931 0.082959 89.501900
DOCKED: USER    NEWDPF quat0 -0.982130 0.168931 0.082959 89.501900
DOCKED: USER    NEWDPF dihe0 13.97 -166.12 -173.82 127.44 119.35 -114.03 -136.20 170.54 135.56 
DOCKED: USER  keepresnum = 1 
DOCKED: USER  
DOCKED: REMARK  Name = 
DOCKED: REMARK  9 active torsions:
DOCKED: REMARK  status: ('A' for Active; 'I' for Inactive)
DOCKED: REMARK    1  A    between atoms: C_2  and  C_5
DOCKED: REMARK    2  A    between atoms: N_3  and  O_4
DOCKED: REMARK    3  A    between atoms: C_5  and  C_6
DOCKED: REMARK    4  A    between atoms: C_6  and  C_7
DOCKED: REMARK    5  A    between atoms: C_7  and  C_8
DOCKED: REMARK    6  A    between atoms: C_8  and  C_9
DOCKED: REMARK    7  A    between atoms: C_9  and  C_10
DOCKED: REMARK    8  A    between atoms: C_10  and  C_11
DOCKED: REMARK    9  A    between atoms: N_12  and  C_13
DOCKED: REMARK                            x       y       z     vdW  Elec       q    Type
DOCKED: REMARK                         _______ _______ _______ _____ _____    ______ ____
DOCKED: USER                              x       y       z     vdW  Elec       q    Type
DOCKED: USER                           _______ _______ _______ _____ _____    ______ ____
DOCKED: ROOT
DOCKED: ATOM      1  C   UNL     1      38.202  14.897 121.625 -0.35 -0.00    +0.000 C 
DOCKED: ENDROOT
DOCKED: BRANCH   1   2
DOCKED: ATOM      2  C   UNL     1      38.542  14.030 122.846 -0.43 -0.00    +0.000 C 
DOCKED: BRANCH   2   3
DOCKED: ATOM      3  C   UNL     1      37.489  12.931 123.052 -0.57 -0.00    +0.000 C 
DOCKED: BRANCH   3   4
DOCKED: ATOM      4  C   UNL     1      37.381  11.977 121.849 -0.47 -0.00    +0.000 C 
DOCKED: BRANCH   4   5
DOCKED: ATOM      5  C   UNL     1      36.246  10.945 121.957 -0.59 -0.00    +0.000 C 
DOCKED: BRANCH   5   7
DOCKED: ATOM      6  O   UNL     1      36.985   8.847 121.079 -2.68 -0.00    +0.000 OA
DOCKED: ATOM      7  C   UNL     1      36.768   9.544 122.107 -0.68 -0.00    +0.000 C 
DOCKED: ATOM      8  N   UNL     1      36.991   8.989 123.406 -0.59 -0.00    +0.000 N 
DOCKED: ATOM      9  H   UNL     1      36.815   9.534 124.206 -0.51 -0.00    +0.000 HD
DOCKED: BRANCH   8  10
DOCKED: ATOM     10  O   UNL     1      37.443   7.721 123.544 -2.11 -0.00    +0.000 OA
DOCKED: ATOM     11  H   UNL     1      37.773   7.400 122.691 -0.34 -0.00    +0.000 HD
DOCKED: ENDBRANCH   8  10
DOCKED: ENDBRANCH   5   7
DOCKED: ENDBRANCH   4   5
DOCKED: ENDBRANCH   3   4
DOCKED: ENDBRANCH   2   3
DOCKED: ENDBRANCH   1   2
DOCKED: BRANCH   1  12
DOCKED: ATOM     12  C   UNL     1      36.709  15.248 121.558 -0.21 -0.00    +0.000 C 
DOCKED: BRANCH  12  13
DOCKED: ATOM     13  C   UNL     1      36.303  16.133 122.699 -0.33 -0.00    +0.000 C 
DOCKED: ATOM     14  N   UNL     1      35.734  15.561 123.887 -0.45 -0.00    +0.000 N 
DOCKED: ATOM     15  O   UNL     1      36.456  17.381 122.599 -0.22 -0.00    +0.000 OA
DOCKED: ATOM     16  H   UNL     1      35.900  14.606 124.065 -0.04 -0.00    +0.000 HD
DOCKED: BRANCH  14  17
DOCKED: ATOM     17  C   UNL     1      34.935  16.293 124.833 -0.38 -0.00    +0.000 A 
DOCKED: ATOM     18  C   UNL     1      35.106  17.678 124.958 -0.31 -0.00    +0.000 A 
DOCKED: ATOM     19  C   UNL     1      34.361  18.396 125.895 -0.28 -0.00    +0.000 A 
DOCKED: ATOM     20  C   UNL     1      33.460  17.716 126.716 -0.32 -0.00    +0.000 A 
DOCKED: ATOM     21  N   UNL     1      33.321  16.369 126.606 -0.95 -0.00    +0.000 NA
DOCKED: ATOM     22  C   UNL     1      34.030  15.648 125.696 -0.18 -0.00    +0.000 A 
DOCKED: ATOM     23  CM  UNL     1      34.179  16.999 125.806 -0.15 -0.00    +0.000 AC
DOCKED: ENDBRANCH  14  17
DOCKED: ENDBRANCH  12  13
DOCKED: ENDBRANCH   1  12
DOCKED: TORSDOF 9DOCKED: TER
DOCKED: ENDMDL
________________________________________________________________________________


	BEGINNING GENETIC ALGORITHM DOCKING 76 of 100
Run: 76 Seed: 5388590 843137458 [ Run 76 of 100 GA/GALS ]
Beginning LAMARCKIAN GENETIC ALGORITHM (LGA), with a maximum of 2500000 energy evaluations.

Final-Value: -13.857


	FINAL GENETIC ALGORITHM DOCKED STATE
	_______________________________________________


Detailed state:  trans 36.034 12.785 122.530 quatxyzw 0.429303 0.403033 -0.797359 -0.132218 center -0.029 -0.207 0.469 ntor 9 35.5210 -125.2325 170.1084 180.0000 177.3901 -12.0444 -163.0678 24.8815 148.0023
State:	 36.034  12.785 122.530   0.433  0.407 -0.804 -164.804     35.52 -125.23  170.11  180.00  177.39  -12.04 -163.07   24.88  148.00

DOCKED: MODEL       76
DOCKED: USER    Run = 76
DOCKED: USER    DPF = ligand_dock.biased.dpf
DOCKED: USER  
DOCKED: USER    Estimated Free Energy of Binding    =  -10.09 kcal/mol  [=(1)+(2)+(3)-(4)]
DOCKED: USER    Estimated Inhibition Constant, Ki   =   40.33 nM (nanomolar)  [Temperature = 298.15 K]
DOCKED: USER    
DOCKED: USER    (1) Final Intermolecular Energy     =  -12.77 kcal/mol
DOCKED: USER        vdW + Hbond + desolv Energy     =  -12.77 kcal/mol
DOCKED: USER        Electrostatic Energy            =   +0.00 kcal/mol
DOCKED: USER    (2) Final Total Internal Energy     =   -1.08 kcal/mol
DOCKED: USER    (3) Torsional Free Energy           =   +2.68 kcal/mol
DOCKED: USER    (4) Unbound System's Energy  [=(2)] =   -1.08 kcal/mol
DOCKED: USER    
DOCKED: USER    
DOCKED: USER    NEWDPF move ligand.dum.pdbqt
DOCKED: USER    NEWDPF about -0.029000 -0.207000 0.469000
DOCKED: USER    NEWDPF tran0 36.033907 12.785235 122.530423
DOCKED: USER    NEWDPF quaternion0 0.429303 0.403033 -0.797359 -0.132218
DOCKED: USER    NEWDPF axisangle0 0.433106 0.406603 -0.804421 -164.804425
DOCKED: USER    NEWDPF quat0 0.433106 0.406603 -0.804421 -164.804425
DOCKED: USER    NEWDPF dihe0 35.52 -125.23 170.11 180.00 177.39 -12.04 -163.07 24.88 148.00 
DOCKED: USER  keepresnum = 1 
DOCKED: USER  
DOCKED: REMARK  Name = 
DOCKED: REMARK  9 active torsions:
DOCKED: REMARK  status: ('A' for Active; 'I' for Inactive)
DOCKED: REMARK    1  A    between atoms: C_2  and  C_5
DOCKED: REMARK    2  A    between atoms: N_3  and  O_4
DOCKED: REMARK    3  A    between atoms: C_5  and  C_6
DOCKED: REMARK    4  A    between atoms: C_6  and  C_7
DOCKED: REMARK    5  A    between atoms: C_7  and  C_8
DOCKED: REMARK    6  A    between atoms: C_8  and  C_9
DOCKED: REMARK    7  A    between atoms: C_9  and  C_10
DOCKED: REMARK    8  A    between atoms: C_10  and  C_11
DOCKED: REMARK    9  A    between atoms: N_12  and  C_13
DOCKED: REMARK                            x       y       z     vdW  Elec       q    Type
DOCKED: REMARK                         _______ _______ _______ _____ _____    ______ ____
DOCKED: USER                              x       y       z     vdW  Elec       q    Type
DOCKED: USER                           _______ _______ _______ _____ _____    ______ ____
DOCKED: ROOT
DOCKED: ATOM      1  C   UNL     1      37.546  15.537 121.876 -0.29 -0.00    +0.000 C 
DOCKED: ENDROOT
DOCKED: BRANCH   1   2
DOCKED: ATOM      2  C   UNL     1      37.356  14.299 120.986 -0.35 -0.00    +0.000 C 
DOCKED: BRANCH   2   3
DOCKED: ATOM      3  C   UNL     1      37.813  13.025 121.710 -0.47 -0.00    +0.000 C 
DOCKED: BRANCH   3   4
DOCKED: ATOM      4  C   UNL     1      37.257  11.741 121.065 -0.50 -0.00    +0.000 C 
DOCKED: BRANCH   4   5
DOCKED: ATOM      5  C   UNL     1      36.316  10.931 121.972 -0.61 -0.00    +0.000 C 
DOCKED: BRANCH   5   7
DOCKED: ATOM      6  O   UNL     1      36.961   8.842 121.005 -2.68 -0.00    +0.000 OA
DOCKED: ATOM      7  C   UNL     1      36.721   9.487 122.061 -0.69 -0.00    +0.000 C 
DOCKED: ATOM      8  N   UNL     1      36.806   8.835 123.331 -0.62 -0.00    +0.000 N 
DOCKED: ATOM      9  H   UNL     1      36.611   9.341 124.153 -0.45 -0.00    +0.000 HD
DOCKED: BRANCH   8  10
DOCKED: ATOM     10  O   UNL     1      37.152   7.529 123.413 -2.17 -0.00    +0.000 OA
DOCKED: ATOM     11  H   UNL     1      37.806   7.325 122.727 -0.40 -0.00    +0.000 HD
DOCKED: ENDBRANCH   8  10
DOCKED: ENDBRANCH   5   7
DOCKED: ENDBRANCH   4   5
DOCKED: ENDBRANCH   3   4
DOCKED: ENDBRANCH   2   3
DOCKED: ENDBRANCH   1   2
DOCKED: BRANCH   1  12
DOCKED: ATOM     12  C   UNL     1      38.480  15.262 123.062 -0.33 -0.00    +0.000 C 
DOCKED: BRANCH  12  13
DOCKED: ATOM     13  C   UNL     1      39.920  15.278 122.642 -0.38 -0.00    +0.000 C 
DOCKED: ATOM     14  N   UNL     1      40.827  16.233 123.215 -0.33 -0.00    +0.000 N 
DOCKED: ATOM     15  O   UNL     1      40.320  14.454 121.776 -1.02 -0.00    +0.000 OA
DOCKED: ATOM     16  H   UNL     1      40.582  16.644 124.075 -0.03 -0.00    +0.000 HD
DOCKED: BRANCH  14  17
DOCKED: ATOM     17  C   UNL     1      42.072  16.627 122.611 -0.35 -0.00    +0.000 A 
DOCKED: ATOM     18  C   UNL     1      42.224  16.543 121.221 -0.22 -0.00    +0.000 A 
DOCKED: ATOM     19  C   UNL     1      43.437  16.892 120.625 -0.17 -0.00    +0.000 A 
DOCKED: ATOM     20  C   UNL     1      44.499  17.307 121.430 -0.20 -0.00    +0.000 A 
DOCKED: ATOM     21  N   UNL     1      44.349  17.359 122.780 -0.33 -0.00    +0.000 NA
DOCKED: ATOM     22  C   UNL     1      43.176  17.031 123.384 -0.19 -0.00    +0.000 A 
DOCKED: ATOM     23  CM  UNL     1      43.321  16.971 122.029 +0.00 -0.00    +0.000 AC
DOCKED: ENDBRANCH  14  17
DOCKED: ENDBRANCH  12  13
DOCKED: ENDBRANCH   1  12
DOCKED: TORSDOF 9DOCKED: TER
DOCKED: ENDMDL
________________________________________________________________________________


	BEGINNING GENETIC ALGORITHM DOCKING 77 of 100
Run: 77 Seed: 1563125286 1543871554 [ Run 77 of 100 GA/GALS ]
Beginning LAMARCKIAN GENETIC ALGORITHM (LGA), with a maximum of 2500000 energy evaluations.

Final-Value: -13.061


	FINAL GENETIC ALGORITHM DOCKED STATE
	_______________________________________________


Detailed state:  trans 36.400 11.789 121.861 quatxyzw 0.183962 -0.754049 0.476791 -0.412600 center -0.029 -0.207 0.469 ntor 9 14.7356 -90.3647 97.7340 100.0077 89.4346 127.4351 -68.4827 6.5117 66.9953
State:	 36.400  11.789 121.861   0.202 -0.828  0.523 -131.263     14.74  -90.36   97.73  100.01   89.43  127.44  -68.48    6.51   67.00

DOCKED: MODEL       77
DOCKED: USER    Run = 77
DOCKED: USER    DPF = ligand_dock.biased.dpf
DOCKED: USER  
DOCKED: USER    Estimated Free Energy of Binding    =   -8.81 kcal/mol  [=(1)+(2)+(3)-(4)]
DOCKED: USER    Estimated Inhibition Constant, Ki   =  346.87 nM (nanomolar)  [Temperature = 298.15 K]
DOCKED: USER    
DOCKED: USER    (1) Final Intermolecular Energy     =  -11.50 kcal/mol
DOCKED: USER        vdW + Hbond + desolv Energy     =  -11.50 kcal/mol
DOCKED: USER        Electrostatic Energy            =   +0.00 kcal/mol
DOCKED: USER    (2) Final Total Internal Energy     =   -1.56 kcal/mol
DOCKED: USER    (3) Torsional Free Energy           =   +2.68 kcal/mol
DOCKED: USER    (4) Unbound System's Energy  [=(2)] =   -1.56 kcal/mol
DOCKED: USER    
DOCKED: USER    
DOCKED: USER    NEWDPF move ligand.dum.pdbqt
DOCKED: USER    NEWDPF about -0.029000 -0.207000 0.469000
DOCKED: USER    NEWDPF tran0 36.400140 11.788636 121.861393
DOCKED: USER    NEWDPF quaternion0 0.183962 -0.754049 0.476791 -0.412600
DOCKED: USER    NEWDPF axisangle0 0.201954 -0.827795 0.523421 -131.263415
DOCKED: USER    NEWDPF quat0 0.201954 -0.827795 0.523421 -131.263415
DOCKED: USER    NEWDPF dihe0 14.74 -90.36 97.73 100.01 89.43 127.44 -68.48 6.51 67.00 
DOCKED: USER  keepresnum = 1 
DOCKED: USER  
DOCKED: REMARK  Name = 
DOCKED: REMARK  9 active torsions:
DOCKED: REMARK  status: ('A' for Active; 'I' for Inactive)
DOCKED: REMARK    1  A    between atoms: C_2  and  C_5
DOCKED: REMARK    2  A    between atoms: N_3  and  O_4
DOCKED: REMARK    3  A    between atoms: C_5  and  C_6
DOCKED: REMARK    4  A    between atoms: C_6  and  C_7
DOCKED: REMARK    5  A    between atoms: C_7  and  C_8
DOCKED: REMARK    6  A    between atoms: C_8  and  C_9
DOCKED: REMARK    7  A    between atoms: C_9  and  C_10
DOCKED: REMARK    8  A    between atoms: C_10  and  C_11
DOCKED: REMARK    9  A    between atoms: N_12  and  C_13
DOCKED: REMARK                            x       y       z     vdW  Elec       q    Type
DOCKED: REMARK                         _______ _______ _______ _____ _____    ______ ____
DOCKED: USER                              x       y       z     vdW  Elec       q    Type
DOCKED: USER                           _______ _______ _______ _____ _____    ______ ____
DOCKED: ROOT
DOCKED: ATOM      1  C   UNL     1      38.202  14.262 122.823 -0.47 -0.00    +0.000 C 
DOCKED: ENDROOT
DOCKED: BRANCH   1   2
DOCKED: ATOM      2  C   UNL     1      36.695  14.216 122.527 -0.44 -0.00    +0.000 C 
DOCKED: BRANCH   2   3
DOCKED: ATOM      3  C   UNL     1      36.060  12.938 123.094 -0.56 -0.00    +0.000 C 
DOCKED: BRANCH   3   4
DOCKED: ATOM      4  C   UNL     1      36.703  11.655 122.536 -0.65 -0.00    +0.000 C 
DOCKED: BRANCH   4   5
DOCKED: ATOM      5  C   UNL     1      36.554  10.423 123.444 -0.55 -0.00    +0.000 C 
DOCKED: BRANCH   5   7
DOCKED: ATOM      6  O   UNL     1      36.698   9.149 121.426 -2.44 -0.00    +0.000 OA
DOCKED: ATOM      7  C   UNL     1      36.729   9.138 122.686 -0.74 -0.00    +0.000 C 
DOCKED: ATOM      8  N   UNL     1      36.901   7.902 123.385 -0.74 -0.00    +0.000 N 
DOCKED: ATOM      9  H   UNL     1      36.919   7.897 124.370 -0.39 -0.00    +0.000 HD
DOCKED: BRANCH   8  10
DOCKED: ATOM     10  O   UNL     1      37.040   6.740 122.706 -1.44 -0.00    +0.000 OA
DOCKED: ATOM     11  H   UNL     1      37.233   6.931 121.775 -0.21 -0.00    +0.000 HD
DOCKED: ENDBRANCH   8  10
DOCKED: ENDBRANCH   5   7
DOCKED: ENDBRANCH   4   5
DOCKED: ENDBRANCH   3   4
DOCKED: ENDBRANCH   2   3
DOCKED: ENDBRANCH   1   2
DOCKED: BRANCH   1  12
DOCKED: ATOM     12  C   UNL     1      39.049  14.089 121.555 -0.35 -0.00    +0.000 C 
DOCKED: BRANCH  12  13
DOCKED: ATOM     13  C   UNL     1      38.189  13.855 120.349 -0.37 -0.00    +0.000 C 
DOCKED: ATOM     14  N   UNL     1      37.914  14.933 119.441 -0.22 -0.00    +0.000 N 
DOCKED: ATOM     15  O   UNL     1      37.704  12.709 120.148 -0.51 -0.00    +0.000 OA
DOCKED: ATOM     16  H   UNL     1      38.523  15.706 119.443 -0.00 -0.00    +0.000 HD
DOCKED: BRANCH  14  17
DOCKED: ATOM     17  C   UNL     1      36.802  14.956 118.528 -0.23 -0.00    +0.000 A 
DOCKED: ATOM     18  C   UNL     1      36.608  13.884 117.646 -0.35 -0.00    +0.000 A 
DOCKED: ATOM     19  C   UNL     1      35.553  13.908 116.733 -0.28 -0.00    +0.000 A 
DOCKED: ATOM     20  C   UNL     1      34.707  15.018 116.696 -0.25 -0.00    +0.000 A 
DOCKED: ATOM     21  N   UNL     1      34.920  16.063 117.537 -0.16 -0.00    +0.000 NA
DOCKED: ATOM     22  C   UNL     1      35.936  16.061 118.440 -0.14 -0.00    +0.000 A 
DOCKED: ATOM     23  CM  UNL     1      35.732  15.011 117.595 +0.00 -0.00    +0.000 AC
DOCKED: ENDBRANCH  14  17
DOCKED: ENDBRANCH  12  13
DOCKED: ENDBRANCH   1  12
DOCKED: TORSDOF 9DOCKED: TER
DOCKED: ENDMDL
________________________________________________________________________________


	BEGINNING GENETIC ALGORITHM DOCKING 78 of 100
Run: 78 Seed: 160569363 1746355273 [ Run 78 of 100 GA/GALS ]
Beginning LAMARCKIAN GENETIC ALGORITHM (LGA), with a maximum of 2500000 energy evaluations.

Final-Value: -12.681


	FINAL GENETIC ALGORITHM DOCKED STATE
	_______________________________________________


Detailed state:  trans 39.653 15.261 122.432 quatxyzw 0.473784 -0.164333 0.799172 0.331433 center -0.029 -0.207 0.469 ntor 9 39.0631 -134.1942 99.6935 -136.9379 29.0236 28.7598 82.0346 -112.7917 160.9828
State:	 39.653  15.261 122.432   0.502 -0.174  0.847 141.288     39.06 -134.19   99.69 -136.94   29.02   28.76   82.03 -112.79  160.98

DOCKED: MODEL       78
DOCKED: USER    Run = 78
DOCKED: USER    DPF = ligand_dock.biased.dpf
DOCKED: USER  
DOCKED: USER    Estimated Free Energy of Binding    =   -8.77 kcal/mol  [=(1)+(2)+(3)-(4)]
DOCKED: USER    Estimated Inhibition Constant, Ki   =  370.26 nM (nanomolar)  [Temperature = 298.15 K]
DOCKED: USER    
DOCKED: USER    (1) Final Intermolecular Energy     =  -11.46 kcal/mol
DOCKED: USER        vdW + Hbond + desolv Energy     =  -11.46 kcal/mol
DOCKED: USER        Electrostatic Energy            =   +0.00 kcal/mol
DOCKED: USER    (2) Final Total Internal Energy     =   -1.22 kcal/mol
DOCKED: USER    (3) Torsional Free Energy           =   +2.68 kcal/mol
DOCKED: USER    (4) Unbound System's Energy  [=(2)] =   -1.22 kcal/mol
DOCKED: USER    
DOCKED: USER    
DOCKED: USER    NEWDPF move ligand.dum.pdbqt
DOCKED: USER    NEWDPF about -0.029000 -0.207000 0.469000
DOCKED: USER    NEWDPF tran0 39.652582 15.261146 122.431623
DOCKED: USER    NEWDPF quaternion0 0.473784 -0.164333 0.799172 0.331433
DOCKED: USER    NEWDPF axisangle0 0.502167 -0.174178 0.847048 141.288469
DOCKED: USER    NEWDPF quat0 0.502167 -0.174178 0.847048 141.288469
DOCKED: USER    NEWDPF dihe0 39.06 -134.19 99.69 -136.94 29.02 28.76 82.03 -112.79 160.98 
DOCKED: USER  keepresnum = 1 
DOCKED: USER  
DOCKED: REMARK  Name = 
DOCKED: REMARK  9 active torsions:
DOCKED: REMARK  status: ('A' for Active; 'I' for Inactive)
DOCKED: REMARK    1  A    between atoms: C_2  and  C_5
DOCKED: REMARK    2  A    between atoms: N_3  and  O_4
DOCKED: REMARK    3  A    between atoms: C_5  and  C_6
DOCKED: REMARK    4  A    between atoms: C_6  and  C_7
DOCKED: REMARK    5  A    between atoms: C_7  and  C_8
DOCKED: REMARK    6  A    between atoms: C_8  and  C_9
DOCKED: REMARK    7  A    between atoms: C_9  and  C_10
DOCKED: REMARK    8  A    between atoms: C_10  and  C_11
DOCKED: REMARK    9  A    between atoms: N_12  and  C_13
DOCKED: REMARK                            x       y       z     vdW  Elec       q    Type
DOCKED: REMARK                         _______ _______ _______ _____ _____    ______ ____
DOCKED: USER                              x       y       z     vdW  Elec       q    Type
DOCKED: USER                           _______ _______ _______ _____ _____    ______ ____
DOCKED: ROOT
DOCKED: ATOM      1  C   UNL     1      36.709  15.523 121.186 -0.19 -0.00    +0.000 C 
DOCKED: ENDROOT
DOCKED: BRANCH   1   2
DOCKED: ATOM      2  C   UNL     1      37.596  14.277 121.324 -0.38 -0.00    +0.000 C 
DOCKED: BRANCH   2   3
DOCKED: ATOM      3  C   UNL     1      37.043  13.111 120.494 -0.44 -0.00    +0.000 C 
DOCKED: BRANCH   3   4
DOCKED: ATOM      4  C   UNL     1      37.515  11.737 121.007 -0.41 -0.00    +0.000 C 
DOCKED: BRANCH   4   5
DOCKED: ATOM      5  C   UNL     1      36.530  11.044 121.963 -0.62 -0.00    +0.000 C 
DOCKED: BRANCH   5   7
DOCKED: ATOM      6  O   UNL     1      36.767   8.851 121.041 -2.63 -0.00    +0.000 OA
DOCKED: ATOM      7  C   UNL     1      36.795   9.570 122.077 -0.67 -0.00    +0.000 C 
DOCKED: ATOM      8  N   UNL     1      37.049   8.975 123.352 -0.61 -0.00    +0.000 N 
DOCKED: ATOM      9  H   UNL     1      37.064   9.539 124.159 -0.57 -0.00    +0.000 HD
DOCKED: BRANCH   8  10
DOCKED: ATOM     10  O   UNL     1      37.268   7.644 123.459 -2.19 -0.00    +0.000 OA
DOCKED: ATOM     11  H   UNL     1      37.807   7.344 122.711 -0.40 -0.00    +0.000 HD
DOCKED: ENDBRANCH   8  10
DOCKED: ENDBRANCH   5   7
DOCKED: ENDBRANCH   4   5
DOCKED: ENDBRANCH   3   4
DOCKED: ENDBRANCH   2   3
DOCKED: ENDBRANCH   1   2
DOCKED: BRANCH   1  12
DOCKED: ATOM     12  C   UNL     1      37.270  16.526 120.168 -0.16 -0.00    +0.000 C 
DOCKED: BRANCH  12  13
DOCKED: ATOM     13  C   UNL     1      36.721  16.278 118.794 -0.16 -0.00    +0.000 C 
DOCKED: ATOM     14  N   UNL     1      36.130  15.010 118.473 -0.23 -0.00    +0.000 N 
DOCKED: ATOM     15  O   UNL     1      36.795  17.189 117.925 -0.09 -0.00    +0.000 OA
DOCKED: ATOM     16  H   UNL     1      35.815  14.446 119.216 -0.01 -0.00    +0.000 HD
DOCKED: BRANCH  14  17
DOCKED: ATOM     17  C   UNL     1      35.969  14.510 117.134 -0.29 -0.00    +0.000 A 
DOCKED: ATOM     18  C   UNL     1      37.099  14.130 116.396 -0.31 -0.00    +0.000 A 
DOCKED: ATOM     19  C   UNL     1      36.960  13.674 115.084 -0.33 -0.00    +0.000 A 
DOCKED: ATOM     20  C   UNL     1      35.688  13.618 114.512 -0.21 -0.00    +0.000 A 
DOCKED: ATOM     21  N   UNL     1      34.602  14.013 115.227 -0.26 -0.00    +0.000 NA
DOCKED: ATOM     22  C   UNL     1      34.710  14.455 116.508 -0.29 -0.00    +0.000 A 
DOCKED: ATOM     23  CM  UNL     1      35.805  14.065 115.795 +0.00 -0.00    +0.000 AC
DOCKED: ENDBRANCH  14  17
DOCKED: ENDBRANCH  12  13
DOCKED: ENDBRANCH   1  12
DOCKED: TORSDOF 9DOCKED: TER
DOCKED: ENDMDL
________________________________________________________________________________


	BEGINNING GENETIC ALGORITHM DOCKING 79 of 100
Run: 79 Seed: 1925580053 1249107275 [ Run 79 of 100 GA/GALS ]
Beginning LAMARCKIAN GENETIC ALGORITHM (LGA), with a maximum of 2500000 energy evaluations.

Final-Value: -13.578


	FINAL GENETIC ALGORITHM DOCKED STATE
	_______________________________________________


Detailed state:  trans 37.421 16.359 122.116 quatxyzw -0.753231 -0.264749 -0.104614 -0.592965 center -0.029 -0.207 0.469 ntor 9 168.3526 161.1852 -163.9121 4.0539 14.8138 56.5538 -99.1853 18.7791 170.1204
State:	 37.421  16.359 122.116  -0.935 -0.329 -0.130 -107.265    168.35  161.19 -163.91    4.05   14.81   56.55  -99.19   18.78  170.12

DOCKED: MODEL       79
DOCKED: USER    Run = 79
DOCKED: USER    DPF = ligand_dock.biased.dpf
DOCKED: USER  
DOCKED: USER    Estimated Free Energy of Binding    =   -8.38 kcal/mol  [=(1)+(2)+(3)-(4)]
DOCKED: USER    Estimated Inhibition Constant, Ki   =  724.19 nM (nanomolar)  [Temperature = 298.15 K]
DOCKED: USER    
DOCKED: USER    (1) Final Intermolecular Energy     =  -11.06 kcal/mol
DOCKED: USER        vdW + Hbond + desolv Energy     =  -11.06 kcal/mol
DOCKED: USER        Electrostatic Energy            =   +0.00 kcal/mol
DOCKED: USER    (2) Final Total Internal Energy     =   -2.52 kcal/mol
DOCKED: USER    (3) Torsional Free Energy           =   +2.68 kcal/mol
DOCKED: USER    (4) Unbound System's Energy  [=(2)] =   -2.52 kcal/mol
DOCKED: USER    
DOCKED: USER    
DOCKED: USER    NEWDPF move ligand.dum.pdbqt
DOCKED: USER    NEWDPF about -0.029000 -0.207000 0.469000
DOCKED: USER    NEWDPF tran0 37.420839 16.358770 122.115749
DOCKED: USER    NEWDPF quaternion0 -0.753231 -0.264749 -0.104614 -0.592965
DOCKED: USER    NEWDPF axisangle0 -0.935425 -0.328787 -0.129918 -107.264666
DOCKED: USER    NEWDPF quat0 -0.935425 -0.328787 -0.129918 -107.264666
DOCKED: USER    NEWDPF dihe0 168.35 161.19 -163.91 4.05 14.81 56.55 -99.19 18.78 170.12 
DOCKED: USER  keepresnum = 1 
DOCKED: USER  
DOCKED: REMARK  Name = 
DOCKED: REMARK  9 active torsions:
DOCKED: REMARK  status: ('A' for Active; 'I' for Inactive)
DOCKED: REMARK    1  A    between atoms: C_2  and  C_5
DOCKED: REMARK    2  A    between atoms: N_3  and  O_4
DOCKED: REMARK    3  A    between atoms: C_5  and  C_6
DOCKED: REMARK    4  A    between atoms: C_6  and  C_7
DOCKED: REMARK    5  A    between atoms: C_7  and  C_8
DOCKED: REMARK    6  A    between atoms: C_8  and  C_9
DOCKED: REMARK    7  A    between atoms: C_9  and  C_10
DOCKED: REMARK    8  A    between atoms: C_10  and  C_11
DOCKED: REMARK    9  A    between atoms: N_12  and  C_13
DOCKED: REMARK                            x       y       z     vdW  Elec       q    Type
DOCKED: REMARK                         _______ _______ _______ _____ _____    ______ ____
DOCKED: USER                              x       y       z     vdW  Elec       q    Type
DOCKED: USER                           _______ _______ _______ _____ _____    ______ ____
DOCKED: ROOT
DOCKED: ATOM      1  C   UNL     1      37.605  13.451 123.458 -0.50 -0.00    +0.000 C 
DOCKED: ENDROOT
DOCKED: BRANCH   1   2
DOCKED: ATOM      2  C   UNL     1      38.633  14.183 122.582 -0.44 -0.00    +0.000 C 
DOCKED: BRANCH   2   3
DOCKED: ATOM      3  C   UNL     1      38.249  15.657 122.395 -0.32 -0.00    +0.000 C 
DOCKED: BRANCH   3   4
DOCKED: ATOM      4  C   UNL     1      38.250  16.091 120.917 -0.19 -0.00    +0.000 C 
DOCKED: BRANCH   4   5
DOCKED: ATOM      5  C   UNL     1      36.979  15.708 120.142 -0.21 -0.00    +0.000 C 
DOCKED: BRANCH   5   7
DOCKED: ATOM      6  O   UNL     1      36.973  14.596 118.025 -0.28 -0.00    +0.000 OA
DOCKED: ATOM      7  C   UNL     1      37.192  14.508 119.264 -0.31 -0.00    +0.000 C 
DOCKED: ATOM      8  N   UNL     1      37.613  13.263 119.827 -0.40 -0.00    +0.000 N 
DOCKED: ATOM      9  H   UNL     1      37.777  13.196 120.795 -0.02 -0.00    +0.000 HD
DOCKED: BRANCH   8  10
DOCKED: ATOM     10  O   UNL     1      37.787  12.175 119.040 -0.46 -0.00    +0.000 OA
DOCKED: ATOM     11  H   UNL     1      38.244  11.483 119.543 -0.12 -0.00    +0.000 HD
DOCKED: ENDBRANCH   8  10
DOCKED: ENDBRANCH   5   7
DOCKED: ENDBRANCH   4   5
DOCKED: ENDBRANCH   3   4
DOCKED: ENDBRANCH   2   3
DOCKED: ENDBRANCH   1   2
DOCKED: BRANCH   1  12
DOCKED: ATOM     12  C   UNL     1      36.351  13.050 122.669 -0.52 -0.00    +0.000 C 
DOCKED: BRANCH  12  13
DOCKED: ATOM     13  C   UNL     1      36.388  11.601 122.282 -0.63 -0.00    +0.000 C 
DOCKED: ATOM     14  N   UNL     1      35.450  10.678 122.855 -0.60 -0.00    +0.000 N 
DOCKED: ATOM     15  O   UNL     1      37.255  11.204 121.457 -0.65 -0.00    +0.000 OA
DOCKED: ATOM     16  H   UNL     1      34.620  11.042 123.242 -0.24 -0.00    +0.000 HD
DOCKED: BRANCH  14  17
DOCKED: ATOM     17  C   UNL     1      35.645   9.253 122.903 -0.59 -0.00    +0.000 A 
DOCKED: ATOM     18  C   UNL     1      34.533   8.400 122.861 -0.61 -0.00    +0.000 A 
DOCKED: ATOM     19  C   UNL     1      34.706   7.017 122.939 -0.66 -0.00    +0.000 A 
DOCKED: ATOM     20  C   UNL     1      35.993   6.497 123.076 -0.68 -0.00    +0.000 A 
DOCKED: ATOM     21  N   UNL     1      37.062   7.333 123.142 -2.01 -0.00    +0.000 NA
DOCKED: ATOM     22  C   UNL     1      36.921   8.683 123.062 -0.62 -0.00    +0.000 A 
DOCKED: ATOM     23  CM  UNL     1      35.844   7.850 123.001 +0.00 -0.00    +0.000 AC
DOCKED: ENDBRANCH  14  17
DOCKED: ENDBRANCH  12  13
DOCKED: ENDBRANCH   1  12
DOCKED: TORSDOF 9DOCKED: TER
DOCKED: ENDMDL
________________________________________________________________________________


	BEGINNING GENETIC ALGORITHM DOCKING 80 of 100
Run: 80 Seed: 1246520813 1551006697 [ Run 80 of 100 GA/GALS ]
Beginning LAMARCKIAN GENETIC ALGORITHM (LGA), with a maximum of 2500000 energy evaluations.

Final-Value: -13.722


	FINAL GENETIC ALGORITHM DOCKED STATE
	_______________________________________________


Detailed state:  trans 36.539 12.386 121.997 quatxyzw 0.829514 0.093131 -0.098051 -0.541867 center -0.029 -0.207 0.469 ntor 9 80.3558 172.2857 53.9200 82.6921 80.2257 62.7934 -96.3067 177.3354 -163.0949
State:	 36.539  12.386 121.997   0.987  0.111 -0.117 -114.378     80.36  172.29   53.92   82.69   80.23   62.79  -96.31  177.34 -163.09

DOCKED: MODEL       80
DOCKED: USER    Run = 80
DOCKED: USER    DPF = ligand_dock.biased.dpf
DOCKED: USER  
DOCKED: USER    Estimated Free Energy of Binding    =  -10.19 kcal/mol  [=(1)+(2)+(3)-(4)]
DOCKED: USER    Estimated Inhibition Constant, Ki   =   33.66 nM (nanomolar)  [Temperature = 298.15 K]
DOCKED: USER    
DOCKED: USER    (1) Final Intermolecular Energy     =  -12.88 kcal/mol
DOCKED: USER        vdW + Hbond + desolv Energy     =  -12.88 kcal/mol
DOCKED: USER        Electrostatic Energy            =   +0.00 kcal/mol
DOCKED: USER    (2) Final Total Internal Energy     =   -0.84 kcal/mol
DOCKED: USER    (3) Torsional Free Energy           =   +2.68 kcal/mol
DOCKED: USER    (4) Unbound System's Energy  [=(2)] =   -0.84 kcal/mol
DOCKED: USER    
DOCKED: USER    
DOCKED: USER    NEWDPF move ligand.dum.pdbqt
DOCKED: USER    NEWDPF about -0.029000 -0.207000 0.469000
DOCKED: USER    NEWDPF tran0 36.539078 12.385670 121.996920
DOCKED: USER    NEWDPF quaternion0 0.829514 0.093131 -0.098051 -0.541867
DOCKED: USER    NEWDPF axisangle0 0.986971 0.110809 -0.116663 -114.378381
DOCKED: USER    NEWDPF quat0 0.986971 0.110809 -0.116663 -114.378381
DOCKED: USER    NEWDPF dihe0 80.36 172.29 53.92 82.69 80.23 62.79 -96.31 177.34 -163.09 
DOCKED: USER  keepresnum = 1 
DOCKED: USER  
DOCKED: REMARK  Name = 
DOCKED: REMARK  9 active torsions:
DOCKED: REMARK  status: ('A' for Active; 'I' for Inactive)
DOCKED: REMARK    1  A    between atoms: C_2  and  C_5
DOCKED: REMARK    2  A    between atoms: N_3  and  O_4
DOCKED: REMARK    3  A    between atoms: C_5  and  C_6
DOCKED: REMARK    4  A    between atoms: C_6  and  C_7
DOCKED: REMARK    5  A    between atoms: C_7  and  C_8
DOCKED: REMARK    6  A    between atoms: C_8  and  C_9
DOCKED: REMARK    7  A    between atoms: C_9  and  C_10
DOCKED: REMARK    8  A    between atoms: C_10  and  C_11
DOCKED: REMARK    9  A    between atoms: N_12  and  C_13
DOCKED: REMARK                            x       y       z     vdW  Elec       q    Type
DOCKED: REMARK                         _______ _______ _______ _____ _____    ______ ____
DOCKED: USER                              x       y       z     vdW  Elec       q    Type
DOCKED: USER                           _______ _______ _______ _____ _____    ______ ____
DOCKED: ROOT
DOCKED: ATOM      1  C   UNL     1      36.573  15.506 122.737 -0.37 -0.00    +0.000 C 
DOCKED: ENDROOT
DOCKED: BRANCH   1   2
DOCKED: ATOM      2  C   UNL     1      37.453  14.370 123.280 -0.46 -0.00    +0.000 C 
DOCKED: BRANCH   2   3
DOCKED: ATOM      3  C   UNL     1      37.337  13.116 122.403 -0.54 -0.00    +0.000 C 
DOCKED: BRANCH   3   4
DOCKED: ATOM      4  C   UNL     1      36.878  11.876 123.194 -0.68 -0.00    +0.000 C 
DOCKED: BRANCH   4   5
DOCKED: ATOM      5  C   UNL     1      36.002  10.901 122.391 -0.66 -0.00    +0.000 C 
DOCKED: BRANCH   5   7
DOCKED: ATOM      6  O   UNL     1      37.042   9.216 121.051 -2.73 -0.00    +0.000 OA
DOCKED: ATOM      7  C   UNL     1      36.667   9.567 122.203 -0.70 -0.00    +0.000 C 
DOCKED: ATOM      8  N   UNL     1      36.848   8.684 123.312 -0.65 -0.00    +0.000 N 
DOCKED: ATOM      9  H   UNL     1      36.548   8.959 124.209 -0.41 -0.00    +0.000 HD
DOCKED: BRANCH   8  10
DOCKED: ATOM     10  O   UNL     1      37.430   7.474 123.142 -2.02 -0.00    +0.000 OA
DOCKED: ATOM     11  H   UNL     1      38.393   7.580 123.109 -0.53 -0.00    +0.000 HD
DOCKED: ENDBRANCH   8  10
DOCKED: ENDBRANCH   5   7
DOCKED: ENDBRANCH   4   5
DOCKED: ENDBRANCH   3   4
DOCKED: ENDBRANCH   2   3
DOCKED: ENDBRANCH   1   2
DOCKED: BRANCH   1  12
DOCKED: ATOM     12  C   UNL     1      35.112  15.376 123.189 -0.31 -0.00    +0.000 C 
DOCKED: BRANCH  12  13
DOCKED: ATOM     13  C   UNL     1      34.621  16.642 123.827 -0.49 -0.00    +0.000 C 
DOCKED: ATOM     14  N   UNL     1      34.792  16.851 125.238 -0.39 -0.00    +0.000 N 
DOCKED: ATOM     15  O   UNL     1      34.049  17.512 123.115 -0.47 -0.00    +0.000 OA
DOCKED: ATOM     16  H   UNL     1      35.484  16.326 125.702 +0.01 -0.00    +0.000 HD
DOCKED: BRANCH  14  17
DOCKED: ATOM     17  C   UNL     1      34.017  17.779 126.017 -0.34 -0.00    +0.000 A 
DOCKED: ATOM     18  C   UNL     1      34.212  19.156 125.848 -0.24 -0.00    +0.000 A 
DOCKED: ATOM     19  C   UNL     1      33.489  20.067 126.621 -0.18 -0.00    +0.000 A 
DOCKED: ATOM     20  C   UNL     1      32.586  19.591 127.572 -0.17 -0.00    +0.000 A 
DOCKED: ATOM     21  N   UNL     1      32.424  18.253 127.746 -0.25 -0.00    +0.000 NA
DOCKED: ATOM     22  C   UNL     1      33.111  17.345 127.002 -0.30 -0.00    +0.000 A 
DOCKED: ATOM     23  CM  UNL     1      33.283  18.686 126.826 -0.00 -0.00    +0.000 AC
DOCKED: ENDBRANCH  14  17
DOCKED: ENDBRANCH  12  13
DOCKED: ENDBRANCH   1  12
DOCKED: TORSDOF 9DOCKED: TER
DOCKED: ENDMDL
________________________________________________________________________________


	BEGINNING GENETIC ALGORITHM DOCKING 81 of 100
Run: 81 Seed: 1608941363 276136413 [ Run 81 of 100 GA/GALS ]
Beginning LAMARCKIAN GENETIC ALGORITHM (LGA), with a maximum of 2500000 energy evaluations.

Final-Value: -14.204


	FINAL GENETIC ALGORITHM DOCKED STATE
	_______________________________________________


Detailed state:  trans 38.295 13.009 124.849 quatxyzw 0.156203 -0.291901 0.897738 -0.290620 center -0.029 -0.207 0.469 ntor 9 2.3384 -125.7506 -175.6096 -82.1372 -177.9234 73.3619 -159.0753 150.0486 -76.6363
State:	 38.295  13.009 124.849   0.163 -0.305  0.938 -146.210      2.34 -125.75 -175.61  -82.14 -177.92   73.36 -159.08  150.05  -76.64

DOCKED: MODEL       81
DOCKED: USER    Run = 81
DOCKED: USER    DPF = ligand_dock.biased.dpf
DOCKED: USER  
DOCKED: USER    Estimated Free Energy of Binding    =  -10.24 kcal/mol  [=(1)+(2)+(3)-(4)]
DOCKED: USER    Estimated Inhibition Constant, Ki   =   31.02 nM (nanomolar)  [Temperature = 298.15 K]
DOCKED: USER    
DOCKED: USER    (1) Final Intermolecular Energy     =  -12.93 kcal/mol
DOCKED: USER        vdW + Hbond + desolv Energy     =  -12.93 kcal/mol
DOCKED: USER        Electrostatic Energy            =   +0.00 kcal/mol
DOCKED: USER    (2) Final Total Internal Energy     =   -1.28 kcal/mol
DOCKED: USER    (3) Torsional Free Energy           =   +2.68 kcal/mol
DOCKED: USER    (4) Unbound System's Energy  [=(2)] =   -1.28 kcal/mol
DOCKED: USER    
DOCKED: USER    
DOCKED: USER    NEWDPF move ligand.dum.pdbqt
DOCKED: USER    NEWDPF about -0.029000 -0.207000 0.469000
DOCKED: USER    NEWDPF tran0 38.294570 13.008696 124.848549
DOCKED: USER    NEWDPF quaternion0 0.156203 -0.291901 0.897738 -0.290620
DOCKED: USER    NEWDPF axisangle0 0.163249 -0.305069 0.938234 -146.209833
DOCKED: USER    NEWDPF quat0 0.163249 -0.305069 0.938234 -146.209833
DOCKED: USER    NEWDPF dihe0 2.34 -125.75 -175.61 -82.14 -177.92 73.36 -159.08 150.05 -76.64 
DOCKED: USER  keepresnum = 1 
DOCKED: USER  
DOCKED: REMARK  Name = 
DOCKED: REMARK  9 active torsions:
DOCKED: REMARK  status: ('A' for Active; 'I' for Inactive)
DOCKED: REMARK    1  A    between atoms: C_2  and  C_5
DOCKED: REMARK    2  A    between atoms: N_3  and  O_4
DOCKED: REMARK    3  A    between atoms: C_5  and  C_6
DOCKED: REMARK    4  A    between atoms: C_6  and  C_7
DOCKED: REMARK    5  A    between atoms: C_7  and  C_8
DOCKED: REMARK    6  A    between atoms: C_8  and  C_9
DOCKED: REMARK    7  A    between atoms: C_9  and  C_10
DOCKED: REMARK    8  A    between atoms: C_10  and  C_11
DOCKED: REMARK    9  A    between atoms: N_12  and  C_13
DOCKED: REMARK                            x       y       z     vdW  Elec       q    Type
DOCKED: REMARK                         _______ _______ _______ _____ _____    ______ ____
DOCKED: USER                              x       y       z     vdW  Elec       q    Type
DOCKED: USER                           _______ _______ _______ _____ _____    ______ ____
DOCKED: ROOT
DOCKED: ATOM      1  C   UNL     1      38.306  15.323 122.627 -0.37 -0.00    +0.000 C 
DOCKED: ENDROOT
DOCKED: BRANCH   1   2
DOCKED: ATOM      2  C   UNL     1      37.174  14.362 123.023 -0.49 -0.00    +0.000 C 
DOCKED: BRANCH   2   3
DOCKED: ATOM      3  C   UNL     1      37.676  12.913 123.082 -0.51 -0.00    +0.000 C 
DOCKED: BRANCH   3   4
DOCKED: ATOM      4  C   UNL     1      37.070  12.026 121.979 -0.57 -0.00    +0.000 C 
DOCKED: BRANCH   4   5
DOCKED: ATOM      5  C   UNL     1      36.103  10.946 122.491 -0.67 -0.00    +0.000 C 
DOCKED: BRANCH   5   7
DOCKED: ATOM      6  O   UNL     1      37.065   9.234 121.127 -2.73 -0.00    +0.000 OA
DOCKED: ATOM      7  C   UNL     1      36.634   9.559 122.267 -0.71 -0.00    +0.000 C 
DOCKED: ATOM      8  N   UNL     1      36.626   8.600 123.327 -0.65 -0.00    +0.000 N 
DOCKED: ATOM      9  H   UNL     1      36.283   8.855 124.213 -0.31 -0.00    +0.000 HD
DOCKED: BRANCH   8  10
DOCKED: ATOM     10  O   UNL     1      37.086   7.343 123.122 -2.15 -0.00    +0.000 OA
DOCKED: ATOM     11  H   UNL     1      37.419   7.265 122.215 -0.15 -0.00    +0.000 HD
DOCKED: ENDBRANCH   8  10
DOCKED: ENDBRANCH   5   7
DOCKED: ENDBRANCH   4   5
DOCKED: ENDBRANCH   3   4
DOCKED: ENDBRANCH   2   3
DOCKED: ENDBRANCH   1   2
DOCKED: BRANCH   1  12
DOCKED: ATOM     12  C   UNL     1      39.467  14.598 121.933 -0.39 -0.00    +0.000 C 
DOCKED: BRANCH  12  13
DOCKED: ATOM     13  C   UNL     1      40.785  15.231 122.266 -0.47 -0.00    +0.000 C 
DOCKED: ATOM     14  N   UNL     1      41.568  15.850 121.234 -0.26 -0.00    +0.000 N 
DOCKED: ATOM     15  O   UNL     1      41.201  15.204 123.456 -0.81 +0.00    +0.000 OA
DOCKED: ATOM     16  H   UNL     1      41.109  16.124 120.407 -0.00 -0.00    +0.000 HD
DOCKED: BRANCH  14  17
DOCKED: ATOM     17  C   UNL     1      42.982  16.096 121.331 -0.28 -0.00    +0.000 A 
DOCKED: ATOM     18  C   UNL     1      43.842  15.588 120.347 -0.25 -0.00    +0.000 A 
DOCKED: ATOM     19  C   UNL     1      45.220  15.792 120.446 -0.26 +0.00    +0.000 A 
DOCKED: ATOM     20  C   UNL     1      45.730  16.490 121.542 -0.24 +0.00    +0.000 A 
DOCKED: ATOM     21  N   UNL     1      44.890  16.955 122.504 -0.33 -0.00    +0.000 NA
DOCKED: ATOM     22  C   UNL     1      43.544  16.775 122.427 -0.34 -0.00    +0.000 A 
DOCKED: ATOM     23  CM  UNL     1      44.382  16.301 121.462 +0.00 -0.00    +0.000 AC
DOCKED: ENDBRANCH  14  17
DOCKED: ENDBRANCH  12  13
DOCKED: ENDBRANCH   1  12
DOCKED: TORSDOF 9DOCKED: TER
DOCKED: ENDMDL
________________________________________________________________________________


	BEGINNING GENETIC ALGORITHM DOCKING 82 of 100
Run: 82 Seed: 175107722 673506304 [ Run 82 of 100 GA/GALS ]
Beginning LAMARCKIAN GENETIC ALGORITHM (LGA), with a maximum of 2500000 energy evaluations.

Final-Value: -13.635


	FINAL GENETIC ALGORITHM DOCKED STATE
	_______________________________________________


Detailed state:  trans 36.614 12.372 121.464 quatxyzw 0.648060 -0.604540 0.169928 -0.430899 center -0.029 -0.207 0.469 ntor 9 -6.6346 142.3256 13.8643 -73.9443 77.4401 21.0145 -72.0177 75.6007 -16.0798
State:	 36.614  12.372 121.464   0.718 -0.670  0.188 -128.951     -6.63  142.33   13.86  -73.94   77.44   21.01  -72.02   75.60  -16.08

DOCKED: MODEL       82
DOCKED: USER    Run = 82
DOCKED: USER    DPF = ligand_dock.biased.dpf
DOCKED: USER  
DOCKED: USER    Estimated Free Energy of Binding    =   -9.42 kcal/mol  [=(1)+(2)+(3)-(4)]
DOCKED: USER    Estimated Inhibition Constant, Ki   =  125.29 nM (nanomolar)  [Temperature = 298.15 K]
DOCKED: USER    
DOCKED: USER    (1) Final Intermolecular Energy     =  -12.10 kcal/mol
DOCKED: USER        vdW + Hbond + desolv Energy     =  -12.10 kcal/mol
DOCKED: USER        Electrostatic Energy            =   +0.00 kcal/mol
DOCKED: USER    (2) Final Total Internal Energy     =   -1.53 kcal/mol
DOCKED: USER    (3) Torsional Free Energy           =   +2.68 kcal/mol
DOCKED: USER    (4) Unbound System's Energy  [=(2)] =   -1.53 kcal/mol
DOCKED: USER    
DOCKED: USER    
DOCKED: USER    NEWDPF move ligand.dum.pdbqt
DOCKED: USER    NEWDPF about -0.029000 -0.207000 0.469000
DOCKED: USER    NEWDPF tran0 36.613922 12.372105 121.463946
DOCKED: USER    NEWDPF quaternion0 0.648060 -0.604540 0.169928 -0.430899
DOCKED: USER    NEWDPF axisangle0 0.718151 -0.669925 0.188307 -128.950707
DOCKED: USER    NEWDPF quat0 0.718151 -0.669925 0.188307 -128.950707
DOCKED: USER    NEWDPF dihe0 -6.63 142.33 13.86 -73.94 77.44 21.01 -72.02 75.60 -16.08 
DOCKED: USER  keepresnum = 1 
DOCKED: USER  
DOCKED: REMARK  Name = 
DOCKED: REMARK  9 active torsions:
DOCKED: REMARK  status: ('A' for Active; 'I' for Inactive)
DOCKED: REMARK    1  A    between atoms: C_2  and  C_5
DOCKED: REMARK    2  A    between atoms: N_3  and  O_4
DOCKED: REMARK    3  A    between atoms: C_5  and  C_6
DOCKED: REMARK    4  A    between atoms: C_6  and  C_7
DOCKED: REMARK    5  A    between atoms: C_7  and  C_8
DOCKED: REMARK    6  A    between atoms: C_8  and  C_9
DOCKED: REMARK    7  A    between atoms: C_9  and  C_10
DOCKED: REMARK    8  A    between atoms: C_10  and  C_11
DOCKED: REMARK    9  A    between atoms: N_12  and  C_13
DOCKED: REMARK                            x       y       z     vdW  Elec       q    Type
DOCKED: REMARK                         _______ _______ _______ _____ _____    ______ ____
DOCKED: USER                              x       y       z     vdW  Elec       q    Type
DOCKED: USER                           _______ _______ _______ _____ _____    ______ ____
DOCKED: ROOT
DOCKED: ATOM      1  C   UNL     1      38.093  14.732 123.055 -0.42 -0.00    +0.000 C 
DOCKED: ENDROOT
DOCKED: BRANCH   1   2
DOCKED: ATOM      2  C   UNL     1      36.922  13.845 123.503 -0.52 -0.00    +0.000 C 
DOCKED: BRANCH   2   3
DOCKED: ATOM      3  C   UNL     1      37.109  12.400 123.021 -0.63 -0.00    +0.000 C 
DOCKED: BRANCH   3   4
DOCKED: ATOM      4  C   UNL     1      35.815  11.569 123.110 -0.65 -0.00    +0.000 C 
DOCKED: BRANCH   4   5
DOCKED: ATOM      5  C   UNL     1      35.628  10.561 121.964 -0.43 -0.00    +0.000 C 
DOCKED: BRANCH   5   7
DOCKED: ATOM      6  O   UNL     1      37.050   8.844 121.102 -2.69 -0.00    +0.000 OA
DOCKED: ATOM      7  C   UNL     1      36.513   9.358 122.120 -0.70 -0.00    +0.000 C 
DOCKED: ATOM      8  N   UNL     1      36.725   8.775 123.409 -0.61 -0.00    +0.000 N 
DOCKED: ATOM      9  H   UNL     1      36.300   9.176 124.201 -0.34 -0.00    +0.000 HD
DOCKED: BRANCH   8  10
DOCKED: ATOM     10  O   UNL     1      37.507   7.679 123.549 -2.02 -0.00    +0.000 OA
DOCKED: ATOM     11  H   UNL     1      37.762   7.350 122.674 -0.34 -0.00    +0.000 HD
DOCKED: ENDBRANCH   8  10
DOCKED: ENDBRANCH   5   7
DOCKED: ENDBRANCH   4   5
DOCKED: ENDBRANCH   3   4
DOCKED: ENDBRANCH   2   3
DOCKED: ENDBRANCH   1   2
DOCKED: BRANCH   1  12
DOCKED: ATOM     12  C   UNL     1      37.697  15.691 121.924 -0.28 -0.00    +0.000 C 
DOCKED: BRANCH  12  13
DOCKED: ATOM     13  C   UNL     1      37.822  15.036 120.580 -0.28 -0.00    +0.000 C 
DOCKED: ATOM     14  N   UNL     1      37.293  15.682 119.412 -0.17 -0.00    +0.000 N 
DOCKED: ATOM     15  O   UNL     1      38.386  13.912 120.491 -0.38 -0.00    +0.000 OA
DOCKED: ATOM     16  H   UNL     1      37.139  16.654 119.451 +0.00 -0.00    +0.000 HD
DOCKED: BRANCH  14  17
DOCKED: ATOM     17  C   UNL     1      36.971  14.999 118.188 -0.23 -0.00    +0.000 A 
DOCKED: ATOM     18  C   UNL     1      35.739  15.239 117.564 -0.22 -0.00    +0.000 A 
DOCKED: ATOM     19  C   UNL     1      35.401  14.558 116.393 -0.27 -0.00    +0.000 A 
DOCKED: ATOM     20  C   UNL     1      36.294  13.626 115.863 -0.24 -0.00    +0.000 A 
DOCKED: ATOM     21  N   UNL     1      37.474  13.381 116.490 -0.40 -0.00    +0.000 NA
DOCKED: ATOM     22  C   UNL     1      37.830  14.035 117.628 -0.29 -0.00    +0.000 A 
DOCKED: ATOM     23  CM  UNL     1      36.641  14.281 117.007 +0.00 -0.00    +0.000 AC
DOCKED: ENDBRANCH  14  17
DOCKED: ENDBRANCH  12  13
DOCKED: ENDBRANCH   1  12
DOCKED: TORSDOF 9DOCKED: TER
DOCKED: ENDMDL
________________________________________________________________________________


	BEGINNING GENETIC ALGORITHM DOCKING 83 of 100
Run: 83 Seed: 1262469094 1499076432 [ Run 83 of 100 GA/GALS ]
Beginning LAMARCKIAN GENETIC ALGORITHM (LGA), with a maximum of 2500000 energy evaluations.

Final-Value: -14.294


	FINAL GENETIC ALGORITHM DOCKED STATE
	_______________________________________________


Detailed state:  trans 38.329 13.377 119.937 quatxyzw 0.449502 0.851298 0.195796 -0.186825 center -0.029 -0.207 0.469 ntor 9 -0.1815 -143.1556 -171.2363 -134.9600 -175.2402 -180.0000 60.2795 -155.1884 -84.1515
State:	 38.329  13.377 119.937   0.458  0.867  0.199 -158.465     -0.18 -143.16 -171.24 -134.96 -175.24 -180.00   60.28 -155.19  -84.15

DOCKED: MODEL       83
DOCKED: USER    Run = 83
DOCKED: USER    DPF = ligand_dock.biased.dpf
DOCKED: USER  
DOCKED: USER    Estimated Free Energy of Binding    =  -10.27 kcal/mol  [=(1)+(2)+(3)-(4)]
DOCKED: USER    Estimated Inhibition Constant, Ki   =   29.73 nM (nanomolar)  [Temperature = 298.15 K]
DOCKED: USER    
DOCKED: USER    (1) Final Intermolecular Energy     =  -12.95 kcal/mol
DOCKED: USER        vdW + Hbond + desolv Energy     =  -12.95 kcal/mol
DOCKED: USER        Electrostatic Energy            =   +0.00 kcal/mol
DOCKED: USER    (2) Final Total Internal Energy     =   -1.34 kcal/mol
DOCKED: USER    (3) Torsional Free Energy           =   +2.68 kcal/mol
DOCKED: USER    (4) Unbound System's Energy  [=(2)] =   -1.34 kcal/mol
DOCKED: USER    
DOCKED: USER    
DOCKED: USER    NEWDPF move ligand.dum.pdbqt
DOCKED: USER    NEWDPF about -0.029000 -0.207000 0.469000
DOCKED: USER    NEWDPF tran0 38.328950 13.376877 119.937310
DOCKED: USER    NEWDPF quaternion0 0.449502 0.851298 0.195796 -0.186825
DOCKED: USER    NEWDPF axisangle0 0.457558 0.866555 0.199305 -158.464915
DOCKED: USER    NEWDPF quat0 0.457558 0.866555 0.199305 -158.464915
DOCKED: USER    NEWDPF dihe0 -0.18 -143.16 -171.24 -134.96 -175.24 -180.00 60.28 -155.19 -84.15 
DOCKED: USER  keepresnum = 1 
DOCKED: USER  
DOCKED: REMARK  Name = 
DOCKED: REMARK  9 active torsions:
DOCKED: REMARK  status: ('A' for Active; 'I' for Inactive)
DOCKED: REMARK    1  A    between atoms: C_2  and  C_5
DOCKED: REMARK    2  A    between atoms: N_3  and  O_4
DOCKED: REMARK    3  A    between atoms: C_5  and  C_6
DOCKED: REMARK    4  A    between atoms: C_6  and  C_7
DOCKED: REMARK    5  A    between atoms: C_7  and  C_8
DOCKED: REMARK    6  A    between atoms: C_8  and  C_9
DOCKED: REMARK    7  A    between atoms: C_9  and  C_10
DOCKED: REMARK    8  A    between atoms: C_10  and  C_11
DOCKED: REMARK    9  A    between atoms: N_12  and  C_13
DOCKED: REMARK                            x       y       z     vdW  Elec       q    Type
DOCKED: REMARK                         _______ _______ _______ _____ _____    ______ ____
DOCKED: USER                              x       y       z     vdW  Elec       q    Type
DOCKED: USER                           _______ _______ _______ _____ _____    ______ ____
DOCKED: ROOT
DOCKED: ATOM      1  C   UNL     1      36.379  12.547 122.345 -0.53 -0.00    +0.000 C 
DOCKED: ENDROOT
DOCKED: BRANCH   1   2
DOCKED: ATOM      2  C   UNL     1      37.221  13.821 122.173 -0.47 -0.00    +0.000 C 
DOCKED: BRANCH   2   3
DOCKED: ATOM      3  C   UNL     1      36.871  14.862 123.245 -0.45 -0.00    +0.000 C 
DOCKED: BRANCH   3   4
DOCKED: ATOM      4  C   UNL     1      35.685  14.433 124.128 -0.52 -0.00    +0.000 C 
DOCKED: BRANCH   4   5
DOCKED: ATOM      5  C   UNL     1      34.393  15.231 123.887 -0.59 -0.00    +0.000 C 
DOCKED: BRANCH   5   7
DOCKED: ATOM      6  O   UNL     1      33.741  15.640 126.151 -0.91 -0.00    +0.000 OA
DOCKED: ATOM      7  C   UNL     1      34.065  16.138 125.039 -0.52 -0.00    +0.000 C 
DOCKED: ATOM      8  N   UNL     1      34.089  17.558 124.873 -0.40 -0.00    +0.000 N 
DOCKED: ATOM      9  H   UNL     1      34.336  17.943 124.002 -0.02 -0.00    +0.000 HD
DOCKED: BRANCH   8  10
DOCKED: ATOM     10  O   UNL     1      33.775  18.377 125.904 -0.37 -0.00    +0.000 OA
DOCKED: ATOM     11  H   UNL     1      33.553  17.845 126.684 -0.01 -0.00    +0.000 HD
DOCKED: ENDBRANCH   8  10
DOCKED: ENDBRANCH   5   7
DOCKED: ENDBRANCH   4   5
DOCKED: ENDBRANCH   3   4
DOCKED: ENDBRANCH   2   3
DOCKED: ENDBRANCH   1   2
DOCKED: BRANCH   1  12
DOCKED: ATOM     12  C   UNL     1      37.249  11.302 122.570 -0.42 -0.00    +0.000 C 
DOCKED: BRANCH  12  13
DOCKED: ATOM     13  C   UNL     1      36.548  10.056 122.117 -0.65 -0.00    +0.000 C 
DOCKED: ATOM     14  N   UNL     1      35.308   9.665 122.726 -0.60 -0.00    +0.000 N 
DOCKED: ATOM     15  O   UNL     1      37.064   9.353 121.206 -2.62 -0.00    +0.000 OA
DOCKED: ATOM     16  H   UNL     1      34.786  10.355 123.196 -0.34 -0.00    +0.000 HD
DOCKED: BRANCH  14  17
DOCKED: ATOM     17  C   UNL     1      34.779   8.327 122.693 -0.61 -0.00    +0.000 A 
DOCKED: ATOM     18  C   UNL     1      35.390   7.322 123.454 -0.65 -0.00    +0.000 A 
DOCKED: ATOM     19  C   UNL     1      34.907   6.013 123.407 -0.64 -0.00    +0.000 A 
DOCKED: ATOM     20  C   UNL     1      33.822   5.716 122.581 -0.46 -0.00    +0.000 A 
DOCKED: ATOM     21  N   UNL     1      33.253   6.692 121.827 -0.57 -0.00    +0.000 NA
DOCKED: ATOM     22  C   UNL     1      33.701   7.976 121.861 -0.61 -0.00    +0.000 A 
DOCKED: ATOM     23  CM  UNL     1      34.280   6.999 122.615 +0.00 -0.00    +0.000 AC
DOCKED: ENDBRANCH  14  17
DOCKED: ENDBRANCH  12  13
DOCKED: ENDBRANCH   1  12
DOCKED: TORSDOF 9DOCKED: TER
DOCKED: ENDMDL
________________________________________________________________________________


	BEGINNING GENETIC ALGORITHM DOCKING 84 of 100
Run: 84 Seed: 1974504917 1078719081 [ Run 84 of 100 GA/GALS ]
Beginning LAMARCKIAN GENETIC ALGORITHM (LGA), with a maximum of 2500000 energy evaluations.

Final-Value: -14.434


	FINAL GENETIC ALGORITHM DOCKED STATE
	_______________________________________________


Detailed state:  trans 39.759 12.199 123.774 quatxyzw -0.459283 0.027835 -0.754883 0.467372 center -0.029 -0.207 0.469 ntor 9 80.3137 167.8482 62.5502 -56.3967 -180.0000 -47.0297 107.1269 62.4013 -164.5911
State:	 39.759  12.199 123.774  -0.520  0.031 -0.854 124.272     80.31  167.85   62.55  -56.40 -180.00  -47.03  107.13   62.40 -164.59

DOCKED: MODEL       84
DOCKED: USER    Run = 84
DOCKED: USER    DPF = ligand_dock.biased.dpf
DOCKED: USER  
DOCKED: USER    Estimated Free Energy of Binding    =  -10.61 kcal/mol  [=(1)+(2)+(3)-(4)]
DOCKED: USER    Estimated Inhibition Constant, Ki   =   16.67 nM (nanomolar)  [Temperature = 298.15 K]
DOCKED: USER    
DOCKED: USER    (1) Final Intermolecular Energy     =  -13.30 kcal/mol
DOCKED: USER        vdW + Hbond + desolv Energy     =  -13.30 kcal/mol
DOCKED: USER        Electrostatic Energy            =   +0.00 kcal/mol
DOCKED: USER    (2) Final Total Internal Energy     =   -1.14 kcal/mol
DOCKED: USER    (3) Torsional Free Energy           =   +2.68 kcal/mol
DOCKED: USER    (4) Unbound System's Energy  [=(2)] =   -1.14 kcal/mol
DOCKED: USER    
DOCKED: USER    
DOCKED: USER    NEWDPF move ligand.dum.pdbqt
DOCKED: USER    NEWDPF about -0.029000 -0.207000 0.469000
DOCKED: USER    NEWDPF tran0 39.758916 12.198516 123.774153
DOCKED: USER    NEWDPF quaternion0 -0.459283 0.027835 -0.754883 0.467372
DOCKED: USER    NEWDPF axisangle0 -0.519515 0.031486 -0.853881 124.272348
DOCKED: USER    NEWDPF quat0 -0.519515 0.031486 -0.853881 124.272348
DOCKED: USER    NEWDPF dihe0 80.31 167.85 62.55 -56.40 -180.00 -47.03 107.13 62.40 -164.59 
DOCKED: USER  keepresnum = 1 
DOCKED: USER  
DOCKED: REMARK  Name = 
DOCKED: REMARK  9 active torsions:
DOCKED: REMARK  status: ('A' for Active; 'I' for Inactive)
DOCKED: REMARK    1  A    between atoms: C_2  and  C_5
DOCKED: REMARK    2  A    between atoms: N_3  and  O_4
DOCKED: REMARK    3  A    between atoms: C_5  and  C_6
DOCKED: REMARK    4  A    between atoms: C_6  and  C_7
DOCKED: REMARK    5  A    between atoms: C_7  and  C_8
DOCKED: REMARK    6  A    between atoms: C_8  and  C_9
DOCKED: REMARK    7  A    between atoms: C_9  and  C_10
DOCKED: REMARK    8  A    between atoms: C_10  and  C_11
DOCKED: REMARK    9  A    between atoms: N_12  and  C_13
DOCKED: REMARK                            x       y       z     vdW  Elec       q    Type
DOCKED: REMARK                         _______ _______ _______ _____ _____    ______ ____
DOCKED: USER                              x       y       z     vdW  Elec       q    Type
DOCKED: USER                           _______ _______ _______ _____ _____    ______ ____
DOCKED: ROOT
DOCKED: ATOM      1  C   UNL     1      38.073  14.000 121.724 -0.44 -0.00    +0.000 C 
DOCKED: ENDROOT
DOCKED: BRANCH   1   2
DOCKED: ATOM      2  C   UNL     1      37.652  13.427 123.086 -0.55 -0.00    +0.000 C 
DOCKED: BRANCH   2   3
DOCKED: ATOM      3  C   UNL     1      36.186  12.972 123.063 -0.58 -0.00    +0.000 C 
DOCKED: BRANCH   3   4
DOCKED: ATOM      4  C   UNL     1      36.005  11.521 123.545 -0.69 -0.00    +0.000 C 
DOCKED: BRANCH   4   5
DOCKED: ATOM      5  C   UNL     1      35.521  10.547 122.458 -0.64 -0.00    +0.000 C 
DOCKED: BRANCH   5   7
DOCKED: ATOM      6  O   UNL     1      37.060   9.213 121.206 -2.74 -0.00    +0.000 OA
DOCKED: ATOM      7  C   UNL     1      36.447   9.376 122.296 -0.71 -0.00    +0.000 C 
DOCKED: ATOM      8  N   UNL     1      36.615   8.431 123.356 -0.67 -0.00    +0.000 N 
DOCKED: ATOM      9  H   UNL     1      36.130   8.558 124.204 -0.24 -0.00    +0.000 HD
DOCKED: BRANCH   8  10
DOCKED: ATOM     10  O   UNL     1      37.434   7.365 123.205 -1.96 -0.00    +0.000 OA
DOCKED: ATOM     11  H   UNL     1      38.353   7.640 123.347 -0.52 -0.00    +0.000 HD
DOCKED: ENDBRANCH   8  10
DOCKED: ENDBRANCH   5   7
DOCKED: ENDBRANCH   4   5
DOCKED: ENDBRANCH   3   4
DOCKED: ENDBRANCH   2   3
DOCKED: ENDBRANCH   1   2
DOCKED: BRANCH   1  12
DOCKED: ATOM     12  C   UNL     1      38.261  12.904 120.666 -0.40 -0.00    +0.000 C 
DOCKED: BRANCH  12  13
DOCKED: ATOM     13  C   UNL     1      37.442  13.179 119.440 -0.45 -0.00    +0.000 C 
DOCKED: ATOM     14  N   UNL     1      37.820  12.609 118.178 -0.31 -0.00    +0.000 N 
DOCKED: ATOM     15  O   UNL     1      36.426  13.922 119.530 -0.27 -0.00    +0.000 OA
DOCKED: ATOM     16  H   UNL     1      38.407  11.819 118.185 -0.13 -0.00    +0.000 HD
DOCKED: BRANCH  14  17
DOCKED: ATOM     17  C   UNL     1      37.395  13.120 116.902 -0.32 -0.00    +0.000 A 
DOCKED: ATOM     18  C   UNL     1      38.227  12.968 115.784 -0.46 -0.00    +0.000 A 
DOCKED: ATOM     19  C   UNL     1      37.842  13.487 114.546 -0.37 -0.00    +0.000 A 
DOCKED: ATOM     20  C   UNL     1      36.632  14.173 114.441 -0.26 -0.00    +0.000 A 
DOCKED: ATOM     21  N   UNL     1      35.845  14.339 115.536 -0.25 -0.00    +0.000 NA
DOCKED: ATOM     22  C   UNL     1      36.194  13.837 116.751 -0.32 -0.00    +0.000 A 
DOCKED: ATOM     23  CM  UNL     1      36.991  13.672 115.657 +0.00 -0.00    +0.000 AC
DOCKED: ENDBRANCH  14  17
DOCKED: ENDBRANCH  12  13
DOCKED: ENDBRANCH   1  12
DOCKED: TORSDOF 9DOCKED: TER
DOCKED: ENDMDL
________________________________________________________________________________


	BEGINNING GENETIC ALGORITHM DOCKING 85 of 100
Run: 85 Seed: 437649844 853605503 [ Run 85 of 100 GA/GALS ]
Beginning LAMARCKIAN GENETIC ALGORITHM (LGA), with a maximum of 2500000 energy evaluations.

Final-Value: -14.462


	FINAL GENETIC ALGORITHM DOCKED STATE
	_______________________________________________


Detailed state:  trans 37.899 16.051 125.317 quatxyzw 0.400595 -0.132875 0.476249 0.771398 center -0.029 -0.207 0.469 ntor 9 -2.1047 149.8964 61.4430 175.3538 51.8093 147.8940 41.4686 -157.9601 -26.4797
State:	 37.899  16.051 125.317   0.630 -0.209  0.748 79.041     -2.10  149.90   61.44  175.35   51.81  147.89   41.47 -157.96  -26.48

DOCKED: MODEL       85
DOCKED: USER    Run = 85
DOCKED: USER    DPF = ligand_dock.biased.dpf
DOCKED: USER  
DOCKED: USER    Estimated Free Energy of Binding    =  -10.51 kcal/mol  [=(1)+(2)+(3)-(4)]
DOCKED: USER    Estimated Inhibition Constant, Ki   =   19.83 nM (nanomolar)  [Temperature = 298.15 K]
DOCKED: USER    
DOCKED: USER    (1) Final Intermolecular Energy     =  -13.19 kcal/mol
DOCKED: USER        vdW + Hbond + desolv Energy     =  -13.19 kcal/mol
DOCKED: USER        Electrostatic Energy            =   +0.00 kcal/mol
DOCKED: USER    (2) Final Total Internal Energy     =   -1.27 kcal/mol
DOCKED: USER    (3) Torsional Free Energy           =   +2.68 kcal/mol
DOCKED: USER    (4) Unbound System's Energy  [=(2)] =   -1.27 kcal/mol
DOCKED: USER    
DOCKED: USER    
DOCKED: USER    NEWDPF move ligand.dum.pdbqt
DOCKED: USER    NEWDPF about -0.029000 -0.207000 0.469000
DOCKED: USER    NEWDPF tran0 37.899435 16.050736 125.317214
DOCKED: USER    NEWDPF quaternion0 0.400595 -0.132875 0.476249 0.771398
DOCKED: USER    NEWDPF axisangle0 0.629517 -0.208807 0.748404 79.040737
DOCKED: USER    NEWDPF quat0 0.629517 -0.208807 0.748404 79.040737
DOCKED: USER    NEWDPF dihe0 -2.10 149.90 61.44 175.35 51.81 147.89 41.47 -157.96 -26.48 
DOCKED: USER  keepresnum = 1 
DOCKED: USER  
DOCKED: REMARK  Name = 
DOCKED: REMARK  9 active torsions:
DOCKED: REMARK  status: ('A' for Active; 'I' for Inactive)
DOCKED: REMARK    1  A    between atoms: C_2  and  C_5
DOCKED: REMARK    2  A    between atoms: N_3  and  O_4
DOCKED: REMARK    3  A    between atoms: C_5  and  C_6
DOCKED: REMARK    4  A    between atoms: C_6  and  C_7
DOCKED: REMARK    5  A    between atoms: C_7  and  C_8
DOCKED: REMARK    6  A    between atoms: C_8  and  C_9
DOCKED: REMARK    7  A    between atoms: C_9  and  C_10
DOCKED: REMARK    8  A    between atoms: C_10  and  C_11
DOCKED: REMARK    9  A    between atoms: N_12  and  C_13
DOCKED: REMARK                            x       y       z     vdW  Elec       q    Type
DOCKED: REMARK                         _______ _______ _______ _____ _____    ______ ____
DOCKED: USER                              x       y       z     vdW  Elec       q    Type
DOCKED: USER                           _______ _______ _______ _____ _____    ______ ____
DOCKED: ROOT
DOCKED: ATOM      1  C   UNL     1      35.682  14.381 123.710 -0.55 -0.00    +0.000 C 
DOCKED: ENDROOT
DOCKED: BRANCH   1   2
DOCKED: ATOM      2  C   UNL     1      37.195  14.475 123.462 -0.45 -0.00    +0.000 C 
DOCKED: BRANCH   2   3
DOCKED: ATOM      3  C   UNL     1      37.725  13.198 122.794 -0.52 -0.00    +0.000 C 
DOCKED: BRANCH   3   4
DOCKED: ATOM      4  C   UNL     1      37.045  11.922 123.324 -0.67 -0.00    +0.000 C 
DOCKED: BRANCH   4   5
DOCKED: ATOM      5  C   UNL     1      36.266  11.130 122.261 -0.65 -0.00    +0.000 C 
DOCKED: BRANCH   5   7
DOCKED: ATOM      6  O   UNL     1      36.953   9.213 121.008 -2.70 -0.00    +0.000 OA
DOCKED: ATOM      7  C   UNL     1      36.748   9.711 122.148 -0.67 -0.00    +0.000 C 
DOCKED: ATOM      8  N   UNL     1      36.946   8.917 123.320 -0.62 -0.00    +0.000 N 
DOCKED: ATOM      9  H   UNL     1      36.778   9.307 124.208 -0.50 -0.00    +0.000 HD
DOCKED: BRANCH   8  10
DOCKED: ATOM     10  O   UNL     1      37.361   7.633 123.219 -2.15 -0.00    +0.000 OA
DOCKED: ATOM     11  H   UNL     1      37.447   7.393 122.284 -0.14 -0.00    +0.000 HD
DOCKED: ENDBRANCH   8  10
DOCKED: ENDBRANCH   5   7
DOCKED: ENDBRANCH   4   5
DOCKED: ENDBRANCH   3   4
DOCKED: ENDBRANCH   2   3
DOCKED: ENDBRANCH   1   2
DOCKED: BRANCH   1  12
DOCKED: ATOM     12  C   UNL     1      34.960  15.701 123.409 -0.47 -0.00    +0.000 C 
DOCKED: BRANCH  12  13
DOCKED: ATOM     13  C   UNL     1      34.765  16.515 124.654 -0.49 -0.00    +0.000 C 
DOCKED: ATOM     14  N   UNL     1      33.937  16.018 125.718 -0.50 -0.00    +0.000 N 
DOCKED: ATOM     15  O   UNL     1      35.326  17.640 124.752 -0.33 -0.00    +0.000 OA
DOCKED: ATOM     16  H   UNL     1      33.766  15.049 125.755 -0.06 -0.00    +0.000 HD
DOCKED: BRANCH  14  17
DOCKED: ATOM     17  C   UNL     1      33.341  16.846 126.731 -0.36 -0.00    +0.000 A 
DOCKED: ATOM     18  C   UNL     1      33.158  18.214 126.488 -0.26 -0.00    +0.000 A 
DOCKED: ATOM     19  C   UNL     1      32.611  19.036 127.476 -0.20 -0.00    +0.000 A 
DOCKED: ATOM     20  C   UNL     1      32.266  18.483 128.710 -0.18 -0.00    +0.000 A 
DOCKED: ATOM     21  N   UNL     1      32.472  17.160 128.944 -0.32 -0.00    +0.000 NA
DOCKED: ATOM     22  C   UNL     1      32.997  16.338 127.998 -0.39 -0.00    +0.000 A 
DOCKED: ATOM     23  CM  UNL     1      32.799  17.665 127.757 +0.00 -0.00    +0.000 AC
DOCKED: ENDBRANCH  14  17
DOCKED: ENDBRANCH  12  13
DOCKED: ENDBRANCH   1  12
DOCKED: TORSDOF 9DOCKED: TER
DOCKED: ENDMDL
________________________________________________________________________________


	BEGINNING GENETIC ALGORITHM DOCKING 86 of 100
Run: 86 Seed: 368685235 515427271 [ Run 86 of 100 GA/GALS ]
Beginning LAMARCKIAN GENETIC ALGORITHM (LGA), with a maximum of 2500000 energy evaluations.

Final-Value: -13.857


	FINAL GENETIC ALGORITHM DOCKED STATE
	_______________________________________________


Detailed state:  trans 38.137 14.759 122.746 quatxyzw 0.423296 0.610996 0.668951 0.002899 center -0.029 -0.207 0.469 ntor 9 6.8601 128.0728 -123.9341 15.6130 150.0521 144.1842 -22.0698 -102.9152 -166.6113
State:	 38.137  14.759 122.746   0.423  0.611  0.669 179.668      6.86  128.07 -123.93   15.61  150.05  144.18  -22.07 -102.92 -166.61

DOCKED: MODEL       86
DOCKED: USER    Run = 86
DOCKED: USER    DPF = ligand_dock.biased.dpf
DOCKED: USER  
DOCKED: USER    Estimated Free Energy of Binding    =  -10.12 kcal/mol  [=(1)+(2)+(3)-(4)]
DOCKED: USER    Estimated Inhibition Constant, Ki   =   38.31 nM (nanomolar)  [Temperature = 298.15 K]
DOCKED: USER    
DOCKED: USER    (1) Final Intermolecular Energy     =  -12.80 kcal/mol
DOCKED: USER        vdW + Hbond + desolv Energy     =  -12.80 kcal/mol
DOCKED: USER        Electrostatic Energy            =   +0.00 kcal/mol
DOCKED: USER    (2) Final Total Internal Energy     =   -1.05 kcal/mol
DOCKED: USER    (3) Torsional Free Energy           =   +2.68 kcal/mol
DOCKED: USER    (4) Unbound System's Energy  [=(2)] =   -1.05 kcal/mol
DOCKED: USER    
DOCKED: USER    
DOCKED: USER    NEWDPF move ligand.dum.pdbqt
DOCKED: USER    NEWDPF about -0.029000 -0.207000 0.469000
DOCKED: USER    NEWDPF tran0 38.137086 14.758905 122.745723
DOCKED: USER    NEWDPF quaternion0 0.423296 0.610996 0.668951 0.002899
DOCKED: USER    NEWDPF axisangle0 0.423298 0.610998 0.668954 179.667798
DOCKED: USER    NEWDPF quat0 0.423298 0.610998 0.668954 179.667798
DOCKED: USER    NEWDPF dihe0 6.86 128.07 -123.93 15.61 150.05 144.18 -22.07 -102.92 -166.61 
DOCKED: USER  keepresnum = 1 
DOCKED: USER  
DOCKED: REMARK  Name = 
DOCKED: REMARK  9 active torsions:
DOCKED: REMARK  status: ('A' for Active; 'I' for Inactive)
DOCKED: REMARK    1  A    between atoms: C_2  and  C_5
DOCKED: REMARK    2  A    between atoms: N_3  and  O_4
DOCKED: REMARK    3  A    between atoms: C_5  and  C_6
DOCKED: REMARK    4  A    between atoms: C_6  and  C_7
DOCKED: REMARK    5  A    between atoms: C_7  and  C_8
DOCKED: REMARK    6  A    between atoms: C_8  and  C_9
DOCKED: REMARK    7  A    between atoms: C_9  and  C_10
DOCKED: REMARK    8  A    between atoms: C_10  and  C_11
DOCKED: REMARK    9  A    between atoms: N_12  and  C_13
DOCKED: REMARK                            x       y       z     vdW  Elec       q    Type
DOCKED: REMARK                         _______ _______ _______ _____ _____    ______ ____
DOCKED: USER                              x       y       z     vdW  Elec       q    Type
DOCKED: USER                           _______ _______ _______ _____ _____    ______ ____
DOCKED: ROOT
DOCKED: ATOM      1  C   UNL     1      36.070  12.310 122.603 -0.50 -0.00    +0.000 C 
DOCKED: ENDROOT
DOCKED: BRANCH   1   2
DOCKED: ATOM      2  C   UNL     1      36.692  12.985 123.835 -0.56 -0.00    +0.000 C 
DOCKED: BRANCH   2   3
DOCKED: ATOM      3  C   UNL     1      35.837  14.172 124.303 -0.37 -0.00    +0.000 C 
DOCKED: BRANCH   3   4
DOCKED: ATOM      4  C   UNL     1      35.306  15.022 123.134 -0.22 -0.00    +0.000 C 
DOCKED: BRANCH   4   5
DOCKED: ATOM      5  C   UNL     1      35.248  16.531 123.422 -0.42 -0.00    +0.000 C 
DOCKED: BRANCH   5   7
DOCKED: ATOM      6  O   UNL     1      33.798  18.006 124.622 -0.44 -0.00    +0.000 OA
DOCKED: ATOM      7  C   UNL     1      34.311  16.856 124.550 -0.48 -0.00    +0.000 C 
DOCKED: ATOM      8  N   UNL     1      34.022  15.882 125.556 -0.52 -0.00    +0.000 N 
DOCKED: ATOM      9  H   UNL     1      34.429  14.987 125.500 -0.05 -0.00    +0.000 HD
DOCKED: BRANCH   8  10
DOCKED: ATOM     10  O   UNL     1      33.193  16.179 126.584 -1.07 -0.00    +0.000 OA
DOCKED: ATOM     11  H   UNL     1      32.795  17.051 126.437 -0.12 -0.00    +0.000 HD
DOCKED: ENDBRANCH   8  10
DOCKED: ENDBRANCH   5   7
DOCKED: ENDBRANCH   4   5
DOCKED: ENDBRANCH   3   4
DOCKED: ENDBRANCH   2   3
DOCKED: ENDBRANCH   1   2
DOCKED: BRANCH   1  12
DOCKED: ATOM     12  C   UNL     1      37.107  11.532 121.782 -0.53 -0.00    +0.000 C 
DOCKED: BRANCH  12  13
DOCKED: ATOM     13  C   UNL     1      36.708  10.096 121.614 -0.40 -0.00    +0.000 C 
DOCKED: ATOM     14  N   UNL     1      35.590   9.569 122.345 -0.59 -0.00    +0.000 N 
DOCKED: ATOM     15  O   UNL     1      37.369   9.357 120.835 -2.43 -0.00    +0.000 OA
DOCKED: ATOM     16  H   UNL     1      34.926  10.206 122.696 -0.12 -0.00    +0.000 HD
DOCKED: BRANCH  14  17
DOCKED: ATOM     17  C   UNL     1      35.379   8.169 122.600 -0.62 -0.00    +0.000 A 
DOCKED: ATOM     18  C   UNL     1      34.091   7.629 122.477 -0.63 -0.00    +0.000 A 
DOCKED: ATOM     19  C   UNL     1      33.867   6.279 122.752 -0.68 -0.00    +0.000 A 
DOCKED: ATOM     20  C   UNL     1      34.933   5.481 123.167 -0.49 -0.00    +0.000 A 
DOCKED: ATOM     21  N   UNL     1      36.172   6.020 123.309 -0.87 -0.00    +0.000 NA
DOCKED: ATOM     22  C   UNL     1      36.418   7.330 123.041 -0.70 -0.00    +0.000 A 
DOCKED: ATOM     23  CM  UNL     1      35.171   6.797 122.902 +0.00 -0.00    +0.000 AC
DOCKED: ENDBRANCH  14  17
DOCKED: ENDBRANCH  12  13
DOCKED: ENDBRANCH   1  12
DOCKED: TORSDOF 9DOCKED: TER
DOCKED: ENDMDL
________________________________________________________________________________


	BEGINNING GENETIC ALGORITHM DOCKING 87 of 100
Run: 87 Seed: 1971091990 59512044 [ Run 87 of 100 GA/GALS ]
Beginning LAMARCKIAN GENETIC ALGORITHM (LGA), with a maximum of 2500000 energy evaluations.

Final-Value: -14.067


	FINAL GENETIC ALGORITHM DOCKED STATE
	_______________________________________________


Detailed state:  trans 36.074 13.340 122.464 quatxyzw 0.324211 0.245815 -0.876442 -0.257512 center -0.029 -0.207 0.469 ntor 9 33.7089 -145.2081 137.8770 -173.0402 -161.9158 9.1706 -159.9121 -74.5383 -30.7308
State:	 36.074  13.340 122.464   0.336  0.254 -0.907 -150.155     33.71 -145.21  137.88 -173.04 -161.92    9.17 -159.91  -74.54  -30.73

DOCKED: MODEL       87
DOCKED: USER    Run = 87
DOCKED: USER    DPF = ligand_dock.biased.dpf
DOCKED: USER  
DOCKED: USER    Estimated Free Energy of Binding    =  -10.09 kcal/mol  [=(1)+(2)+(3)-(4)]
DOCKED: USER    Estimated Inhibition Constant, Ki   =   40.50 nM (nanomolar)  [Temperature = 298.15 K]
DOCKED: USER    
DOCKED: USER    (1) Final Intermolecular Energy     =  -12.77 kcal/mol
DOCKED: USER        vdW + Hbond + desolv Energy     =  -12.77 kcal/mol
DOCKED: USER        Electrostatic Energy            =   +0.00 kcal/mol
DOCKED: USER    (2) Final Total Internal Energy     =   -1.30 kcal/mol
DOCKED: USER    (3) Torsional Free Energy           =   +2.68 kcal/mol
DOCKED: USER    (4) Unbound System's Energy  [=(2)] =   -1.30 kcal/mol
DOCKED: USER    
DOCKED: USER    
DOCKED: USER    NEWDPF move ligand.dum.pdbqt
DOCKED: USER    NEWDPF about -0.029000 -0.207000 0.469000
DOCKED: USER    NEWDPF tran0 36.074178 13.340230 122.464459
DOCKED: USER    NEWDPF quaternion0 0.324211 0.245815 -0.876442 -0.257512
DOCKED: USER    NEWDPF axisangle0 0.335527 0.254395 -0.907031 -150.155054
DOCKED: USER    NEWDPF quat0 0.335527 0.254395 -0.907031 -150.155054
DOCKED: USER    NEWDPF dihe0 33.71 -145.21 137.88 -173.04 -161.92 9.17 -159.91 -74.54 -30.73 
DOCKED: USER  keepresnum = 1 
DOCKED: USER  
DOCKED: REMARK  Name = 
DOCKED: REMARK  9 active torsions:
DOCKED: REMARK  status: ('A' for Active; 'I' for Inactive)
DOCKED: REMARK    1  A    between atoms: C_2  and  C_5
DOCKED: REMARK    2  A    between atoms: N_3  and  O_4
DOCKED: REMARK    3  A    between atoms: C_5  and  C_6
DOCKED: REMARK    4  A    between atoms: C_6  and  C_7
DOCKED: REMARK    5  A    between atoms: C_7  and  C_8
DOCKED: REMARK    6  A    between atoms: C_8  and  C_9
DOCKED: REMARK    7  A    between atoms: C_9  and  C_10
DOCKED: REMARK    8  A    between atoms: C_10  and  C_11
DOCKED: REMARK    9  A    between atoms: N_12  and  C_13
DOCKED: REMARK                            x       y       z     vdW  Elec       q    Type
DOCKED: REMARK                         _______ _______ _______ _____ _____    ______ ____
DOCKED: USER                              x       y       z     vdW  Elec       q    Type
DOCKED: USER                           _______ _______ _______ _____ _____    ______ ____
DOCKED: ROOT
DOCKED: ATOM      1  C   UNL     1      37.126  15.658 120.513 -0.22 -0.00    +0.000 C 
DOCKED: ENDROOT
DOCKED: BRANCH   1   2
DOCKED: ATOM      2  C   UNL     1      37.064  14.142 120.274 -0.31 -0.00    +0.000 C 
DOCKED: BRANCH   2   3
DOCKED: ATOM      3  C   UNL     1      37.676  13.372 121.452 -0.47 -0.00    +0.000 C 
DOCKED: BRANCH   3   4
DOCKED: ATOM      4  C   UNL     1      37.713  11.851 121.216 -0.19 -0.00    +0.000 C 
DOCKED: BRANCH   4   5
DOCKED: ATOM      5  C   UNL     1      36.524  11.086 121.820 -0.56 -0.00    +0.000 C 
DOCKED: BRANCH   5   7
DOCKED: ATOM      6  O   UNL     1      36.931   8.893 120.959 -2.68 -0.00    +0.000 OA
DOCKED: ATOM      7  C   UNL     1      36.817   9.621 121.981 -0.66 -0.00    +0.000 C 
DOCKED: ATOM      8  N   UNL     1      36.938   9.045 123.285 -0.62 -0.00    +0.000 N 
DOCKED: ATOM      9  H   UNL     1      36.842   9.616 124.081 -0.50 -0.00    +0.000 HD
DOCKED: BRANCH   8  10
DOCKED: ATOM     10  O   UNL     1      37.183   7.723 123.433 -2.26 -0.00    +0.000 OA
DOCKED: ATOM     11  H   UNL     1      37.746   7.415 122.706 -0.33 -0.00    +0.000 HD
DOCKED: ENDBRANCH   8  10
DOCKED: ENDBRANCH   5   7
DOCKED: ENDBRANCH   4   5
DOCKED: ENDBRANCH   3   4
DOCKED: ENDBRANCH   2   3
DOCKED: ENDBRANCH   1   2
DOCKED: BRANCH   1  12
DOCKED: ATOM     12  C   UNL     1      38.161  16.036 121.582 -0.22 -0.00    +0.000 C 
DOCKED: BRANCH  12  13
DOCKED: ATOM     13  C   UNL     1      37.509  16.298 122.907 -0.29 -0.00    +0.000 C 
DOCKED: ATOM     14  N   UNL     1      36.192  15.793 123.174 -0.36 -0.00    +0.000 N 
DOCKED: ATOM     15  O   UNL     1      38.125  16.973 123.776 -0.29 -0.00    +0.000 OA
DOCKED: ATOM     16  H   UNL     1      35.866  15.041 122.628 -0.01 -0.00    +0.000 HD
DOCKED: BRANCH  14  17
DOCKED: ATOM     17  C   UNL     1      35.317  16.316 124.189 -0.41 -0.00    +0.000 A 
DOCKED: ATOM     18  C   UNL     1      35.348  17.684 124.492 -0.30 -0.00    +0.000 A 
DOCKED: ATOM     19  C   UNL     1      34.528  18.200 125.497 -0.30 -0.00    +0.000 A 
DOCKED: ATOM     20  C   UNL     1      33.692  17.336 126.206 -0.36 -0.00    +0.000 A 
DOCKED: ATOM     21  N   UNL     1      33.689  16.007 125.923 -0.80 -0.00    +0.000 NA
DOCKED: ATOM     22  C   UNL     1      34.473  15.481 124.945 -0.42 -0.00    +0.000 A 
DOCKED: ATOM     23  CM  UNL     1      34.486  16.815 125.228 -0.23 -0.00    +0.000 AC
DOCKED: ENDBRANCH  14  17
DOCKED: ENDBRANCH  12  13
DOCKED: ENDBRANCH   1  12
DOCKED: TORSDOF 9DOCKED: TER
DOCKED: ENDMDL
________________________________________________________________________________


	BEGINNING GENETIC ALGORITHM DOCKING 88 of 100
Run: 88 Seed: 1073242336 1562673908 [ Run 88 of 100 GA/GALS ]
Beginning LAMARCKIAN GENETIC ALGORITHM (LGA), with a maximum of 2500000 energy evaluations.

Final-Value: -13.656


	FINAL GENETIC ALGORITHM DOCKED STATE
	_______________________________________________


Detailed state:  trans 36.300 16.145 121.111 quatxyzw 0.964767 -0.158526 -0.000642 0.209983 center -0.029 -0.207 0.469 ntor 9 180.0000 120.5678 162.5028 10.2177 179.1392 53.4728 106.6771 20.5114 -14.9938
State:	 36.300  16.145 121.111   0.987 -0.162 -0.001 155.757    180.00  120.57  162.50   10.22  179.14   53.47  106.68   20.51  -14.99

DOCKED: MODEL       88
DOCKED: USER    Run = 88
DOCKED: USER    DPF = ligand_dock.biased.dpf
DOCKED: USER  
DOCKED: USER    Estimated Free Energy of Binding    =  -10.14 kcal/mol  [=(1)+(2)+(3)-(4)]
DOCKED: USER    Estimated Inhibition Constant, Ki   =   37.22 nM (nanomolar)  [Temperature = 298.15 K]
DOCKED: USER    
DOCKED: USER    (1) Final Intermolecular Energy     =  -12.82 kcal/mol
DOCKED: USER        vdW + Hbond + desolv Energy     =  -12.82 kcal/mol
DOCKED: USER        Electrostatic Energy            =   +0.00 kcal/mol
DOCKED: USER    (2) Final Total Internal Energy     =   -0.84 kcal/mol
DOCKED: USER    (3) Torsional Free Energy           =   +2.68 kcal/mol
DOCKED: USER    (4) Unbound System's Energy  [=(2)] =   -0.84 kcal/mol
DOCKED: USER    
DOCKED: USER    
DOCKED: USER    NEWDPF move ligand.dum.pdbqt
DOCKED: USER    NEWDPF about -0.029000 -0.207000 0.469000
DOCKED: USER    NEWDPF tran0 36.299996 16.144854 121.110608
DOCKED: USER    NEWDPF quaternion0 0.964767 -0.158526 -0.000642 0.209983
DOCKED: USER    NEWDPF axisangle0 0.986767 -0.162141 -0.000656 155.757302
DOCKED: USER    NEWDPF quat0 0.986767 -0.162141 -0.000656 155.757302
DOCKED: USER    NEWDPF dihe0 180.00 120.57 162.50 10.22 179.14 53.47 106.68 20.51 -14.99 
DOCKED: USER  keepresnum = 1 
DOCKED: USER  
DOCKED: REMARK  Name = 
DOCKED: REMARK  9 active torsions:
DOCKED: REMARK  status: ('A' for Active; 'I' for Inactive)
DOCKED: REMARK    1  A    between atoms: C_2  and  C_5
DOCKED: REMARK    2  A    between atoms: N_3  and  O_4
DOCKED: REMARK    3  A    between atoms: C_5  and  C_6
DOCKED: REMARK    4  A    between atoms: C_6  and  C_7
DOCKED: REMARK    5  A    between atoms: C_7  and  C_8
DOCKED: REMARK    6  A    between atoms: C_8  and  C_9
DOCKED: REMARK    7  A    between atoms: C_9  and  C_10
DOCKED: REMARK    8  A    between atoms: C_10  and  C_11
DOCKED: REMARK    9  A    between atoms: N_12  and  C_13
DOCKED: REMARK                            x       y       z     vdW  Elec       q    Type
DOCKED: REMARK                         _______ _______ _______ _____ _____    ______ ____
DOCKED: USER                              x       y       z     vdW  Elec       q    Type
DOCKED: USER                           _______ _______ _______ _____ _____    ______ ____
DOCKED: ROOT
DOCKED: ATOM      1  C   UNL     1      36.258  15.363 124.221 -0.30 -0.00    +0.000 C 
DOCKED: ENDROOT
DOCKED: BRANCH   1   2
DOCKED: ATOM      2  C   UNL     1      36.572  14.481 123.003 -0.47 -0.00    +0.000 C 
DOCKED: BRANCH   2   3
DOCKED: ATOM      3  C   UNL     1      36.014  13.063 123.190 -0.56 -0.00    +0.000 C 
DOCKED: BRANCH   3   4
DOCKED: ATOM      4  C   UNL     1      37.045  11.968 122.856 -0.64 -0.00    +0.000 C 
DOCKED: BRANCH   4   5
DOCKED: ATOM      5  C   UNL     1      36.679  11.103 121.639 -0.55 -0.00    +0.000 C 
DOCKED: BRANCH   5   7
DOCKED: ATOM      6  O   UNL     1      36.974   8.842 120.918 -2.69 -0.00    +0.000 OA
DOCKED: ATOM      7  C   UNL     1      36.920   9.642 121.892 -0.61 -0.00    +0.000 C 
DOCKED: ATOM      8  N   UNL     1      37.057   9.150 123.227 -0.63 -0.00    +0.000 N 
DOCKED: ATOM      9  H   UNL     1      37.008   9.776 123.986 -0.48 -0.00    +0.000 HD
DOCKED: BRANCH   8  10
DOCKED: ATOM     10  O   UNL     1      37.255   7.831 123.459 -2.21 -0.00    +0.000 OA
DOCKED: ATOM     11  H   UNL     1      37.326   7.677 124.414 -0.47 -0.00    +0.000 HD
DOCKED: ENDBRANCH   8  10
DOCKED: ENDBRANCH   5   7
DOCKED: ENDBRANCH   4   5
DOCKED: ENDBRANCH   3   4
DOCKED: ENDBRANCH   2   3
DOCKED: ENDBRANCH   1   2
DOCKED: BRANCH   1  12
DOCKED: ATOM     12  C   UNL     1      34.783  15.786 124.268 -0.56 -0.00    +0.000 C 
DOCKED: BRANCH  12  13
DOCKED: ATOM     13  C   UNL     1      34.536  17.004 123.430 -0.45 -0.00    +0.000 C 
DOCKED: ATOM     14  N   UNL     1      33.699  16.920 122.266 -0.25 -0.00    +0.000 N 
DOCKED: ATOM     15  O   UNL     1      35.077  18.097 123.752 -0.32 -0.00    +0.000 OA
DOCKED: ATOM     16  H   UNL     1      33.064  16.170 122.207 +0.00 -0.00    +0.000 HD
DOCKED: BRANCH  14  17
DOCKED: ATOM     17  C   UNL     1      33.729  17.863 121.180 -0.29 -0.00    +0.000 A 
DOCKED: ATOM     18  C   UNL     1      32.535  18.214 120.535 -0.39 -0.00    +0.000 A 
DOCKED: ATOM     19  C   UNL     1      32.554  19.103 119.458 -0.33 -0.00    +0.000 A 
DOCKED: ATOM     20  C   UNL     1      33.774  19.621 119.022 -0.19 -0.00    +0.000 A 
DOCKED: ATOM     21  N   UNL     1      34.928  19.254 119.638 -0.19 -0.00    +0.000 NA
DOCKED: ATOM     22  C   UNL     1      34.936  18.395 120.692 -0.25 -0.00    +0.000 A 
DOCKED: ATOM     23  CM  UNL     1      33.775  18.755 120.075 +0.00 -0.00    +0.000 AC
DOCKED: ENDBRANCH  14  17
DOCKED: ENDBRANCH  12  13
DOCKED: ENDBRANCH   1  12
DOCKED: TORSDOF 9DOCKED: TER
DOCKED: ENDMDL
________________________________________________________________________________


	BEGINNING GENETIC ALGORITHM DOCKING 89 of 100
Run: 89 Seed: 161848220 1238568917 [ Run 89 of 100 GA/GALS ]
Beginning LAMARCKIAN GENETIC ALGORITHM (LGA), with a maximum of 2500000 energy evaluations.

Final-Value: -13.426


	FINAL GENETIC ALGORITHM DOCKED STATE
	_______________________________________________


Detailed state:  trans 36.002 15.796 123.653 quatxyzw -0.537918 -0.195310 0.106090 -0.813169 center -0.029 -0.207 0.469 ntor 9 -13.3802 141.0477 -151.7903 1.9731 148.7960 -68.3880 -9.7285 27.5318 -156.7525
State:	 36.002  15.796 123.653  -0.924 -0.336  0.182 -71.187    -13.38  141.05 -151.79    1.97  148.80  -68.39   -9.73   27.53 -156.75

DOCKED: MODEL       89
DOCKED: USER    Run = 89
DOCKED: USER    DPF = ligand_dock.biased.dpf
DOCKED: USER  
DOCKED: USER    Estimated Free Energy of Binding    =   -9.53 kcal/mol  [=(1)+(2)+(3)-(4)]
DOCKED: USER    Estimated Inhibition Constant, Ki   =  104.14 nM (nanomolar)  [Temperature = 298.15 K]
DOCKED: USER    
DOCKED: USER    (1) Final Intermolecular Energy     =  -12.21 kcal/mol
DOCKED: USER        vdW + Hbond + desolv Energy     =  -12.21 kcal/mol
DOCKED: USER        Electrostatic Energy            =   +0.00 kcal/mol
DOCKED: USER    (2) Final Total Internal Energy     =   -1.22 kcal/mol
DOCKED: USER    (3) Torsional Free Energy           =   +2.68 kcal/mol
DOCKED: USER    (4) Unbound System's Energy  [=(2)] =   -1.22 kcal/mol
DOCKED: USER    
DOCKED: USER    
DOCKED: USER    NEWDPF move ligand.dum.pdbqt
DOCKED: USER    NEWDPF about -0.029000 -0.207000 0.469000
DOCKED: USER    NEWDPF tran0 36.002258 15.796097 123.653478
DOCKED: USER    NEWDPF quaternion0 -0.537918 -0.195310 0.106090 -0.813169
DOCKED: USER    NEWDPF axisangle0 -0.924213 -0.335568 0.182277 -71.186570
DOCKED: USER    NEWDPF quat0 -0.924213 -0.335568 0.182277 -71.186570
DOCKED: USER    NEWDPF dihe0 -13.38 141.05 -151.79 1.97 148.80 -68.39 -9.73 27.53 -156.75 
DOCKED: USER  keepresnum = 1 
DOCKED: USER  
DOCKED: REMARK  Name = 
DOCKED: REMARK  9 active torsions:
DOCKED: REMARK  status: ('A' for Active; 'I' for Inactive)
DOCKED: REMARK    1  A    between atoms: C_2  and  C_5
DOCKED: REMARK    2  A    between atoms: N_3  and  O_4
DOCKED: REMARK    3  A    between atoms: C_5  and  C_6
DOCKED: REMARK    4  A    between atoms: C_6  and  C_7
DOCKED: REMARK    5  A    between atoms: C_7  and  C_8
DOCKED: REMARK    6  A    between atoms: C_8  and  C_9
DOCKED: REMARK    7  A    between atoms: C_9  and  C_10
DOCKED: REMARK    8  A    between atoms: C_10  and  C_11
DOCKED: REMARK    9  A    between atoms: N_12  and  C_13
DOCKED: REMARK                            x       y       z     vdW  Elec       q    Type
DOCKED: REMARK                         _______ _______ _______ _____ _____    ______ ____
DOCKED: USER                              x       y       z     vdW  Elec       q    Type
DOCKED: USER                           _______ _______ _______ _____ _____    ______ ____
DOCKED: ROOT
DOCKED: ATOM      1  C   UNL     1      37.333  12.933 123.087 -0.60 -0.00    +0.000 C 
DOCKED: ENDROOT
DOCKED: BRANCH   1   2
DOCKED: ATOM      2  C   UNL     1      37.628  14.288 122.426 -0.46 -0.00    +0.000 C 
DOCKED: BRANCH   2   3
DOCKED: ATOM      3  C   UNL     1      38.901  14.919 123.008 -0.26 -0.00    +0.000 C 
DOCKED: BRANCH   3   4
DOCKED: ATOM      4  C   UNL     1      40.098  14.844 122.042 -0.43 -0.00    +0.000 C 
DOCKED: BRANCH   4   5
DOCKED: ATOM      5  C   UNL     1      41.457  14.638 122.731 -0.57 -0.00    +0.000 C 
DOCKED: BRANCH   5   7
DOCKED: ATOM      6  O   UNL     1      43.373  16.048 122.965 -0.66 -0.00    +0.000 OA
DOCKED: ATOM      7  C   UNL     1      42.121  15.941 123.071 -0.44 -0.00    +0.000 C 
DOCKED: ATOM      8  N   UNL     1      41.348  17.048 123.543 -0.35 -0.00    +0.000 N 
DOCKED: ATOM      9  H   UNL     1      40.372  16.958 123.630 -0.02 -0.00    +0.000 HD
DOCKED: BRANCH   8  10
DOCKED: ATOM     10  O   UNL     1      41.947  18.217 123.869 -0.32 -0.00    +0.000 OA
DOCKED: ATOM     11  H   UNL     1      42.905  18.083 123.933 -0.55 -0.00    +0.000 HD
DOCKED: ENDBRANCH   8  10
DOCKED: ENDBRANCH   5   7
DOCKED: ENDBRANCH   4   5
DOCKED: ENDBRANCH   3   4
DOCKED: ENDBRANCH   2   3
DOCKED: ENDBRANCH   1   2
DOCKED: BRANCH   1  12
DOCKED: ATOM     12  C   UNL     1      35.940  12.400 122.724 -0.48 -0.00    +0.000 C 
DOCKED: BRANCH  12  13
DOCKED: ATOM     13  C   UNL     1      35.991  10.952 122.335 -0.66 -0.00    +0.000 C 
DOCKED: ATOM     14  N   UNL     1      35.214   9.984 123.058 -0.58 -0.00    +0.000 N 
DOCKED: ATOM     15  O   UNL     1      36.729  10.595 121.377 -0.99 -0.00    +0.000 OA
DOCKED: ATOM     16  H   UNL     1      34.443  10.306 123.577 -0.43 -0.00    +0.000 HD
DOCKED: BRANCH  14  17
DOCKED: ATOM     17  C   UNL     1      35.493   8.573 123.071 -0.60 -0.00    +0.000 A 
DOCKED: ATOM     18  C   UNL     1      34.444   7.662 123.260 -0.65 -0.00    +0.000 A 
DOCKED: ATOM     19  C   UNL     1      34.705   6.292 123.308 -0.69 -0.00    +0.000 A 
DOCKED: ATOM     20  C   UNL     1      36.020   5.842 123.184 -0.53 -0.00    +0.000 A 
DOCKED: ATOM     21  N   UNL     1      37.033   6.735 123.028 -1.31 -0.00    +0.000 NA
DOCKED: ATOM     22  C   UNL     1      36.804   8.074 122.972 -0.66 -0.00    +0.000 A 
DOCKED: ATOM     23  CM  UNL     1      35.784   7.184 123.134 +0.00 -0.00    +0.000 AC
DOCKED: ENDBRANCH  14  17
DOCKED: ENDBRANCH  12  13
DOCKED: ENDBRANCH   1  12
DOCKED: TORSDOF 9DOCKED: TER
DOCKED: ENDMDL
________________________________________________________________________________


	BEGINNING GENETIC ALGORITHM DOCKING 90 of 100
Run: 90 Seed: 2066837526 866218445 [ Run 90 of 100 GA/GALS ]
Beginning LAMARCKIAN GENETIC ALGORITHM (LGA), with a maximum of 2500000 energy evaluations.

Final-Value: -13.567


	FINAL GENETIC ALGORITHM DOCKED STATE
	_______________________________________________


Detailed state:  trans 37.198 16.620 123.777 quatxyzw 0.038722 0.454039 0.855940 0.244369 center -0.029 -0.207 0.469 ntor 9 0.5237 -154.4331 -177.7820 -137.2632 154.4404 179.9640 65.5176 -169.8627 53.4913
State:	 37.198  16.620 123.777   0.040  0.468  0.883 151.711      0.52 -154.43 -177.78 -137.26  154.44  179.96   65.52 -169.86   53.49

DOCKED: MODEL       90
DOCKED: USER    Run = 90
DOCKED: USER    DPF = ligand_dock.biased.dpf
DOCKED: USER  
DOCKED: USER    Estimated Free Energy of Binding    =   -9.40 kcal/mol  [=(1)+(2)+(3)-(4)]
DOCKED: USER    Estimated Inhibition Constant, Ki   =  128.52 nM (nanomolar)  [Temperature = 298.15 K]
DOCKED: USER    
DOCKED: USER    (1) Final Intermolecular Energy     =  -12.09 kcal/mol
DOCKED: USER        vdW + Hbond + desolv Energy     =  -12.09 kcal/mol
DOCKED: USER        Electrostatic Energy            =   +0.00 kcal/mol
DOCKED: USER    (2) Final Total Internal Energy     =   -1.48 kcal/mol
DOCKED: USER    (3) Torsional Free Energy           =   +2.68 kcal/mol
DOCKED: USER    (4) Unbound System's Energy  [=(2)] =   -1.48 kcal/mol
DOCKED: USER    
DOCKED: USER    
DOCKED: USER    NEWDPF move ligand.dum.pdbqt
DOCKED: USER    NEWDPF about -0.029000 -0.207000 0.469000
DOCKED: USER    NEWDPF tran0 37.198048 16.619632 123.777194
DOCKED: USER    NEWDPF quaternion0 0.038722 0.454039 0.855940 0.244369
DOCKED: USER    NEWDPF axisangle0 0.039933 0.468234 0.882702 151.710905
DOCKED: USER    NEWDPF quat0 0.039933 0.468234 0.882702 151.710905
DOCKED: USER    NEWDPF dihe0 0.52 -154.43 -177.78 -137.26 154.44 179.96 65.52 -169.86 53.49 
DOCKED: USER  keepresnum = 1 
DOCKED: USER  
DOCKED: REMARK  Name = 
DOCKED: REMARK  9 active torsions:
DOCKED: REMARK  status: ('A' for Active; 'I' for Inactive)
DOCKED: REMARK    1  A    between atoms: C_2  and  C_5
DOCKED: REMARK    2  A    between atoms: N_3  and  O_4
DOCKED: REMARK    3  A    between atoms: C_5  and  C_6
DOCKED: REMARK    4  A    between atoms: C_6  and  C_7
DOCKED: REMARK    5  A    between atoms: C_7  and  C_8
DOCKED: REMARK    6  A    between atoms: C_8  and  C_9
DOCKED: REMARK    7  A    between atoms: C_9  and  C_10
DOCKED: REMARK    8  A    between atoms: C_10  and  C_11
DOCKED: REMARK    9  A    between atoms: N_12  and  C_13
DOCKED: REMARK                            x       y       z     vdW  Elec       q    Type
DOCKED: REMARK                         _______ _______ _______ _____ _____    ______ ____
DOCKED: USER                              x       y       z     vdW  Elec       q    Type
DOCKED: USER                           _______ _______ _______ _____ _____    ______ ____
DOCKED: ROOT
DOCKED: ATOM      1  C   UNL     1      37.440  14.380 121.494 -0.38 -0.00    +0.000 C 
DOCKED: ENDROOT
DOCKED: BRANCH   1   2
DOCKED: ATOM      2  C   UNL     1      37.274  14.205 123.011 -0.50 -0.00    +0.000 C 
DOCKED: BRANCH   2   3
DOCKED: ATOM      3  C   UNL     1      37.132  12.723 123.383 -0.63 -0.00    +0.000 C 
DOCKED: BRANCH   3   4
DOCKED: ATOM      4  C   UNL     1      37.050  11.804 122.150 -0.59 -0.00    +0.000 C 
DOCKED: BRANCH   4   5
DOCKED: ATOM      5  C   UNL     1      36.025  10.664 122.274 -0.65 -0.00    +0.000 C 
DOCKED: BRANCH   5   7
DOCKED: ATOM      6  O   UNL     1      37.047   8.820 121.147 -2.66 -0.00    +0.000 OA
DOCKED: ATOM      7  C   UNL     1      36.677   9.312 122.247 -0.72 -0.00    +0.000 C 
DOCKED: ATOM      8  N   UNL     1      36.854   8.568 123.456 -0.65 -0.00    +0.000 N 
DOCKED: ATOM      9  H   UNL     1      36.559   8.953 124.313 -0.35 -0.00    +0.000 HD
DOCKED: BRANCH   8  10
DOCKED: ATOM     10  O   UNL     1      37.424   7.341 123.433 -1.98 -0.00    +0.000 OA
DOCKED: ATOM     11  H   UNL     1      37.663   7.113 122.521 -0.32 -0.00    +0.000 HD
DOCKED: ENDBRANCH   8  10
DOCKED: ENDBRANCH   5   7
DOCKED: ENDBRANCH   4   5
DOCKED: ENDBRANCH   3   4
DOCKED: ENDBRANCH   2   3
DOCKED: ENDBRANCH   1   2
DOCKED: BRANCH   1  12
DOCKED: ATOM     12  C   UNL     1      38.811  14.961 121.122 -0.31 -0.00    +0.000 C 
DOCKED: BRANCH  12  13
DOCKED: ATOM     13  C   UNL     1      39.490  15.569 122.314 -0.36 -0.00    +0.000 C 
DOCKED: ATOM     14  N   UNL     1      39.060  16.845 122.814 -0.21 -0.00    +0.000 N 
DOCKED: ATOM     15  O   UNL     1      40.444  14.954 122.863 -0.69 -0.00    +0.000 OA
DOCKED: ATOM     16  H   UNL     1      38.155  17.153 122.578 +0.00 -0.00    +0.000 HD
DOCKED: BRANCH  14  17
DOCKED: ATOM     17  C   UNL     1      39.869  17.703 123.638 -0.22 -0.00    +0.000 A 
DOCKED: ATOM     18  C   UNL     1      40.995  18.331 123.088 -0.17 -0.00    +0.000 A 
DOCKED: ATOM     19  C   UNL     1      41.807  19.140 123.885 -0.14 -0.00    +0.000 A 
DOCKED: ATOM     20  C   UNL     1      41.495  19.301 125.235 -0.11 -0.00    +0.000 A 
DOCKED: ATOM     21  N   UNL     1      40.417  18.666 125.765 -0.27 -0.00    +0.000 NA
DOCKED: ATOM     22  C   UNL     1      39.607  17.878 125.009 -0.20 -0.00    +0.000 A 
DOCKED: ATOM     23  CM  UNL     1      40.691  18.507 124.473 +0.00 -0.00    +0.000 AC
DOCKED: ENDBRANCH  14  17
DOCKED: ENDBRANCH  12  13
DOCKED: ENDBRANCH   1  12
DOCKED: TORSDOF 9DOCKED: TER
DOCKED: ENDMDL
________________________________________________________________________________


	BEGINNING GENETIC ALGORITHM DOCKING 91 of 100
Run: 91 Seed: 563055478 1644221956 [ Run 91 of 100 GA/GALS ]
Beginning LAMARCKIAN GENETIC ALGORITHM (LGA), with a maximum of 2500000 energy evaluations.

Final-Value: -13.623


	FINAL GENETIC ALGORITHM DOCKED STATE
	_______________________________________________


Detailed state:  trans 35.877 16.183 119.764 quatxyzw -0.885290 0.097442 0.298571 -0.342961 center -0.029 -0.207 0.469 ntor 9 8.0103 -154.0441 60.7832 -67.3147 55.6972 -178.3823 102.0401 136.3357 -42.3875
State:	 35.877  16.183 119.764  -0.942  0.104  0.318 -139.885      8.01 -154.04   60.78  -67.31   55.70 -178.38  102.04  136.34  -42.39

DOCKED: MODEL       91
DOCKED: USER    Run = 91
DOCKED: USER    DPF = ligand_dock.biased.dpf
DOCKED: USER  
DOCKED: USER    Estimated Free Energy of Binding    =   -9.72 kcal/mol  [=(1)+(2)+(3)-(4)]
DOCKED: USER    Estimated Inhibition Constant, Ki   =   74.73 nM (nanomolar)  [Temperature = 298.15 K]
DOCKED: USER    
DOCKED: USER    (1) Final Intermolecular Energy     =  -12.41 kcal/mol
DOCKED: USER        vdW + Hbond + desolv Energy     =  -12.41 kcal/mol
DOCKED: USER        Electrostatic Energy            =   +0.00 kcal/mol
DOCKED: USER    (2) Final Total Internal Energy     =   -1.22 kcal/mol
DOCKED: USER    (3) Torsional Free Energy           =   +2.68 kcal/mol
DOCKED: USER    (4) Unbound System's Energy  [=(2)] =   -1.22 kcal/mol
DOCKED: USER    
DOCKED: USER    
DOCKED: USER    NEWDPF move ligand.dum.pdbqt
DOCKED: USER    NEWDPF about -0.029000 -0.207000 0.469000
DOCKED: USER    NEWDPF tran0 35.877012 16.183020 119.763707
DOCKED: USER    NEWDPF quaternion0 -0.885290 0.097442 0.298571 -0.342961
DOCKED: USER    NEWDPF axisangle0 -0.942450 0.103734 0.317849 -139.885193
DOCKED: USER    NEWDPF quat0 -0.942450 0.103734 0.317849 -139.885193
DOCKED: USER    NEWDPF dihe0 8.01 -154.04 60.78 -67.31 55.70 -178.38 102.04 136.34 -42.39 
DOCKED: USER  keepresnum = 1 
DOCKED: USER  
DOCKED: REMARK  Name = 
DOCKED: REMARK  9 active torsions:
DOCKED: REMARK  status: ('A' for Active; 'I' for Inactive)
DOCKED: REMARK    1  A    between atoms: C_2  and  C_5
DOCKED: REMARK    2  A    between atoms: N_3  and  O_4
DOCKED: REMARK    3  A    between atoms: C_5  and  C_6
DOCKED: REMARK    4  A    between atoms: C_6  and  C_7
DOCKED: REMARK    5  A    between atoms: C_7  and  C_8
DOCKED: REMARK    6  A    between atoms: C_8  and  C_9
DOCKED: REMARK    7  A    between atoms: C_9  and  C_10
DOCKED: REMARK    8  A    between atoms: C_10  and  C_11
DOCKED: REMARK    9  A    between atoms: N_12  and  C_13
DOCKED: REMARK                            x       y       z     vdW  Elec       q    Type
DOCKED: REMARK                         _______ _______ _______ _____ _____    ______ ____
DOCKED: USER                              x       y       z     vdW  Elec       q    Type
DOCKED: USER                           _______ _______ _______ _____ _____    ______ ____
DOCKED: ROOT
DOCKED: ATOM      1  C   UNL     1      37.541  14.510 121.936 -0.40 -0.00    +0.000 C 
DOCKED: ENDROOT
DOCKED: BRANCH   1   2
DOCKED: ATOM      2  C   UNL     1      37.269  14.183 120.460 -0.33 -0.00    +0.000 C 
DOCKED: BRANCH   2   3
DOCKED: ATOM      3  C   UNL     1      37.160  12.667 120.242 -0.49 -0.00    +0.000 C 
DOCKED: BRANCH   3   4
DOCKED: ATOM      4  C   UNL     1      37.446  11.859 121.521 -0.44 -0.00    +0.000 C 
DOCKED: BRANCH   4   5
DOCKED: ATOM      5  C   UNL     1      36.296  10.938 121.961 -0.60 -0.00    +0.000 C 
DOCKED: BRANCH   5   7
DOCKED: ATOM      6  O   UNL     1      36.842   8.817 121.001 -2.63 -0.00    +0.000 OA
DOCKED: ATOM      7  C   UNL     1      36.726   9.502 122.054 -0.69 -0.00    +0.000 C 
DOCKED: ATOM      8  N   UNL     1      36.975   8.900 123.327 -0.63 -0.00    +0.000 N 
DOCKED: ATOM      9  H   UNL     1      36.878   9.436 124.147 -0.52 -0.00    +0.000 HD
DOCKED: BRANCH   8  10
DOCKED: ATOM     10  O   UNL     1      37.344   7.601 123.415 -2.15 -0.00    +0.000 OA
DOCKED: ATOM     11  H   UNL     1      37.517   7.253 122.526 -0.21 -0.00    +0.000 HD
DOCKED: ENDBRANCH   8  10
DOCKED: ENDBRANCH   5   7
DOCKED: ENDBRANCH   4   5
DOCKED: ENDBRANCH   3   4
DOCKED: ENDBRANCH   2   3
DOCKED: ENDBRANCH   1   2
DOCKED: BRANCH   1  12
DOCKED: ATOM     12  C   UNL     1      36.270  14.431 122.793 -0.39 -0.00    +0.000 C 
DOCKED: BRANCH  12  13
DOCKED: ATOM     13  C   UNL     1      35.858  15.786 123.288 -0.43 -0.00    +0.000 C 
DOCKED: ATOM     14  N   UNL     1      35.578  15.989 124.682 -0.34 -0.00    +0.000 N 
DOCKED: ATOM     15  O   UNL     1      35.751  16.737 122.467 -0.30 -0.00    +0.000 OA
DOCKED: ATOM     16  H   UNL     1      35.949  15.344 125.326 -0.00 -0.00    +0.000 HD
DOCKED: BRANCH  14  17
DOCKED: ATOM     17  C   UNL     1      34.788  17.076 125.196 -0.34 -0.00    +0.000 A 
DOCKED: ATOM     18  C   UNL     1      33.876  16.839 126.234 -0.35 -0.00    +0.000 A 
DOCKED: ATOM     19  C   UNL     1      33.080  17.877 126.720 -0.24 -0.00    +0.000 A 
DOCKED: ATOM     20  C   UNL     1      33.191  19.146 126.151 -0.25 -0.00    +0.000 A 
DOCKED: ATOM     21  N   UNL     1      34.060  19.360 125.128 -0.19 -0.00    +0.000 NA
DOCKED: ATOM     22  C   UNL     1      34.850  18.367 124.640 -0.29 -0.00    +0.000 A 
DOCKED: ATOM     23  CM  UNL     1      33.977  18.145 125.663 -0.19 -0.00    +0.000 AC
DOCKED: ENDBRANCH  14  17
DOCKED: ENDBRANCH  12  13
DOCKED: ENDBRANCH   1  12
DOCKED: TORSDOF 9DOCKED: TER
DOCKED: ENDMDL
________________________________________________________________________________


	BEGINNING GENETIC ALGORITHM DOCKING 92 of 100
Run: 92 Seed: 192614962 880560339 [ Run 92 of 100 GA/GALS ]
Beginning LAMARCKIAN GENETIC ALGORITHM (LGA), with a maximum of 2500000 energy evaluations.

Final-Value: -13.698


	FINAL GENETIC ALGORITHM DOCKED STATE
	_______________________________________________


Detailed state:  trans 36.922 12.037 121.620 quatxyzw -0.636432 0.345957 -0.257659 0.639438 center -0.029 -0.207 0.469 ntor 9 6.4377 -124.7029 178.3780 -95.0829 -169.8742 107.2321 -70.0657 158.2445 -39.0927
State:	 36.922  12.037 121.620  -0.828  0.450 -0.335 100.500      6.44 -124.70  178.38  -95.08 -169.87  107.23  -70.07  158.24  -39.09

DOCKED: MODEL       92
DOCKED: USER    Run = 92
DOCKED: USER    DPF = ligand_dock.biased.dpf
DOCKED: USER  
DOCKED: USER    Estimated Free Energy of Binding    =   -9.55 kcal/mol  [=(1)+(2)+(3)-(4)]
DOCKED: USER    Estimated Inhibition Constant, Ki   =  100.55 nM (nanomolar)  [Temperature = 298.15 K]
DOCKED: USER    
DOCKED: USER    (1) Final Intermolecular Energy     =  -12.23 kcal/mol
DOCKED: USER        vdW + Hbond + desolv Energy     =  -12.23 kcal/mol
DOCKED: USER        Electrostatic Energy            =   +0.00 kcal/mol
DOCKED: USER    (2) Final Total Internal Energy     =   -1.47 kcal/mol
DOCKED: USER    (3) Torsional Free Energy           =   +2.68 kcal/mol
DOCKED: USER    (4) Unbound System's Energy  [=(2)] =   -1.47 kcal/mol
DOCKED: USER    
DOCKED: USER    
DOCKED: USER    NEWDPF move ligand.dum.pdbqt
DOCKED: USER    NEWDPF about -0.029000 -0.207000 0.469000
DOCKED: USER    NEWDPF tran0 36.921630 12.036692 121.620115
DOCKED: USER    NEWDPF quaternion0 -0.636432 0.345957 -0.257659 0.639438
DOCKED: USER    NEWDPF axisangle0 -0.827778 0.449970 -0.335126 100.500218
DOCKED: USER    NEWDPF quat0 -0.827778 0.449970 -0.335126 100.500218
DOCKED: USER    NEWDPF dihe0 6.44 -124.70 178.38 -95.08 -169.87 107.23 -70.07 158.24 -39.09 
DOCKED: USER  keepresnum = 1 
DOCKED: USER  
DOCKED: REMARK  Name = 
DOCKED: REMARK  9 active torsions:
DOCKED: REMARK  status: ('A' for Active; 'I' for Inactive)
DOCKED: REMARK    1  A    between atoms: C_2  and  C_5
DOCKED: REMARK    2  A    between atoms: N_3  and  O_4
DOCKED: REMARK    3  A    between atoms: C_5  and  C_6
DOCKED: REMARK    4  A    between atoms: C_6  and  C_7
DOCKED: REMARK    5  A    between atoms: C_7  and  C_8
DOCKED: REMARK    6  A    between atoms: C_8  and  C_9
DOCKED: REMARK    7  A    between atoms: C_9  and  C_10
DOCKED: REMARK    8  A    between atoms: C_10  and  C_11
DOCKED: REMARK    9  A    between atoms: N_12  and  C_13
DOCKED: REMARK                            x       y       z     vdW  Elec       q    Type
DOCKED: REMARK                         _______ _______ _______ _____ _____    ______ ____
DOCKED: USER                              x       y       z     vdW  Elec       q    Type
DOCKED: USER                           _______ _______ _______ _____ _____    ______ ____
DOCKED: ROOT
DOCKED: ATOM      1  C   UNL     1      37.716  15.137 121.403 -0.30 -0.00    +0.000 C 
DOCKED: ENDROOT
DOCKED: BRANCH   1   2
DOCKED: ATOM      2  C   UNL     1      37.145  14.363 122.601 -0.46 -0.00    +0.000 C 
DOCKED: BRANCH   2   3
DOCKED: ATOM      3  C   UNL     1      37.787  12.973 122.716 -0.47 -0.00    +0.000 C 
DOCKED: BRANCH   3   4
DOCKED: ATOM      4  C   UNL     1      37.200  11.960 121.715 -0.53 -0.00    +0.000 C 
DOCKED: BRANCH   4   5
DOCKED: ATOM      5  C   UNL     1      36.220  10.951 122.334 -0.67 -0.00    +0.000 C 
DOCKED: BRANCH   5   7
DOCKED: ATOM      6  O   UNL     1      37.059   9.136 121.025 -2.73 -0.00    +0.000 OA
DOCKED: ATOM      7  C   UNL     1      36.683   9.533 122.160 -0.70 -0.00    +0.000 C 
DOCKED: ATOM      8  N   UNL     1      36.672   8.626 123.266 -0.66 -0.00    +0.000 N 
DOCKED: ATOM      9  H   UNL     1      36.371   8.938 124.150 -0.34 -0.00    +0.000 HD
DOCKED: BRANCH   8  10
DOCKED: ATOM     10  O   UNL     1      37.070   7.342 123.107 -2.16 -0.00    +0.000 OA
DOCKED: ATOM     11  H   UNL     1      37.428   7.222 122.214 -0.17 -0.00    +0.000 HD
DOCKED: ENDBRANCH   8  10
DOCKED: ENDBRANCH   5   7
DOCKED: ENDBRANCH   4   5
DOCKED: ENDBRANCH   3   4
DOCKED: ENDBRANCH   2   3
DOCKED: ENDBRANCH   1   2
DOCKED: BRANCH   1  12
DOCKED: ATOM     12  C   UNL     1      36.698  15.279 120.263 -0.13 -0.00    +0.000 C 
DOCKED: BRANCH  12  13
DOCKED: ATOM     13  C   UNL     1      37.067  14.421 119.089 -0.32 -0.00    +0.000 C 
DOCKED: ATOM     14  N   UNL     1      37.571  15.024 117.887 -0.20 -0.00    +0.000 N 
DOCKED: ATOM     15  O   UNL     1      36.919  13.171 119.166 -0.47 -0.00    +0.000 OA
DOCKED: ATOM     16  H   UNL     1      37.954  15.929 117.950 +0.00 -0.00    +0.000 HD
DOCKED: BRANCH  14  17
DOCKED: ATOM     17  C   UNL     1      37.551  14.390 116.596 -0.28 -0.00    +0.000 A 
DOCKED: ATOM     18  C   UNL     1      36.711  14.891 115.592 -0.20 -0.00    +0.000 A 
DOCKED: ATOM     19  C   UNL     1      36.657  14.265 114.345 -0.25 -0.00    +0.000 A 
DOCKED: ATOM     20  C   UNL     1      37.434  13.129 114.117 -0.29 -0.00    +0.000 A 
DOCKED: ATOM     21  N   UNL     1      38.225  12.636 115.106 -0.52 -0.00    +0.000 NA
DOCKED: ATOM     22  C   UNL     1      38.300  13.230 116.327 -0.39 -0.00    +0.000 A 
DOCKED: ATOM     23  CM  UNL     1      37.500  13.727 115.341 +0.00 -0.00    +0.000 AC
DOCKED: ENDBRANCH  14  17
DOCKED: ENDBRANCH  12  13
DOCKED: ENDBRANCH   1  12
DOCKED: TORSDOF 9DOCKED: TER
DOCKED: ENDMDL
________________________________________________________________________________


	BEGINNING GENETIC ALGORITHM DOCKING 93 of 100
Run: 93 Seed: 835276030 267328659 [ Run 93 of 100 GA/GALS ]
Beginning LAMARCKIAN GENETIC ALGORITHM (LGA), with a maximum of 2500000 energy evaluations.

Final-Value: -13.590


	FINAL GENETIC ALGORITHM DOCKED STATE
	_______________________________________________


Detailed state:  trans 37.645 13.754 125.093 quatxyzw -0.024375 -0.338098 -0.729902 0.593582 center -0.029 -0.207 0.469 ntor 9 -2.1289 -131.7474 -171.5212 73.8705 -174.4369 -6.7126 -43.5291 173.7252 177.9767
State:	 37.645  13.754 125.093  -0.030 -0.420 -0.907 107.177     -2.13 -131.75 -171.52   73.87 -174.44   -6.71  -43.53  173.73  177.98

DOCKED: MODEL       93
DOCKED: USER    Run = 93
DOCKED: USER    DPF = ligand_dock.biased.dpf
DOCKED: USER  
DOCKED: USER    Estimated Free Energy of Binding    =   -9.68 kcal/mol  [=(1)+(2)+(3)-(4)]
DOCKED: USER    Estimated Inhibition Constant, Ki   =   80.72 nM (nanomolar)  [Temperature = 298.15 K]
DOCKED: USER    
DOCKED: USER    (1) Final Intermolecular Energy     =  -12.36 kcal/mol
DOCKED: USER        vdW + Hbond + desolv Energy     =  -12.36 kcal/mol
DOCKED: USER        Electrostatic Energy            =   +0.00 kcal/mol
DOCKED: USER    (2) Final Total Internal Energy     =   -1.23 kcal/mol
DOCKED: USER    (3) Torsional Free Energy           =   +2.68 kcal/mol
DOCKED: USER    (4) Unbound System's Energy  [=(2)] =   -1.23 kcal/mol
DOCKED: USER    
DOCKED: USER    
DOCKED: USER    NEWDPF move ligand.dum.pdbqt
DOCKED: USER    NEWDPF about -0.029000 -0.207000 0.469000
DOCKED: USER    NEWDPF tran0 37.644840 13.754210 125.092716
DOCKED: USER    NEWDPF quaternion0 -0.024375 -0.338098 -0.729902 0.593582
DOCKED: USER    NEWDPF axisangle0 -0.030288 -0.420116 -0.906965 107.176794
DOCKED: USER    NEWDPF quat0 -0.030288 -0.420116 -0.906965 107.176794
DOCKED: USER    NEWDPF dihe0 -2.13 -131.75 -171.52 73.87 -174.44 -6.71 -43.53 173.73 177.98 
DOCKED: USER  keepresnum = 1 
DOCKED: USER  
DOCKED: REMARK  Name = 
DOCKED: REMARK  9 active torsions:
DOCKED: REMARK  status: ('A' for Active; 'I' for Inactive)
DOCKED: REMARK    1  A    between atoms: C_2  and  C_5
DOCKED: REMARK    2  A    between atoms: N_3  and  O_4
DOCKED: REMARK    3  A    between atoms: C_5  and  C_6
DOCKED: REMARK    4  A    between atoms: C_6  and  C_7
DOCKED: REMARK    5  A    between atoms: C_7  and  C_8
DOCKED: REMARK    6  A    between atoms: C_8  and  C_9
DOCKED: REMARK    7  A    between atoms: C_9  and  C_10
DOCKED: REMARK    8  A    between atoms: C_10  and  C_11
DOCKED: REMARK    9  A    between atoms: N_12  and  C_13
DOCKED: REMARK                            x       y       z     vdW  Elec       q    Type
DOCKED: REMARK                         _______ _______ _______ _____ _____    ______ ____
DOCKED: USER                              x       y       z     vdW  Elec       q    Type
DOCKED: USER                           _______ _______ _______ _____ _____    ______ ____
DOCKED: ROOT
DOCKED: ATOM      1  C   UNL     1      36.756  12.315 122.367 -0.60 -0.00    +0.000 C 
DOCKED: ENDROOT
DOCKED: BRANCH   1   2
DOCKED: ATOM      2  C   UNL     1      35.920  13.172 123.330 -0.56 -0.00    +0.000 C 
DOCKED: BRANCH   2   3
DOCKED: ATOM      3  C   UNL     1      36.394  14.632 123.323 -0.49 -0.00    +0.000 C 
DOCKED: BRANCH   3   4
DOCKED: ATOM      4  C   UNL     1      35.409  15.582 124.030 -0.51 -0.00    +0.000 C 
DOCKED: BRANCH   4   5
DOCKED: ATOM      5  C   UNL     1      34.634  16.512 123.082 -0.44 -0.00    +0.000 C 
DOCKED: BRANCH   5   7
DOCKED: ATOM      6  O   UNL     1      35.030  18.504 124.344 -0.30 -0.00    +0.000 OA
DOCKED: ATOM      7  C   UNL     1      35.068  17.944 123.215 -0.34 -0.00    +0.000 C 
DOCKED: ATOM      8  N   UNL     1      35.493  18.682 122.066 -0.24 -0.00    +0.000 N 
DOCKED: ATOM      9  H   UNL     1      35.515  18.243 121.185 -0.00 -0.00    +0.000 HD
DOCKED: BRANCH   8  10
DOCKED: ATOM     10  O   UNL     1      35.867  19.978 122.180 -0.71 -0.00    +0.000 OA
DOCKED: ATOM     11  H   UNL     1      35.756  20.267 123.099 -0.02 -0.00    +0.000 HD
DOCKED: ENDBRANCH   8  10
DOCKED: ENDBRANCH   5   7
DOCKED: ENDBRANCH   4   5
DOCKED: ENDBRANCH   3   4
DOCKED: ENDBRANCH   2   3
DOCKED: ENDBRANCH   1   2
DOCKED: BRANCH   1  12
DOCKED: ATOM     12  C   UNL     1      37.163  10.972 122.988 -0.51 -0.00    +0.000 C 
DOCKED: BRANCH  12  13
DOCKED: ATOM     13  C   UNL     1      36.412   9.832 122.367 -0.69 -0.00    +0.000 C 
DOCKED: ATOM     14  N   UNL     1      35.181   9.378 122.950 -0.60 -0.00    +0.000 N 
DOCKED: ATOM     15  O   UNL     1      36.878   9.272 121.338 -2.52 -0.00    +0.000 OA
DOCKED: ATOM     16  H   UNL     1      34.695   9.996 123.543 -0.47 -0.00    +0.000 HD
DOCKED: BRANCH  14  17
DOCKED: ATOM     17  C   UNL     1      34.612   8.076 122.724 -0.62 -0.00    +0.000 A 
DOCKED: ATOM     18  C   UNL     1      33.901   7.827 121.542 -0.59 -0.00    +0.000 A 
DOCKED: ATOM     19  C   UNL     1      33.316   6.579 121.325 -0.43 -0.00    +0.000 A 
DOCKED: ATOM     20  C   UNL     1      33.432   5.590 122.303 -0.48 -0.00    +0.000 A 
DOCKED: ATOM     21  N   UNL     1      34.101   5.850 123.457 -0.62 -0.00    +0.000 NA
DOCKED: ATOM     22  C   UNL     1      34.685   7.056 123.690 -0.63 -0.00    +0.000 A 
DOCKED: ATOM     23  CM  UNL     1      34.010   6.803 122.533 +0.00 -0.00    +0.000 AC
DOCKED: ENDBRANCH  14  17
DOCKED: ENDBRANCH  12  13
DOCKED: ENDBRANCH   1  12
DOCKED: TORSDOF 9DOCKED: TER
DOCKED: ENDMDL
________________________________________________________________________________


	BEGINNING GENETIC ALGORITHM DOCKING 94 of 100
Run: 94 Seed: 608962021 1729668986 [ Run 94 of 100 GA/GALS ]
Beginning LAMARCKIAN GENETIC ALGORITHM (LGA), with a maximum of 2500000 energy evaluations.

Final-Value: -14.447


	FINAL GENETIC ALGORITHM DOCKED STATE
	_______________________________________________


Detailed state:  trans 37.023 11.667 123.203 quatxyzw -0.237399 0.260985 -0.492212 0.795774 center -0.029 -0.207 0.469 ntor 9 4.7520 129.4960 57.8971 79.3411 -34.0326 86.7994 -76.8490 15.2477 178.6086
State:	 37.023  11.667 123.203  -0.392  0.431 -0.813 74.543      4.75  129.50   57.90   79.34  -34.03   86.80  -76.85   15.25  178.61

DOCKED: MODEL       94
DOCKED: USER    Run = 94
DOCKED: USER    DPF = ligand_dock.biased.dpf
DOCKED: USER  
DOCKED: USER    Estimated Free Energy of Binding    =  -10.32 kcal/mol  [=(1)+(2)+(3)-(4)]
DOCKED: USER    Estimated Inhibition Constant, Ki   =   27.20 nM (nanomolar)  [Temperature = 298.15 K]
DOCKED: USER    
DOCKED: USER    (1) Final Intermolecular Energy     =  -13.01 kcal/mol
DOCKED: USER        vdW + Hbond + desolv Energy     =  -13.01 kcal/mol
DOCKED: USER        Electrostatic Energy            =   +0.00 kcal/mol
DOCKED: USER    (2) Final Total Internal Energy     =   -1.44 kcal/mol
DOCKED: USER    (3) Torsional Free Energy           =   +2.68 kcal/mol
DOCKED: USER    (4) Unbound System's Energy  [=(2)] =   -1.44 kcal/mol
DOCKED: USER    
DOCKED: USER    
DOCKED: USER    NEWDPF move ligand.dum.pdbqt
DOCKED: USER    NEWDPF about -0.029000 -0.207000 0.469000
DOCKED: USER    NEWDPF tran0 37.023282 11.666704 123.203125
DOCKED: USER    NEWDPF quaternion0 -0.237399 0.260985 -0.492212 0.795774
DOCKED: USER    NEWDPF axisangle0 -0.392010 0.430956 -0.812776 74.543214
DOCKED: USER    NEWDPF quat0 -0.392010 0.430956 -0.812776 74.543214
DOCKED: USER    NEWDPF dihe0 4.75 129.50 57.90 79.34 -34.03 86.80 -76.85 15.25 178.61 
DOCKED: USER  keepresnum = 1 
DOCKED: USER  
DOCKED: REMARK  Name = 
DOCKED: REMARK  9 active torsions:
DOCKED: REMARK  status: ('A' for Active; 'I' for Inactive)
DOCKED: REMARK    1  A    between atoms: C_2  and  C_5
DOCKED: REMARK    2  A    between atoms: N_3  and  O_4
DOCKED: REMARK    3  A    between atoms: C_5  and  C_6
DOCKED: REMARK    4  A    between atoms: C_6  and  C_7
DOCKED: REMARK    5  A    between atoms: C_7  and  C_8
DOCKED: REMARK    6  A    between atoms: C_8  and  C_9
DOCKED: REMARK    7  A    between atoms: C_9  and  C_10
DOCKED: REMARK    8  A    between atoms: C_10  and  C_11
DOCKED: REMARK    9  A    between atoms: N_12  and  C_13
DOCKED: REMARK                            x       y       z     vdW  Elec       q    Type
DOCKED: REMARK                         _______ _______ _______ _____ _____    ______ ____
DOCKED: USER                              x       y       z     vdW  Elec       q    Type
DOCKED: USER                           _______ _______ _______ _____ _____    ______ ____
DOCKED: ROOT
DOCKED: ATOM      1  C   UNL     1      38.112  13.431 120.756 -0.43 -0.00    +0.000 C 
DOCKED: ENDROOT
DOCKED: BRANCH   1   2
DOCKED: ATOM      2  C   UNL     1      37.168  13.835 121.899 -0.43 -0.00    +0.000 C 
DOCKED: BRANCH   2   3
DOCKED: ATOM      3  C   UNL     1      37.531  13.102 123.198 -0.56 -0.00    +0.000 C 
DOCKED: BRANCH   3   4
DOCKED: ATOM      4  C   UNL     1      36.640  11.873 123.458 -0.70 -0.00    +0.000 C 
DOCKED: BRANCH   4   5
DOCKED: ATOM      5  C   UNL     1      36.163  11.154 122.185 -0.63 -0.00    +0.000 C 
DOCKED: BRANCH   5   7
DOCKED: ATOM      6  O   UNL     1      36.763   9.158 121.013 -2.63 -0.00    +0.000 OA
DOCKED: ATOM      7  C   UNL     1      36.633   9.729 122.130 -0.68 -0.00    +0.000 C 
DOCKED: ATOM      8  N   UNL     1      36.905   9.008 123.335 -0.61 -0.00    +0.000 N 
DOCKED: ATOM      9  H   UNL     1      36.797   9.455 124.206 -0.51 -0.00    +0.000 HD
DOCKED: BRANCH   8  10
DOCKED: ATOM     10  O   UNL     1      37.311   7.717 123.289 -2.22 -0.00    +0.000 OA
DOCKED: ATOM     11  H   UNL     1      37.439   7.451 122.366 -0.14 -0.00    +0.000 HD
DOCKED: ENDBRANCH   8  10
DOCKED: ENDBRANCH   5   7
DOCKED: ENDBRANCH   4   5
DOCKED: ENDBRANCH   3   4
DOCKED: ENDBRANCH   2   3
DOCKED: ENDBRANCH   1   2
DOCKED: BRANCH   1  12
DOCKED: ATOM     12  C   UNL     1      37.463  12.427 119.793 -0.47 -0.00    +0.000 C 
DOCKED: BRANCH  12  13
DOCKED: ATOM     13  C   UNL     1      37.154  13.060 118.468 -0.37 -0.00    +0.000 C 
DOCKED: ATOM     14  N   UNL     1      37.911  12.699 117.303 -0.33 -0.00    +0.000 N 
DOCKED: ATOM     15  O   UNL     1      36.231  13.916 118.393 -0.41 -0.00    +0.000 OA
DOCKED: ATOM     16  H   UNL     1      38.398  11.843 117.315 -0.12 -0.00    +0.000 HD
DOCKED: BRANCH  14  17
DOCKED: ATOM     17  C   UNL     1      38.006  13.510 116.119 -0.40 -0.00    +0.000 A 
DOCKED: ATOM     18  C   UNL     1      36.914  13.587 115.243 -0.32 -0.00    +0.000 A 
DOCKED: ATOM     19  C   UNL     1      37.003  14.344 114.074 -0.25 -0.00    +0.000 A 
DOCKED: ATOM     20  C   UNL     1      38.196  15.006 113.779 -0.18 -0.00    +0.000 A 
DOCKED: ATOM     21  N   UNL     1      39.258  14.903 114.621 -0.28 -0.00    +0.000 NA
DOCKED: ATOM     22  C   UNL     1      39.194  14.178 115.769 -0.36 -0.00    +0.000 A 
DOCKED: ATOM     23  CM  UNL     1      38.126  14.272 114.926 +0.00 -0.00    +0.000 AC
DOCKED: ENDBRANCH  14  17
DOCKED: ENDBRANCH  12  13
DOCKED: ENDBRANCH   1  12
DOCKED: TORSDOF 9DOCKED: TER
DOCKED: ENDMDL
________________________________________________________________________________


	BEGINNING GENETIC ALGORITHM DOCKING 95 of 100
Run: 95 Seed: 1740018345 1884493966 [ Run 95 of 100 GA/GALS ]
Beginning LAMARCKIAN GENETIC ALGORITHM (LGA), with a maximum of 2500000 energy evaluations.

Final-Value: -13.635


	FINAL GENETIC ALGORITHM DOCKED STATE
	_______________________________________________


Detailed state:  trans 36.975 16.285 124.923 quatxyzw 0.152212 -0.379844 -0.906735 0.101887 center -0.029 -0.207 0.469 ntor 9 73.2919 179.9760 -180.0000 38.5475 140.8120 170.0070 88.5754 116.8081 -76.8958
State:	 36.975  16.285 124.923   0.153 -0.382 -0.911 168.304     73.29  179.98 -180.00   38.55  140.81  170.01   88.58  116.81  -76.90

DOCKED: MODEL       95
DOCKED: USER    Run = 95
DOCKED: USER    DPF = ligand_dock.biased.dpf
DOCKED: USER  
DOCKED: USER    Estimated Free Energy of Binding    =  -10.07 kcal/mol  [=(1)+(2)+(3)-(4)]
DOCKED: USER    Estimated Inhibition Constant, Ki   =   41.48 nM (nanomolar)  [Temperature = 298.15 K]
DOCKED: USER    
DOCKED: USER    (1) Final Intermolecular Energy     =  -12.76 kcal/mol
DOCKED: USER        vdW + Hbond + desolv Energy     =  -12.76 kcal/mol
DOCKED: USER        Electrostatic Energy            =   +0.00 kcal/mol
DOCKED: USER    (2) Final Total Internal Energy     =   -0.88 kcal/mol
DOCKED: USER    (3) Torsional Free Energy           =   +2.68 kcal/mol
DOCKED: USER    (4) Unbound System's Energy  [=(2)] =   -0.88 kcal/mol
DOCKED: USER    
DOCKED: USER    
DOCKED: USER    NEWDPF move ligand.dum.pdbqt
DOCKED: USER    NEWDPF about -0.029000 -0.207000 0.469000
DOCKED: USER    NEWDPF tran0 36.975149 16.285192 124.922819
DOCKED: USER    NEWDPF quaternion0 0.152212 -0.379844 -0.906735 0.101887
DOCKED: USER    NEWDPF axisangle0 0.153009 -0.381831 -0.911479 168.304306
DOCKED: USER    NEWDPF quat0 0.153009 -0.381831 -0.911479 168.304306
DOCKED: USER    NEWDPF dihe0 73.29 179.98 -180.00 38.55 140.81 170.01 88.58 116.81 -76.90 
DOCKED: USER  keepresnum = 1 
DOCKED: USER  
DOCKED: REMARK  Name = 
DOCKED: REMARK  9 active torsions:
DOCKED: REMARK  status: ('A' for Active; 'I' for Inactive)
DOCKED: REMARK    1  A    between atoms: C_2  and  C_5
DOCKED: REMARK    2  A    between atoms: N_3  and  O_4
DOCKED: REMARK    3  A    between atoms: C_5  and  C_6
DOCKED: REMARK    4  A    between atoms: C_6  and  C_7
DOCKED: REMARK    5  A    between atoms: C_7  and  C_8
DOCKED: REMARK    6  A    between atoms: C_8  and  C_9
DOCKED: REMARK    7  A    between atoms: C_9  and  C_10
DOCKED: REMARK    8  A    between atoms: C_10  and  C_11
DOCKED: REMARK    9  A    between atoms: N_12  and  C_13
DOCKED: REMARK                            x       y       z     vdW  Elec       q    Type
DOCKED: REMARK                         _______ _______ _______ _____ _____    ______ ____
DOCKED: USER                              x       y       z     vdW  Elec       q    Type
DOCKED: USER                           _______ _______ _______ _____ _____    ______ ____
DOCKED: ROOT
DOCKED: ATOM      1  C   UNL     1      37.785  14.408 122.451 -0.45 -0.00    +0.000 C 
DOCKED: ENDROOT
DOCKED: BRANCH   1   2
DOCKED: ATOM      2  C   UNL     1      36.678  14.211 123.497 -0.51 -0.00    +0.000 C 
DOCKED: BRANCH   2   3
DOCKED: ATOM      3  C   UNL     1      36.228  12.745 123.555 -0.65 -0.00    +0.000 C 
DOCKED: BRANCH   3   4
DOCKED: ATOM      4  C   UNL     1      36.692  11.931 122.332 -0.62 -0.00    +0.000 C 
DOCKED: BRANCH   4   5
DOCKED: ATOM      5  C   UNL     1      35.792  10.732 121.990 -0.50 -0.00    +0.000 C 
DOCKED: BRANCH   5   7
DOCKED: ATOM      6  O   UNL     1      36.892   8.840 121.028 -2.66 -0.00    +0.000 OA
DOCKED: ATOM      7  C   UNL     1      36.529   9.427 122.083 -0.69 -0.00    +0.000 C 
DOCKED: ATOM      8  N   UNL     1      36.793   8.832 123.356 -0.62 -0.00    +0.000 N 
DOCKED: ATOM      9  H   UNL     1      36.502   9.290 124.178 -0.41 -0.00    +0.000 HD
DOCKED: BRANCH   8  10
DOCKED: ATOM     10  O   UNL     1      37.440   7.647 123.442 -2.14 -0.00    +0.000 OA
DOCKED: ATOM     11  H   UNL     1      38.379   7.775 123.237 -0.48 -0.00    +0.000 HD
DOCKED: ENDBRANCH   8  10
DOCKED: ENDBRANCH   5   7
DOCKED: ENDBRANCH   4   5
DOCKED: ENDBRANCH   3   4
DOCKED: ENDBRANCH   2   3
DOCKED: ENDBRANCH   1   2
DOCKED: BRANCH   1  12
DOCKED: ATOM     12  C   UNL     1      39.189  14.278 123.059 -0.13 -0.00    +0.000 C 
DOCKED: BRANCH  12  13
DOCKED: ATOM     13  C   UNL     1      40.167  15.191 122.380 -0.43 -0.00    +0.000 C 
DOCKED: ATOM     14  N   UNL     1      41.549  14.817 122.277 -0.50 -0.00    +0.000 N 
DOCKED: ATOM     15  O   UNL     1      39.764  16.290 121.911 -0.22 -0.00    +0.000 OA
DOCKED: ATOM     16  H   UNL     1      41.778  13.863 122.367 -0.06 +0.00    +0.000 HD
DOCKED: BRANCH  14  17
DOCKED: ATOM     17  C   UNL     1      42.623  15.747 122.050 -0.36 -0.00    +0.000 A 
DOCKED: ATOM     18  C   UNL     1      43.362  15.675 120.862 -0.24 -0.00    +0.000 A 
DOCKED: ATOM     19  C   UNL     1      44.427  16.551 120.643 -0.20 -0.00    +0.000 A 
DOCKED: ATOM     20  C   UNL     1      44.757  17.483 121.628 -0.20 -0.00    +0.000 A 
DOCKED: ATOM     21  N   UNL     1      44.051  17.527 122.788 -0.30 -0.00    +0.000 NA
DOCKED: ATOM     22  C   UNL     1      43.005  16.690 123.022 -0.38 -0.00    +0.000 A 
DOCKED: ATOM     23  CM  UNL     1      43.713  16.637 121.858 +0.00 -0.00    +0.000 AC
DOCKED: ENDBRANCH  14  17
DOCKED: ENDBRANCH  12  13
DOCKED: ENDBRANCH   1  12
DOCKED: TORSDOF 9DOCKED: TER
DOCKED: ENDMDL
________________________________________________________________________________


	BEGINNING GENETIC ALGORITHM DOCKING 96 of 100
Run: 96 Seed: 273822671 1009021083 [ Run 96 of 100 GA/GALS ]
Beginning LAMARCKIAN GENETIC ALGORITHM (LGA), with a maximum of 2500000 energy evaluations.

Final-Value: -13.805


	FINAL GENETIC ALGORITHM DOCKED STATE
	_______________________________________________


Detailed state:  trans 39.058 11.842 122.787 quatxyzw -0.612270 0.065659 -0.412678 0.671201 center -0.029 -0.207 0.469 ntor 9 5.9686 179.8453 145.1775 -153.2550 137.3448 -106.4944 -179.3773 74.0385 -104.7606
State:	 39.058  11.842 122.787  -0.826  0.089 -0.557 95.680      5.97  179.85  145.18 -153.26  137.34 -106.49 -179.38   74.04 -104.76

DOCKED: MODEL       96
DOCKED: USER    Run = 96
DOCKED: USER    DPF = ligand_dock.biased.dpf
DOCKED: USER  
DOCKED: USER    Estimated Free Energy of Binding    =  -10.00 kcal/mol  [=(1)+(2)+(3)-(4)]
DOCKED: USER    Estimated Inhibition Constant, Ki   =   46.81 nM (nanomolar)  [Temperature = 298.15 K]
DOCKED: USER    
DOCKED: USER    (1) Final Intermolecular Energy     =  -12.68 kcal/mol
DOCKED: USER        vdW + Hbond + desolv Energy     =  -12.68 kcal/mol
DOCKED: USER        Electrostatic Energy            =   +0.00 kcal/mol
DOCKED: USER    (2) Final Total Internal Energy     =   -1.12 kcal/mol
DOCKED: USER    (3) Torsional Free Energy           =   +2.68 kcal/mol
DOCKED: USER    (4) Unbound System's Energy  [=(2)] =   -1.12 kcal/mol
DOCKED: USER    
DOCKED: USER    
DOCKED: USER    NEWDPF move ligand.dum.pdbqt
DOCKED: USER    NEWDPF about -0.029000 -0.207000 0.469000
DOCKED: USER    NEWDPF tran0 39.058212 11.842205 122.787467
DOCKED: USER    NEWDPF quaternion0 -0.612270 0.065659 -0.412678 0.671201
DOCKED: USER    NEWDPF axisangle0 -0.825969 0.088575 -0.556713 95.680322
DOCKED: USER    NEWDPF quat0 -0.825969 0.088575 -0.556713 95.680322
DOCKED: USER    NEWDPF dihe0 5.97 179.85 145.18 -153.26 137.34 -106.49 -179.38 74.04 -104.76 
DOCKED: USER  keepresnum = 1 
DOCKED: USER  
DOCKED: REMARK  Name = 
DOCKED: REMARK  9 active torsions:
DOCKED: REMARK  status: ('A' for Active; 'I' for Inactive)
DOCKED: REMARK    1  A    between atoms: C_2  and  C_5
DOCKED: REMARK    2  A    between atoms: N_3  and  O_4
DOCKED: REMARK    3  A    between atoms: C_5  and  C_6
DOCKED: REMARK    4  A    between atoms: C_6  and  C_7
DOCKED: REMARK    5  A    between atoms: C_7  and  C_8
DOCKED: REMARK    6  A    between atoms: C_8  and  C_9
DOCKED: REMARK    7  A    between atoms: C_9  and  C_10
DOCKED: REMARK    8  A    between atoms: C_10  and  C_11
DOCKED: REMARK    9  A    between atoms: N_12  and  C_13
DOCKED: REMARK                            x       y       z     vdW  Elec       q    Type
DOCKED: REMARK                         _______ _______ _______ _____ _____    ______ ____
DOCKED: USER                              x       y       z     vdW  Elec       q    Type
DOCKED: USER                           _______ _______ _______ _____ _____    ______ ____
DOCKED: ROOT
DOCKED: ATOM      1  C   UNL     1      38.097  14.653 121.578 -0.37 -0.00    +0.000 C 
DOCKED: ENDROOT
DOCKED: BRANCH   1   2
DOCKED: ATOM      2  C   UNL     1      38.109  14.178 123.039 -0.47 -0.00    +0.000 C 
DOCKED: BRANCH   2   3
DOCKED: ATOM      3  C   UNL     1      37.076  13.066 123.265 -0.60 -0.00    +0.000 C 
DOCKED: BRANCH   3   4
DOCKED: ATOM      4  C   UNL     1      37.439  11.758 122.538 -0.40 -0.00    +0.000 C 
DOCKED: BRANCH   4   5
DOCKED: ATOM      5  C   UNL     1      36.241  10.840 122.247 -0.65 -0.00    +0.000 C 
DOCKED: BRANCH   5   7
DOCKED: ATOM      6  O   UNL     1      36.724   8.844 121.022 -2.62 -0.00    +0.000 OA
DOCKED: ATOM      7  C   UNL     1      36.644   9.396 122.153 -0.71 -0.00    +0.000 C 
DOCKED: ATOM      8  N   UNL     1      36.909   8.639 123.336 -0.66 -0.00    +0.000 N 
DOCKED: ATOM      9  H   UNL     1      36.841   9.071 124.218 -0.50 -0.00    +0.000 HD
DOCKED: BRANCH   8  10
DOCKED: ATOM     10  O   UNL     1      37.255   7.332 123.255 -2.03 -0.00    +0.000 OA
DOCKED: ATOM     11  H   UNL     1      37.369   7.085 122.324 -0.19 -0.00    +0.000 HD
DOCKED: ENDBRANCH   8  10
DOCKED: ENDBRANCH   5   7
DOCKED: ENDBRANCH   4   5
DOCKED: ENDBRANCH   3   4
DOCKED: ENDBRANCH   2   3
DOCKED: ENDBRANCH   1   2
DOCKED: BRANCH   1  12
DOCKED: ATOM     12  C   UNL     1      37.070  13.893 120.728 -0.34 -0.00    +0.000 C 
DOCKED: BRANCH  12  13
DOCKED: ATOM     13  C   UNL     1      37.168  14.273 119.280 -0.34 -0.00    +0.000 C 
DOCKED: ATOM     14  N   UNL     1      36.479  13.501 118.284 -0.40 -0.00    +0.000 N 
DOCKED: ATOM     15  O   UNL     1      37.868  15.268 118.948 -0.21 -0.00    +0.000 OA
DOCKED: ATOM     16  H   UNL     1      35.723  12.941 118.576 -0.15 -0.00    +0.000 HD
DOCKED: BRANCH  14  17
DOCKED: ATOM     17  C   UNL     1      36.824  13.492 116.888 -0.34 -0.00    +0.000 A 
DOCKED: ATOM     18  C   UNL     1      38.142  13.215 116.502 -0.37 -0.00    +0.000 A 
DOCKED: ATOM     19  C   UNL     1      38.498  13.235 115.152 -0.46 -0.00    +0.000 A 
DOCKED: ATOM     20  C   UNL     1      37.531  13.551 114.197 -0.33 -0.00    +0.000 A 
DOCKED: ATOM     21  N   UNL     1      36.262  13.845 114.583 -0.29 -0.00    +0.000 NA
DOCKED: ATOM     22  C   UNL     1      35.889  13.826 115.890 -0.26 -0.00    +0.000 A 
DOCKED: ATOM     23  CM  UNL     1      37.166  13.536 115.510 +0.00 -0.00    +0.000 AC
DOCKED: ENDBRANCH  14  17
DOCKED: ENDBRANCH  12  13
DOCKED: ENDBRANCH   1  12
DOCKED: TORSDOF 9DOCKED: TER
DOCKED: ENDMDL
________________________________________________________________________________


	BEGINNING GENETIC ALGORITHM DOCKING 97 of 100
Run: 97 Seed: 1820310959 334601857 [ Run 97 of 100 GA/GALS ]
Beginning LAMARCKIAN GENETIC ALGORITHM (LGA), with a maximum of 2500000 energy evaluations.

Final-Value: -13.884


	FINAL GENETIC ALGORITHM DOCKED STATE
	_______________________________________________


Detailed state:  trans 35.938 13.137 121.577 quatxyzw 0.931900 -0.121229 -0.070008 -0.334610 center -0.029 -0.207 0.469 ntor 9 17.4140 46.7637 128.6642 1.7667 -156.4328 10.5952 -134.9897 138.2117 -178.7685
State:	 35.938  13.137 121.577   0.989 -0.129 -0.074 -140.902     17.41   46.76  128.66    1.77 -156.43   10.60 -134.99  138.21 -178.77

DOCKED: MODEL       97
DOCKED: USER    Run = 97
DOCKED: USER    DPF = ligand_dock.biased.dpf
DOCKED: USER  
DOCKED: USER    Estimated Free Energy of Binding    =  -10.00 kcal/mol  [=(1)+(2)+(3)-(4)]
DOCKED: USER    Estimated Inhibition Constant, Ki   =   46.61 nM (nanomolar)  [Temperature = 298.15 K]
DOCKED: USER    
DOCKED: USER    (1) Final Intermolecular Energy     =  -12.69 kcal/mol
DOCKED: USER        vdW + Hbond + desolv Energy     =  -12.69 kcal/mol
DOCKED: USER        Electrostatic Energy            =   +0.00 kcal/mol
DOCKED: USER    (2) Final Total Internal Energy     =   -1.20 kcal/mol
DOCKED: USER    (3) Torsional Free Energy           =   +2.68 kcal/mol
DOCKED: USER    (4) Unbound System's Energy  [=(2)] =   -1.20 kcal/mol
DOCKED: USER    
DOCKED: USER    
DOCKED: USER    NEWDPF move ligand.dum.pdbqt
DOCKED: USER    NEWDPF about -0.029000 -0.207000 0.469000
DOCKED: USER    NEWDPF tran0 35.937616 13.137264 121.576630
DOCKED: USER    NEWDPF quaternion0 0.931900 -0.121229 -0.070008 -0.334610
DOCKED: USER    NEWDPF axisangle0 0.988904 -0.128645 -0.074290 -140.902313
DOCKED: USER    NEWDPF quat0 0.988904 -0.128645 -0.074290 -140.902313
DOCKED: USER    NEWDPF dihe0 17.41 46.76 128.66 1.77 -156.43 10.60 -134.99 138.21 -178.77 
DOCKED: USER  keepresnum = 1 
DOCKED: USER  
DOCKED: REMARK  Name = 
DOCKED: REMARK  9 active torsions:
DOCKED: REMARK  status: ('A' for Active; 'I' for Inactive)
DOCKED: REMARK    1  A    between atoms: C_2  and  C_5
DOCKED: REMARK    2  A    between atoms: N_3  and  O_4
DOCKED: REMARK    3  A    between atoms: C_5  and  C_6
DOCKED: REMARK    4  A    between atoms: C_6  and  C_7
DOCKED: REMARK    5  A    between atoms: C_7  and  C_8
DOCKED: REMARK    6  A    between atoms: C_8  and  C_9
DOCKED: REMARK    7  A    between atoms: C_9  and  C_10
DOCKED: REMARK    8  A    between atoms: C_10  and  C_11
DOCKED: REMARK    9  A    between atoms: N_12  and  C_13
DOCKED: REMARK                            x       y       z     vdW  Elec       q    Type
DOCKED: REMARK                         _______ _______ _______ _____ _____    ______ ____
DOCKED: USER                              x       y       z     vdW  Elec       q    Type
DOCKED: USER                           _______ _______ _______ _____ _____    ______ ____
DOCKED: ROOT
DOCKED: ATOM      1  C   UNL     1      36.697  15.483 123.628 -0.39 -0.00    +0.000 C 
DOCKED: ENDROOT
DOCKED: BRANCH   1   2
DOCKED: ATOM      2  C   UNL     1      36.950  13.972 123.745 -0.39 -0.00    +0.000 C 
DOCKED: BRANCH   2   3
DOCKED: ATOM      3  C   UNL     1      35.946  13.178 122.898 -0.38 -0.00    +0.000 C 
DOCKED: BRANCH   3   4
DOCKED: ATOM      4  C   UNL     1      36.085  11.655 123.080 -0.69 -0.00    +0.000 C 
DOCKED: BRANCH   4   5
DOCKED: ATOM      5  C   UNL     1      37.060  10.985 122.097 -0.55 -0.00    +0.000 C 
DOCKED: BRANCH   5   7
DOCKED: ATOM      6  O   UNL     1      36.712   8.840 121.102 -2.62 -0.00    +0.000 OA
DOCKED: ATOM      7  C   UNL     1      36.977   9.487 122.151 -0.64 -0.00    +0.000 C 
DOCKED: ATOM      8  N   UNL     1      37.165   8.794 123.388 -0.60 -0.00    +0.000 N 
DOCKED: ATOM      9  H   UNL     1      37.365   9.303 124.206 -0.62 -0.00    +0.000 HD
DOCKED: BRANCH   8  10
DOCKED: ATOM     10  O   UNL     1      37.071   7.445 123.443 -2.15 -0.00    +0.000 OA
DOCKED: ATOM     11  H   UNL     1      37.146   7.079 122.548 -0.13 -0.00    +0.000 HD
DOCKED: ENDBRANCH   8  10
DOCKED: ENDBRANCH   5   7
DOCKED: ENDBRANCH   4   5
DOCKED: ENDBRANCH   3   4
DOCKED: ENDBRANCH   2   3
DOCKED: ENDBRANCH   1   2
DOCKED: BRANCH   1  12
DOCKED: ATOM     12  C   UNL     1      35.205  15.831 123.723 -0.50 -0.00    +0.000 C 
DOCKED: BRANCH  12  13
DOCKED: ATOM     13  C   UNL     1      34.894  16.573 124.990 -0.41 -0.00    +0.000 C 
DOCKED: ATOM     14  N   UNL     1      33.844  16.113 125.855 -0.48 -0.00    +0.000 N 
DOCKED: ATOM     15  O   UNL     1      35.557  17.606 125.279 -0.31 -0.00    +0.000 OA
DOCKED: ATOM     16  H   UNL     1      33.558  15.174 125.775 -0.09 -0.00    +0.000 HD
DOCKED: BRANCH  14  17
DOCKED: ATOM     17  C   UNL     1      33.183  16.937 126.831 -0.32 -0.00    +0.000 A 
DOCKED: ATOM     18  C   UNL     1      32.642  16.349 127.982 -0.40 -0.00    +0.000 A 
DOCKED: ATOM     19  C   UNL     1      31.969  17.133 128.921 -0.35 -0.00    +0.000 A 
DOCKED: ATOM     20  C   UNL     1      31.827  18.502 128.691 -0.20 -0.00    +0.000 A 
DOCKED: ATOM     21  N   UNL     1      32.332  19.058 127.559 -0.22 -0.00    +0.000 NA
DOCKED: ATOM     22  C   UNL     1      32.997  18.318 126.633 -0.24 -0.00    +0.000 A 
DOCKED: ATOM     23  CM  UNL     1      32.487  17.752 127.764 +0.00 -0.00    +0.000 AC
DOCKED: ENDBRANCH  14  17
DOCKED: ENDBRANCH  12  13
DOCKED: ENDBRANCH   1  12
DOCKED: TORSDOF 9DOCKED: TER
DOCKED: ENDMDL
________________________________________________________________________________


	BEGINNING GENETIC ALGORITHM DOCKING 98 of 100
Run: 98 Seed: 136855010 1456980342 [ Run 98 of 100 GA/GALS ]
Beginning LAMARCKIAN GENETIC ALGORITHM (LGA), with a maximum of 2500000 energy evaluations.

Final-Value: -13.946


	FINAL GENETIC ALGORITHM DOCKED STATE
	_______________________________________________


Detailed state:  trans 37.034 14.627 119.030 quatxyzw 0.604531 -0.769381 -0.133502 -0.157393 center -0.029 -0.207 0.469 ntor 9 11.7984 -176.0232 113.4006 -126.3605 -174.7660 107.1586 55.5183 -40.5495 110.7626
State:	 37.034  14.627 119.030   0.612 -0.779 -0.135 -161.889     11.80 -176.02  113.40 -126.36 -174.77  107.16   55.52  -40.55  110.76

DOCKED: MODEL       98
DOCKED: USER    Run = 98
DOCKED: USER    DPF = ligand_dock.biased.dpf
DOCKED: USER  
DOCKED: USER    Estimated Free Energy of Binding    =   -9.66 kcal/mol  [=(1)+(2)+(3)-(4)]
DOCKED: USER    Estimated Inhibition Constant, Ki   =   82.83 nM (nanomolar)  [Temperature = 298.15 K]
DOCKED: USER    
DOCKED: USER    (1) Final Intermolecular Energy     =  -12.35 kcal/mol
DOCKED: USER        vdW + Hbond + desolv Energy     =  -12.35 kcal/mol
DOCKED: USER        Electrostatic Energy            =   +0.00 kcal/mol
DOCKED: USER    (2) Final Total Internal Energy     =   -1.60 kcal/mol
DOCKED: USER    (3) Torsional Free Energy           =   +2.68 kcal/mol
DOCKED: USER    (4) Unbound System's Energy  [=(2)] =   -1.60 kcal/mol
DOCKED: USER    
DOCKED: USER    
DOCKED: USER    NEWDPF move ligand.dum.pdbqt
DOCKED: USER    NEWDPF about -0.029000 -0.207000 0.469000
DOCKED: USER    NEWDPF tran0 37.033557 14.626959 119.029546
DOCKED: USER    NEWDPF quaternion0 0.604531 -0.769381 -0.133502 -0.157393
DOCKED: USER    NEWDPF axisangle0 0.612161 -0.779091 -0.135187 -161.888803
DOCKED: USER    NEWDPF quat0 0.612161 -0.779091 -0.135187 -161.888803
DOCKED: USER    NEWDPF dihe0 11.80 -176.02 113.40 -126.36 -174.77 107.16 55.52 -40.55 110.76 
DOCKED: USER  keepresnum = 1 
DOCKED: USER  
DOCKED: REMARK  Name = 
DOCKED: REMARK  9 active torsions:
DOCKED: REMARK  status: ('A' for Active; 'I' for Inactive)
DOCKED: REMARK    1  A    between atoms: C_2  and  C_5
DOCKED: REMARK    2  A    between atoms: N_3  and  O_4
DOCKED: REMARK    3  A    between atoms: C_5  and  C_6
DOCKED: REMARK    4  A    between atoms: C_6  and  C_7
DOCKED: REMARK    5  A    between atoms: C_7  and  C_8
DOCKED: REMARK    6  A    between atoms: C_8  and  C_9
DOCKED: REMARK    7  A    between atoms: C_9  and  C_10
DOCKED: REMARK    8  A    between atoms: C_10  and  C_11
DOCKED: REMARK    9  A    between atoms: N_12  and  C_13
DOCKED: REMARK                            x       y       z     vdW  Elec       q    Type
DOCKED: REMARK                         _______ _______ _______ _____ _____    ______ ____
DOCKED: USER                              x       y       z     vdW  Elec       q    Type
DOCKED: USER                           _______ _______ _______ _____ _____    ______ ____
DOCKED: ROOT
DOCKED: ATOM      1  C   UNL     1      38.819  14.457 121.689 -0.40 -0.00    +0.000 C 
DOCKED: ENDROOT
DOCKED: BRANCH   1   2
DOCKED: ATOM      2  C   UNL     1      37.336  14.107 121.491 -0.39 -0.00    +0.000 C 
DOCKED: BRANCH   2   3
DOCKED: ATOM      3  C   UNL     1      36.795  13.306 122.684 -0.55 -0.00    +0.000 C 
DOCKED: BRANCH   3   4
DOCKED: ATOM      4  C   UNL     1      37.204  11.821 122.639 -0.55 -0.00    +0.000 C 
DOCKED: BRANCH   4   5
DOCKED: ATOM      5  C   UNL     1      36.053  10.855 122.313 -0.66 -0.00    +0.000 C 
DOCKED: BRANCH   5   7
DOCKED: ATOM      6  O   UNL     1      36.709   8.962 121.010 -2.62 -0.00    +0.000 OA
DOCKED: ATOM      7  C   UNL     1      36.529   9.439 122.163 -0.70 -0.00    +0.000 C 
DOCKED: ATOM      8  N   UNL     1      36.751   8.622 123.315 -0.66 -0.00    +0.000 N 
DOCKED: ATOM      9  H   UNL     1      36.603   8.996 124.214 -0.43 -0.00    +0.000 HD
DOCKED: BRANCH   8  10
DOCKED: ATOM     10  O   UNL     1      37.161   7.339 123.182 -2.09 -0.00    +0.000 OA
DOCKED: ATOM     11  H   UNL     1      37.436   7.181 122.266 -0.18 -0.00    +0.000 HD
DOCKED: ENDBRANCH   8  10
DOCKED: ENDBRANCH   5   7
DOCKED: ENDBRANCH   4   5
DOCKED: ENDBRANCH   3   4
DOCKED: ENDBRANCH   2   3
DOCKED: ENDBRANCH   1   2
DOCKED: BRANCH   1  12
DOCKED: ATOM     12  C   UNL     1      39.082  15.964 121.563 -0.24 -0.00    +0.000 C 
DOCKED: BRANCH  12  13
DOCKED: ATOM     13  C   UNL     1      38.010  16.766 122.239 -0.20 -0.00    +0.000 C 
DOCKED: ATOM     14  N   UNL     1      37.675  16.508 123.611 -0.27 -0.00    +0.000 N 
DOCKED: ATOM     15  O   UNL     1      37.402  17.659 121.588 -0.12 -0.00    +0.000 OA
DOCKED: ATOM     16  H   UNL     1      38.339  16.043 124.170 -0.03 -0.00    +0.000 HD
DOCKED: BRANCH  14  17
DOCKED: ATOM     17  C   UNL     1      36.429  16.886 124.223 -0.23 -0.00    +0.000 A 
DOCKED: ATOM     18  C   UNL     1      35.290  16.094 124.021 -0.43 -0.00    +0.000 A 
DOCKED: ATOM     19  C   UNL     1      34.067  16.466 124.581 -0.43 -0.00    +0.000 A 
DOCKED: ATOM     20  C   UNL     1      33.989  17.642 125.329 -0.36 -0.00    +0.000 A 
DOCKED: ATOM     21  N   UNL     1      35.093  18.417 125.497 -0.25 -0.00    +0.000 NA
DOCKED: ATOM     22  C   UNL     1      36.296  18.073 124.966 -0.20 -0.00    +0.000 A 
DOCKED: ATOM     23  CM  UNL     1      35.191  17.294 124.789 -0.37 -0.00    +0.000 AC
DOCKED: ENDBRANCH  14  17
DOCKED: ENDBRANCH  12  13
DOCKED: ENDBRANCH   1  12
DOCKED: TORSDOF 9DOCKED: TER
DOCKED: ENDMDL
________________________________________________________________________________


	BEGINNING GENETIC ALGORITHM DOCKING 99 of 100
Run: 99 Seed: 1304399611 1635988634 [ Run 99 of 100 GA/GALS ]
Beginning LAMARCKIAN GENETIC ALGORITHM (LGA), with a maximum of 2500000 energy evaluations.

Final-Value: -14.107


	FINAL GENETIC ALGORITHM DOCKED STATE
	_______________________________________________


Detailed state:  trans 39.268 15.093 123.968 quatxyzw 0.527291 0.179337 0.828508 -0.058107 center -0.029 -0.207 0.469 ntor 9 -0.5997 166.8205 -179.8672 160.1488 151.9822 -114.2735 113.2526 -113.0009 17.6242
State:	 39.268  15.093 123.968   0.528  0.180  0.830 -173.338     -0.60  166.82 -179.87  160.15  151.98 -114.27  113.25 -113.00   17.62

DOCKED: MODEL       99
DOCKED: USER    Run = 99
DOCKED: USER    DPF = ligand_dock.biased.dpf
DOCKED: USER  
DOCKED: USER    Estimated Free Energy of Binding    =  -10.41 kcal/mol  [=(1)+(2)+(3)-(4)]
DOCKED: USER    Estimated Inhibition Constant, Ki   =   23.34 nM (nanomolar)  [Temperature = 298.15 K]
DOCKED: USER    
DOCKED: USER    (1) Final Intermolecular Energy     =  -13.10 kcal/mol
DOCKED: USER        vdW + Hbond + desolv Energy     =  -13.10 kcal/mol
DOCKED: USER        Electrostatic Energy            =   +0.00 kcal/mol
DOCKED: USER    (2) Final Total Internal Energy     =   -1.01 kcal/mol
DOCKED: USER    (3) Torsional Free Energy           =   +2.68 kcal/mol
DOCKED: USER    (4) Unbound System's Energy  [=(2)] =   -1.01 kcal/mol
DOCKED: USER    
DOCKED: USER    
DOCKED: USER    NEWDPF move ligand.dum.pdbqt
DOCKED: USER    NEWDPF about -0.029000 -0.207000 0.469000
DOCKED: USER    NEWDPF tran0 39.268088 15.092796 123.967917
DOCKED: USER    NEWDPF quaternion0 0.527291 0.179337 0.828508 -0.058107
DOCKED: USER    NEWDPF axisangle0 0.528183 0.179641 0.829911 -173.337632
DOCKED: USER    NEWDPF quat0 0.528183 0.179641 0.829911 -173.337632
DOCKED: USER    NEWDPF dihe0 -0.60 166.82 -179.87 160.15 151.98 -114.27 113.25 -113.00 17.62 
DOCKED: USER  keepresnum = 1 
DOCKED: USER  
DOCKED: REMARK  Name = 
DOCKED: REMARK  9 active torsions:
DOCKED: REMARK  status: ('A' for Active; 'I' for Inactive)
DOCKED: REMARK    1  A    between atoms: C_2  and  C_5
DOCKED: REMARK    2  A    between atoms: N_3  and  O_4
DOCKED: REMARK    3  A    between atoms: C_5  and  C_6
DOCKED: REMARK    4  A    between atoms: C_6  and  C_7
DOCKED: REMARK    5  A    between atoms: C_7  and  C_8
DOCKED: REMARK    6  A    between atoms: C_8  and  C_9
DOCKED: REMARK    7  A    between atoms: C_9  and  C_10
DOCKED: REMARK    8  A    between atoms: C_10  and  C_11
DOCKED: REMARK    9  A    between atoms: N_12  and  C_13
DOCKED: REMARK                            x       y       z     vdW  Elec       q    Type
DOCKED: REMARK                         _______ _______ _______ _____ _____    ______ ____
DOCKED: USER                              x       y       z     vdW  Elec       q    Type
DOCKED: USER                           _______ _______ _______ _____ _____    ______ ____
DOCKED: ROOT
DOCKED: ATOM      1  C   UNL     1      36.397  14.877 122.554 -0.33 -0.00    +0.000 C 
DOCKED: ENDROOT
DOCKED: BRANCH   1   2
DOCKED: ATOM      2  C   UNL     1      36.913  14.171 123.817 -0.36 -0.00    +0.000 C 
DOCKED: BRANCH   2   3
DOCKED: ATOM      3  C   UNL     1      36.518  12.687 123.819 -0.63 -0.00    +0.000 C 
DOCKED: BRANCH   3   4
DOCKED: ATOM      4  C   UNL     1      37.088  11.918 122.612 -0.61 -0.00    +0.000 C 
DOCKED: BRANCH   4   5
DOCKED: ATOM      5  C   UNL     1      36.133  10.867 122.022 -0.58 -0.00    +0.000 C 
DOCKED: BRANCH   5   7
DOCKED: ATOM      6  O   UNL     1      36.937   8.836 121.050 -2.67 -0.00    +0.000 OA
DOCKED: ATOM      7  C   UNL     1      36.698   9.478 122.108 -0.70 -0.00    +0.000 C 
DOCKED: ATOM      8  N   UNL     1      36.938   8.870 123.380 -0.61 -0.00    +0.000 N 
DOCKED: ATOM      9  H   UNL     1      36.745   9.373 124.205 -0.49 -0.00    +0.000 HD
DOCKED: BRANCH   8  10
DOCKED: ATOM     10  O   UNL     1      37.429   7.612 123.461 -2.13 -0.00    +0.000 OA
DOCKED: ATOM     11  H   UNL     1      37.555   7.256 122.568 -0.24 -0.00    +0.000 HD
DOCKED: ENDBRANCH   8  10
DOCKED: ENDBRANCH   5   7
DOCKED: ENDBRANCH   4   5
DOCKED: ENDBRANCH   3   4
DOCKED: ENDBRANCH   2   3
DOCKED: ENDBRANCH   1   2
DOCKED: BRANCH   1  12
DOCKED: ATOM     12  C   UNL     1      37.102  14.384 121.283 -0.32 -0.00    +0.000 C 
DOCKED: BRANCH  12  13
DOCKED: ATOM     13  C   UNL     1      38.594  14.446 121.425 -0.38 -0.00    +0.000 C 
DOCKED: ATOM     14  N   UNL     1      39.188  15.274 122.437 -0.34 -0.00    +0.000 N 
DOCKED: ATOM     15  O   UNL     1      39.318  13.772 120.643 -0.44 -0.00    +0.000 OA
DOCKED: ATOM     16  H   UNL     1      38.629  15.540 123.203 -0.02 -0.00    +0.000 HD
DOCKED: BRANCH  14  17
DOCKED: ATOM     17  C   UNL     1      40.547  15.743 122.401 -0.35 -0.00    +0.000 A 
DOCKED: ATOM     18  C   UNL     1      41.332  15.506 121.265 -0.20 -0.00    +0.000 A 
DOCKED: ATOM     19  C   UNL     1      42.663  15.926 121.230 -0.27 -0.00    +0.000 A 
DOCKED: ATOM     20  C   UNL     1      43.205  16.568 122.344 -0.35 -0.00    +0.000 A 
DOCKED: ATOM     21  N   UNL     1      42.444  16.769 123.451 -0.94 -0.00    +0.000 NA
DOCKED: ATOM     22  C   UNL     1      41.144  16.375 123.508 -0.14 -0.00    +0.000 A 
DOCKED: ATOM     23  CM  UNL     1      41.904  16.164 122.396 +0.00 -0.00    +0.000 AC
DOCKED: ENDBRANCH  14  17
DOCKED: ENDBRANCH  12  13
DOCKED: ENDBRANCH   1  12
DOCKED: TORSDOF 9DOCKED: TER
DOCKED: ENDMDL
________________________________________________________________________________


	BEGINNING GENETIC ALGORITHM DOCKING 100 of 100
Run: 100 Seed: 160562396 919727750 [ Run 100 of 100 GA/GALS ]
Beginning LAMARCKIAN GENETIC ALGORITHM (LGA), with a maximum of 2500000 energy evaluations.

Final-Value: -13.974


	FINAL GENETIC ALGORITHM DOCKED STATE
	_______________________________________________


Detailed state:  trans 39.800 13.492 120.107 quatxyzw -0.378760 0.836081 -0.325561 -0.226980 center -0.029 -0.207 0.469 ntor 9 18.2220 -150.2154 51.1478 -119.4991 89.3952 180.0000 -12.8714 59.7129 -6.7363
State:	 39.800  13.492 120.107  -0.389  0.858 -0.334 -153.761     18.22 -150.22   51.15 -119.50   89.40  180.00  -12.87   59.71   -6.74

DOCKED: MODEL      100
DOCKED: USER    Run = 100
DOCKED: USER    DPF = ligand_dock.biased.dpf
DOCKED: USER  
DOCKED: USER    Estimated Free Energy of Binding    =   -9.94 kcal/mol  [=(1)+(2)+(3)-(4)]
DOCKED: USER    Estimated Inhibition Constant, Ki   =   51.60 nM (nanomolar)  [Temperature = 298.15 K]
DOCKED: USER    
DOCKED: USER    (1) Final Intermolecular Energy     =  -12.63 kcal/mol
DOCKED: USER        vdW + Hbond + desolv Energy     =  -12.63 kcal/mol
DOCKED: USER        Electrostatic Energy            =   +0.00 kcal/mol
DOCKED: USER    (2) Final Total Internal Energy     =   -1.35 kcal/mol
DOCKED: USER    (3) Torsional Free Energy           =   +2.68 kcal/mol
DOCKED: USER    (4) Unbound System's Energy  [=(2)] =   -1.35 kcal/mol
DOCKED: USER    
DOCKED: USER    
DOCKED: USER    NEWDPF move ligand.dum.pdbqt
DOCKED: USER    NEWDPF about -0.029000 -0.207000 0.469000
DOCKED: USER    NEWDPF tran0 39.799988 13.492246 120.107151
DOCKED: USER    NEWDPF quaternion0 -0.378760 0.836081 -0.325561 -0.226980
DOCKED: USER    NEWDPF axisangle0 -0.388911 0.858488 -0.334286 -153.761349
DOCKED: USER    NEWDPF quat0 -0.388911 0.858488 -0.334286 -153.761349
DOCKED: USER    NEWDPF dihe0 18.22 -150.22 51.15 -119.50 89.40 180.00 -12.87 59.71 -6.74 
DOCKED: USER  keepresnum = 1 
DOCKED: USER  
DOCKED: REMARK  Name = 
DOCKED: REMARK  9 active torsions:
DOCKED: REMARK  status: ('A' for Active; 'I' for Inactive)
DOCKED: REMARK    1  A    between atoms: C_2  and  C_5
DOCKED: REMARK    2  A    between atoms: N_3  and  O_4
DOCKED: REMARK    3  A    between atoms: C_5  and  C_6
DOCKED: REMARK    4  A    between atoms: C_6  and  C_7
DOCKED: REMARK    5  A    between atoms: C_7  and  C_8
DOCKED: REMARK    6  A    between atoms: C_8  and  C_9
DOCKED: REMARK    7  A    between atoms: C_9  and  C_10
DOCKED: REMARK    8  A    between atoms: C_10  and  C_11
DOCKED: REMARK    9  A    between atoms: N_12  and  C_13
DOCKED: REMARK                            x       y       z     vdW  Elec       q    Type
DOCKED: REMARK                         _______ _______ _______ _____ _____    ______ ____
DOCKED: USER                              x       y       z     vdW  Elec       q    Type
DOCKED: USER                           _______ _______ _______ _____ _____    ______ ____
DOCKED: ROOT
DOCKED: ATOM      1  C   UNL     1      38.109  14.390 122.681 -0.47 -0.00    +0.000 C 
DOCKED: ENDROOT
DOCKED: BRANCH   1   2
DOCKED: ATOM      2  C   UNL     1      37.636  14.174 121.236 -0.39 -0.00    +0.000 C 
DOCKED: BRANCH   2   3
DOCKED: ATOM      3  C   UNL     1      37.010  12.783 121.063 -0.49 -0.00    +0.000 C 
DOCKED: BRANCH   3   4
DOCKED: ATOM      4  C   UNL     1      37.137  11.910 122.326 -0.57 -0.00    +0.000 C 
DOCKED: BRANCH   4   5
DOCKED: ATOM      5  C   UNL     1      36.076  10.804 122.443 -0.67 -0.00    +0.000 C 
DOCKED: BRANCH   5   7
DOCKED: ATOM      6  O   UNL     1      37.043   9.016 121.185 -2.71 -0.00    +0.000 OA
DOCKED: ATOM      7  C   UNL     1      36.673   9.432 122.316 -0.72 -0.00    +0.000 C 
DOCKED: ATOM      8  N   UNL     1      36.796   8.586 123.462 -0.63 -0.00    +0.000 N 
DOCKED: ATOM      9  H   UNL     1      36.501   8.911 124.343 -0.32 -0.00    +0.000 HD
DOCKED: BRANCH   8  10
DOCKED: ATOM     10  O   UNL     1      37.316   7.342 123.347 -2.01 -0.00    +0.000 OA
DOCKED: ATOM     11  H   UNL     1      37.812   7.274 122.516 -0.27 -0.00    +0.000 HD
DOCKED: ENDBRANCH   8  10
DOCKED: ENDBRANCH   5   7
DOCKED: ENDBRANCH   4   5
DOCKED: ENDBRANCH   3   4
DOCKED: ENDBRANCH   2   3
DOCKED: ENDBRANCH   1   2
DOCKED: BRANCH   1  12
DOCKED: ATOM     12  C   UNL     1      39.032  15.610 122.814 -0.31 -0.00    +0.000 C 
DOCKED: BRANCH  12  13
DOCKED: ATOM     13  C   UNL     1      40.410  15.313 122.302 -0.43 -0.00    +0.000 C 
DOCKED: ATOM     14  N   UNL     1      41.240  16.376 121.810 -0.24 -0.00    +0.000 N 
DOCKED: ATOM     15  O   UNL     1      40.825  14.122 122.300 -1.08 +0.00    +0.000 OA
DOCKED: ATOM     16  H   UNL     1      41.029  17.295 122.093 +0.00 -0.00    +0.000 HD
DOCKED: BRANCH  14  17
DOCKED: ATOM     17  C   UNL     1      42.360  16.184 120.928 -0.23 -0.00    +0.000 A 
DOCKED: ATOM     18  C   UNL     1      42.153  16.156 119.542 -0.13 -0.00    +0.000 A 
DOCKED: ATOM     19  C   UNL     1      43.226  15.937 118.676 -0.21 -0.00    +0.000 A 
DOCKED: ATOM     20  C   UNL     1      44.500  15.731 119.206 -0.26 -0.00    +0.000 A 
DOCKED: ATOM     21  N   UNL     1      44.686  15.734 120.552 -0.28 +0.00    +0.000 NA
DOCKED: ATOM     22  C   UNL     1      43.658  15.950 121.416 -0.22 -0.00    +0.000 A 
DOCKED: ATOM     23  CM  UNL     1      43.464  15.943 120.067 +0.00 -0.00    +0.000 AC
DOCKED: ENDBRANCH  14  17
DOCKED: ENDBRANCH  12  13
DOCKED: ENDBRANCH   1  12
DOCKED: TORSDOF 9DOCKED: TER
DOCKED: ENDMDL
________________________________________________________________________________

DPF> analysis                             # perform a ranked cluster analysis


		CLUSTER ANALYSIS OF CONFORMATIONS
		_________________________________

Number of conformations = 100

RMSD cluster analysis will be performed using the ligand atoms only (23 / 23 total atoms).

Outputting structurally similar clusters, ranked in order of increasing energy.


________________________________________________________________________________

Number of distinct conformational clusters found = 16,  out of 100 runs,
Using an rmsd-tolerance of 2.0 A


	CLUSTERING HISTOGRAM
	____________________

________________________________________________________________________________
     |           |     |           |     |                                    
Clus | Lowest    | Run | Mean      | Num | Histogram                          
-ter | Binding   |     | Binding   | in  |                                    
Rank | Energy    |     | Energy    | Clus|    5    10   15   20   25   30   35
_____|___________|_____|___________|_____|____:____|____:____|____:____|____:___
   1 |    -11.05 |  22 |    -10.14 |  14 |##############
   2 |    -10.75 |  57 |     -9.96 |  14 |##############
   3 |    -10.67 |  28 |    -10.01 |  11 |###########
   4 |    -10.61 |  84 |     -9.77 |  23 |#######################
   5 |    -10.49 |  74 |     -9.93 |  16 |################
   6 |    -10.39 |  34 |    -10.02 |   5 |#####
   7 |    -10.27 |  24 |    -10.04 |   4 |####
   8 |    -10.14 |  88 |    -10.14 |   1 |#
   9 |     -9.98 |  50 |     -9.18 |   2 |##
  10 |     -9.98 |  29 |     -9.98 |   1 |#
  11 |     -9.93 |   5 |     -9.80 |   3 |###
  12 |     -9.68 |  93 |     -9.68 |   1 |#
  13 |     -9.52 |   3 |     -9.52 |   1 |#
  14 |     -9.28 |  37 |     -9.28 |   1 |#
  15 |     -8.47 |  11 |     -8.47 |   1 |#
  16 |     -8.20 |  14 |     -7.98 |   2 |##
_____|___________|_____|___________|_____|______________________________________


Number of multi-member conformational clusters found = 10, out of 100 runs.

	RMSD TABLE
	__________

_____________________________________________________________________
     |      |      |           |         |                 |
Rank | Sub- | Run  | Binding   | Cluster | Reference       | Grep
     | Rank |      | Energy    | RMSD    | RMSD            | Pattern
_____|______|______|___________|_________|_________________|___________
   1      1     22      -11.05      0.00    127.83           RANKING
   1      2     43      -10.60      1.59    127.08           RANKING
   1      3     69      -10.58      1.82    127.10           RANKING
   1      4     85      -10.51      1.40    128.14           RANKING
   1      5     75      -10.47      1.39    127.25           RANKING
   1      6     56      -10.21      1.51    127.14           RANKING
   1      7     80      -10.19      1.11    127.83           RANKING
   1      8     87      -10.09      1.92    126.84           RANKING
   1      9     97      -10.00      1.56    128.19           RANKING
   1     10     32       -9.99      1.66    128.01           RANKING
   1     11     21       -9.93      1.63    126.78           RANKING
   1     12     91       -9.72      1.63    127.11           RANKING
   1     13     66       -9.45      1.52    128.22           RANKING
   1     14     67       -9.22      1.84    126.96           RANKING
   2      1     57      -10.75      0.00    126.66           RANKING
   2      2     60      -10.70      0.86    126.67           RANKING
   2      3     47      -10.48      1.65    126.46           RANKING
   2      4     36      -10.14      1.64    126.08           RANKING
   2      5     68      -10.13      1.37    126.33           RANKING
   2      6     35      -10.11      1.49    126.20           RANKING
   2      7     70       -9.96      1.39    126.10           RANKING
   2      8     46       -9.86      1.93    125.44           RANKING
   2      9     17       -9.84      1.49    126.01           RANKING
   2     10      9       -9.73      1.97    126.97           RANKING
   2     11     64       -9.64      1.70    125.82           RANKING
   2     12     89       -9.53      1.32    127.09           RANKING
   2     13     25       -9.29      1.91    125.30           RANKING
   2     14     73       -9.29      1.63    126.91           RANKING
   3      1     28      -10.67      0.00    126.71           RANKING
   3      2     48      -10.61      0.64    126.69           RANKING
   3      3      8      -10.51      1.11    126.92           RANKING
   3      4     53      -10.40      1.08    126.71           RANKING
   3      5     83      -10.27      1.17    126.61           RANKING
   3      6     45      -10.24      1.25    126.68           RANKING
   3      7     86      -10.12      1.09    126.70           RANKING
   3      8      1       -9.59      1.59    127.15           RANKING
   3      9     51       -9.51      1.86    126.02           RANKING
   3     10     49       -9.21      1.54    126.37           RANKING
   3     11     16       -8.94      1.81    126.92           RANKING
   4      1     84      -10.61      0.00    123.80           RANKING
   4      2     72      -10.44      1.44    123.97           RANKING
   4      3     27      -10.36      1.17    123.80           RANKING
   4      4     94      -10.32      1.21    123.39           RANKING
   4      5     19      -10.30      1.15    124.37           RANKING
   4      6     12      -10.23      1.23    124.43           RANKING
   4      7     23      -10.08      1.24    124.39           RANKING
   4      8     44      -10.07      1.20    124.30           RANKING
   4      9     96      -10.00      1.18    123.68           RANKING
   4     10     18       -9.88      1.75    124.52           RANKING
   4     11     71       -9.70      1.20    123.88           RANKING
   4     12     33       -9.70      1.32    123.37           RANKING
   4     13     31       -9.68      1.25    123.41           RANKING
   4     14     55       -9.66      1.61    123.66           RANKING
   4     15     41       -9.64      1.71    124.80           RANKING
   4     16     92       -9.55      1.55    123.54           RANKING
   4     17      4       -9.42      1.92    124.43           RANKING
   4     18     82       -9.42      1.77    124.48           RANKING
   4     19      7       -9.37      1.60    123.55           RANKING
   4     20     62       -9.33      1.50    123.52           RANKING
   4     21     58       -9.27      1.90    124.05           RANKING
   4     22     77       -8.81      1.80    124.51           RANKING
   4     23     78       -8.77      1.86    123.37           RANKING
   5      1     74      -10.49      0.00    127.02           RANKING
   5      2     42      -10.42      1.36    127.21           RANKING
   5      3     99      -10.41      1.01    126.92           RANKING
   5      4      6      -10.29      1.32    127.11           RANKING
   5      5     13      -10.24      0.99    126.93           RANKING
   5      6     40      -10.20      1.68    127.23           RANKING
   5      7     76      -10.09      1.71    127.09           RANKING
   5      8     95      -10.07      1.69    127.22           RANKING
   5      9     26       -9.95      1.10    126.99           RANKING
   5     10     59       -9.88      1.73    126.85           RANKING
   5     11     54       -9.68      1.35    127.03           RANKING
   5     12     10       -9.68      1.53    126.35           RANKING
   5     13      2       -9.61      1.21    126.91           RANKING
   5     14     90       -9.40      1.93    127.59           RANKING
   5     15     61       -9.37      1.99    127.62           RANKING
   5     16     30       -9.03      1.57    126.29           RANKING
   6      1     34      -10.39      0.00    126.79           RANKING
   6      2     15      -10.13      1.27    126.84           RANKING
   6      3     38      -10.12      0.83    126.70           RANKING
   6      4     63       -9.79      1.79    127.01           RANKING
   6      5     98       -9.66      1.42    127.02           RANKING
   7      1     24      -10.27      0.00    127.09           RANKING
   7      2     81      -10.24      1.03    127.04           RANKING
   7      3    100       -9.94      1.31    126.50           RANKING
   7      4     39       -9.72      1.08    126.72           RANKING
   8      1     88      -10.14      0.00    125.75           RANKING
   9      1     50       -9.98      0.00    125.64           RANKING
   9      2     79       -8.38      1.97    125.39           RANKING
  10      1     29       -9.98      0.00    121.37           RANKING
  11      1      5       -9.93      0.00    123.59           RANKING
  11      2     20       -9.82      1.90    124.59           RANKING
  11      3     52       -9.65      0.87    123.97           RANKING
  12      1     93       -9.68      0.00    126.07           RANKING
  13      1      3       -9.52      0.00    127.55           RANKING
  14      1     37       -9.28      0.00    127.91           RANKING
  15      1     11       -8.47      0.00    125.55           RANKING
  16      1     14       -8.20      0.00    126.46           RANKING
  16      2     65       -7.75      1.66    126.29           RANKING
_______________________________________________________________________



	INFORMATION ENTROPY ANALYSIS FOR THIS CLUSTERING
	________________________________________________


Information entropy for this clustering = 0.49  (rmstol = 2.00 Angstrom)

_______________________________________________________________________


	STATISTICAL MECHANICAL ANALYSIS
	_______________________________


Partition function, Q =   101.68            at Temperature, T = 298.15 K
Free energy,        A ~ -2738.34 kcal/mol   at Temperature, T = 298.15 K
Internal energy,    U =    -9.86 kcal/mol   at Temperature, T = 298.15 K
Entropy,            S =     9.15 kcal/mol/K at Temperature, T = 298.15 K

_______________________________________________________________________


	LOWEST ENERGY DOCKED CONFORMATION from EACH CLUSTER
	___________________________________________________



Keeping original residue number (specified in the input PDBQ file) for outputting.

MODEL       22
USER    Run = 22
USER    Cluster Rank = 1
USER    Number of conformations in this cluster = 14
USER  
USER    RMSD from reference structure       = 127.829 A
USER  
USER    Estimated Free Energy of Binding    =  -11.05 kcal/mol  [=(1)+(2)+(3)-(4)]
USER    Estimated Inhibition Constant, Ki   =    7.95 nM (nanomolar)  [Temperature = 298.15 K]
USER    
USER    (1) Final Intermolecular Energy     =  -13.73 kcal/mol
USER        vdW + Hbond + desolv Energy     =  -13.73 kcal/mol
USER        Electrostatic Energy            =   +0.00 kcal/mol
USER    (2) Final Total Internal Energy     =   -1.40 kcal/mol
USER    (3) Torsional Free Energy           =   +2.68 kcal/mol
USER    (4) Unbound System's Energy  [=(2)] =   -1.40 kcal/mol
USER    
USER    
USER  
USER    DPF = ligand_dock.biased.dpf
USER    NEWDPF move	ligand.dum.pdbqt
USER    NEWDPF about	-0.029000 -0.207000 0.469000
USER    NEWDPF tran0	35.260617 13.049960 121.692025
USER    NEWDPF axisangle0	0.829370 -0.557658 -0.034113 -127.457381
USER    NEWDPF quaternion0	0.743703 -0.500056 -0.030590 -0.442622
USER    NEWDPF dihe0	11.75 114.41 44.46 -1.67 50.09 40.60 -31.65 -17.37 111.45 
USER  
USER                              x       y       z    vdW   Elec        q     RMS 
ATOM      1  C   UNL     1      37.206  15.102 123.206 -0.41 -0.00    +0.000    127.829
ATOM      2  C   UNL     1      36.323  13.990 123.792 -0.53 -0.00    +0.000    127.829
ATOM      3  C   UNL     1      36.982  12.615 123.622 -0.61 -0.00    +0.000    127.829
ATOM      4  C   UNL     1      35.961  11.492 123.360 -0.70 -0.00    +0.000    127.829
ATOM      5  C   UNL     1      36.099  10.815 121.987 -0.56 -0.00    +0.000    127.829
ATOM      6  O   UNL     1      37.062   8.841 121.043 -2.70 -0.00    +0.000    127.829
ATOM      7  C   UNL     1      36.702   9.443 122.090 -0.70 -0.00    +0.000    127.829
ATOM      8  N   UNL     1      36.841   8.807 123.363 -0.62 -0.00    +0.000    127.829
ATOM      9  H   UNL     1      36.553   9.278 124.178 -0.43 -0.00    +0.000    127.829
ATOM     10  O   UNL     1      37.366   7.563 123.457 -2.12 -0.00    +0.000    127.829
ATOM     11  H   UNL     1      37.765   7.315 122.609 -0.31 -0.00    +0.000    127.829
ATOM     12  C   UNL     1      36.378  16.257 122.625 -0.31 -0.00    +0.000    127.829
ATOM     13  C   UNL     1      35.220  16.602 123.513 -0.43 -0.00    +0.000    127.829
ATOM     14  N   UNL     1      35.435  17.359 124.715 -0.31 -0.00    +0.000    127.829
ATOM     15  O   UNL     1      34.062  16.214 123.199 -0.53 -0.00    +0.000    127.829
ATOM     16  H   UNL     1      36.258  17.895 124.782 -0.01 -0.00    +0.000    127.829
ATOM     17  C   UNL     1      34.524  17.383 125.827 -0.30 -0.00    +0.000    127.829
ATOM     18  C   UNL     1      34.518  18.485 126.694 -0.22 -0.00    +0.000    127.829
ATOM     19  C   UNL     1      33.662  18.507 127.796 -0.19 -0.00    +0.000    127.829
ATOM     20  C   UNL     1      32.827  17.414 128.034 -0.32 -0.00    +0.000    127.829
ATOM     21  N   UNL     1      32.860  16.339 127.203 -1.07 -0.00    +0.000    127.829
ATOM     22  C   UNL     1      33.680  16.296 126.119 -0.34 -0.00    +0.000    127.829
ATOM     23  CM  UNL     1      33.656  17.375 126.953 -0.01 -0.00    +0.000    127.829
TER
ENDMDL
MODEL       57
USER    Run = 57
USER    Cluster Rank = 2
USER    Number of conformations in this cluster = 14
USER  
USER    RMSD from reference structure       = 126.655 A
USER  
USER    Estimated Free Energy of Binding    =  -10.75 kcal/mol  [=(1)+(2)+(3)-(4)]
USER    Estimated Inhibition Constant, Ki   =   13.28 nM (nanomolar)  [Temperature = 298.15 K]
USER    
USER    (1) Final Intermolecular Energy     =  -13.43 kcal/mol
USER        vdW + Hbond + desolv Energy     =  -13.43 kcal/mol
USER        Electrostatic Energy            =   +0.00 kcal/mol
USER    (2) Final Total Internal Energy     =   -1.27 kcal/mol
USER    (3) Torsional Free Energy           =   +2.68 kcal/mol
USER    (4) Unbound System's Energy  [=(2)] =   -1.27 kcal/mol
USER    
USER    
USER  
USER    DPF = ligand_dock.biased.dpf
USER    NEWDPF move	ligand.dum.pdbqt
USER    NEWDPF about	-0.029000 -0.207000 0.469000
USER    NEWDPF tran0	38.240306 14.387345 121.524889
USER    NEWDPF axisangle0	0.402074 0.788072 0.466131 -162.109249
USER    NEWDPF quaternion0	0.397184 0.778487 0.460462 -0.155493
USER    NEWDPF dihe0	-13.36 47.33 -176.59 -133.43 139.73 -35.60 -158.87 -136.74 -117.53 
USER  
USER                              x       y       z    vdW   Elec        q     RMS 
ATOM      1  C   UNL     1      36.057  12.356 122.707 -0.53 -0.00    +0.000    126.655
ATOM      2  C   UNL     1      36.664  13.612 123.351 -0.57 -0.00    +0.000    126.655
ATOM      3  C   UNL     1      38.194  13.612 123.225 -0.41 -0.00    +0.000    126.655
ATOM      4  C   UNL     1      38.763  14.999 122.872 -0.34 -0.00    +0.000    126.655
ATOM      5  C   UNL     1      40.113  14.964 122.138 -0.43 -0.00    +0.000    126.655
ATOM      6  O   UNL     1      42.245  14.894 123.218 -1.02 +0.00    +0.000    126.655
ATOM      7  C   UNL     1      41.217  15.574 122.955 -0.45 -0.00    +0.000    126.655
ATOM      8  N   UNL     1      41.094  16.907 123.459 -0.33 -0.00    +0.000    126.655
ATOM      9  H   UNL     1      40.287  17.432 123.256 -0.00 -0.00    +0.000    126.655
ATOM     10  O   UNL     1      42.078  17.452 124.211 -0.70 -0.00    +0.000    126.655
ATOM     11  H   UNL     1      42.692  16.756 124.494 -0.42 +0.00    +0.000    126.655
ATOM     12  C   UNL     1      37.084  11.225 122.558 -0.58 -0.00    +0.000    126.655
ATOM     13  C   UNL     1      36.437   9.956 122.087 -0.63 -0.00    +0.000    126.655
ATOM     14  N   UNL     1      35.181   9.539 122.643 -0.60 -0.00    +0.000    126.655
ATOM     15  O   UNL     1      37.013   9.258 121.209 -2.69 -0.00    +0.000    126.655
ATOM     16  H   UNL     1      34.620  10.221 123.081 -0.33 -0.00    +0.000    126.655
ATOM     17  C   UNL     1      34.688   8.188 122.602 -0.61 -0.00    +0.000    126.655
ATOM     18  C   UNL     1      35.268   7.214 123.426 -0.65 -0.00    +0.000    126.655
ATOM     19  C   UNL     1      34.822   5.893 123.372 -0.63 -0.00    +0.000    126.655
ATOM     20  C   UNL     1      33.806   5.551 122.479 -0.32 -0.00    +0.000    126.655
ATOM     21  N   UNL     1      33.268   6.498 121.666 -0.58 -0.00    +0.000    126.655
ATOM     22  C   UNL     1      33.681   7.793 121.703 -0.60 -0.00    +0.000    126.655
ATOM     23  CM  UNL     1      34.229   6.847 122.518 +0.00 -0.00    +0.000    126.655
TER
ENDMDL
MODEL       28
USER    Run = 28
USER    Cluster Rank = 3
USER    Number of conformations in this cluster = 11
USER  
USER    RMSD from reference structure       = 126.708 A
USER  
USER    Estimated Free Energy of Binding    =  -10.67 kcal/mol  [=(1)+(2)+(3)-(4)]
USER    Estimated Inhibition Constant, Ki   =   15.09 nM (nanomolar)  [Temperature = 298.15 K]
USER    
USER    (1) Final Intermolecular Energy     =  -13.35 kcal/mol
USER        vdW + Hbond + desolv Energy     =  -13.35 kcal/mol
USER        Electrostatic Energy            =   +0.00 kcal/mol
USER    (2) Final Total Internal Energy     =   -1.39 kcal/mol
USER    (3) Torsional Free Energy           =   +2.68 kcal/mol
USER    (4) Unbound System's Energy  [=(2)] =   -1.39 kcal/mol
USER    
USER    
USER  
USER    DPF = ligand_dock.biased.dpf
USER    NEWDPF move	ligand.dum.pdbqt
USER    NEWDPF about	-0.029000 -0.207000 0.469000
USER    NEWDPF tran0	37.719332 14.446468 121.416565
USER    NEWDPF axisangle0	-0.416152 -0.826999 -0.378008 174.321146
USER    NEWDPF quaternion0	-0.415641 -0.825984 -0.377544 0.049537
USER    NEWDPF dihe0	-13.07 -161.45 3.78 36.20 -173.83 -21.45 -66.17 -142.65 -102.60 
USER  
USER                              x       y       z    vdW   Elec        q     RMS 
ATOM      1  C   UNL     1      36.106  12.388 123.274 -0.65 -0.00    +0.000    126.708
ATOM      2  C   UNL     1      36.742  13.737 123.644 -0.50 -0.00    +0.000    126.708
ATOM      3  C   UNL     1      36.430  14.802 122.584 -0.35 -0.00    +0.000    126.708
ATOM      4  C   UNL     1      36.431  16.232 123.158 -0.35 -0.00    +0.000    126.708
ATOM      5  C   UNL     1      35.037  16.866 123.285 -0.41 -0.00    +0.000    126.708
ATOM      6  O   UNL     1      33.516  15.137 123.925 -0.63 -0.00    +0.000    126.708
ATOM      7  C   UNL     1      34.177  16.148 124.285 -0.53 -0.00    +0.000    126.708
ATOM      8  N   UNL     1      34.082  16.619 125.632 -0.47 -0.00    +0.000    126.708
ATOM      9  H   UNL     1      34.596  17.413 125.908 -0.01 -0.00    +0.000    126.708
ATOM     10  O   UNL     1      33.294  15.985 126.530 -1.10 -0.00    +0.000    126.708
ATOM     11  H   UNL     1      32.708  15.367 126.066 -0.22 -0.00    +0.000    126.708
ATOM     12  C   UNL     1      37.159  11.322 122.940 -0.55 -0.00    +0.000    126.708
ATOM     13  C   UNL     1      36.524  10.074 122.401 -0.69 -0.00    +0.000    126.708
ATOM     14  N   UNL     1      35.407   9.482 123.082 -0.60 -0.00    +0.000    126.708
ATOM     15  O   UNL     1      36.987   9.548 121.352 -2.32 -0.00    +0.000    126.708
ATOM     16  H   UNL     1      34.886  10.050 123.695 -0.44 -0.00    +0.000    126.708
ATOM     17  C   UNL     1      35.000   8.111 122.926 -0.62 -0.00    +0.000    126.708
ATOM     18  C   UNL     1      33.736   7.820 122.396 -0.63 -0.00    +0.000    126.708
ATOM     19  C   UNL     1      33.316   6.495 122.269 -0.59 -0.00    +0.000    126.708
ATOM     20  C   UNL     1      34.161   5.467 122.692 -0.28 -0.00    +0.000    126.708
ATOM     21  N   UNL     1      35.374   5.762 123.229 -0.79 -0.00    +0.000    126.708
ATOM     22  C   UNL     1      35.809   7.043 123.357 -0.63 -0.00    +0.000    126.708
ATOM     23  CM  UNL     1      34.588   6.756 122.823 +0.00 -0.00    +0.000    126.708
TER
ENDMDL
MODEL       84
USER    Run = 84
USER    Cluster Rank = 4
USER    Number of conformations in this cluster = 23
USER  
USER    RMSD from reference structure       = 123.797 A
USER  
USER    Estimated Free Energy of Binding    =  -10.61 kcal/mol  [=(1)+(2)+(3)-(4)]
USER    Estimated Inhibition Constant, Ki   =   16.67 nM (nanomolar)  [Temperature = 298.15 K]
USER    
USER    (1) Final Intermolecular Energy     =  -13.30 kcal/mol
USER        vdW + Hbond + desolv Energy     =  -13.30 kcal/mol
USER        Electrostatic Energy            =   +0.00 kcal/mol
USER    (2) Final Total Internal Energy     =   -1.14 kcal/mol
USER    (3) Torsional Free Energy           =   +2.68 kcal/mol
USER    (4) Unbound System's Energy  [=(2)] =   -1.14 kcal/mol
USER    
USER    
USER  
USER    DPF = ligand_dock.biased.dpf
USER    NEWDPF move	ligand.dum.pdbqt
USER    NEWDPF about	-0.029000 -0.207000 0.469000
USER    NEWDPF tran0	39.758916 12.198516 123.774153
USER    NEWDPF axisangle0	-0.519515 0.031486 -0.853881 124.272348
USER    NEWDPF quaternion0	-0.459283 0.027835 -0.754883 0.467372
USER    NEWDPF dihe0	80.31 167.85 62.55 -56.40 -180.00 -47.03 107.13 62.40 -164.59 
USER  
USER                              x       y       z    vdW   Elec        q     RMS 
ATOM      1  C   UNL     1      38.073  14.000 121.724 -0.44 -0.00    +0.000    123.797
ATOM      2  C   UNL     1      37.652  13.427 123.086 -0.55 -0.00    +0.000    123.797
ATOM      3  C   UNL     1      36.186  12.972 123.063 -0.58 -0.00    +0.000    123.797
ATOM      4  C   UNL     1      36.005  11.521 123.545 -0.69 -0.00    +0.000    123.797
ATOM      5  C   UNL     1      35.521  10.547 122.458 -0.64 -0.00    +0.000    123.797
ATOM      6  O   UNL     1      37.060   9.213 121.206 -2.74 -0.00    +0.000    123.797
ATOM      7  C   UNL     1      36.447   9.376 122.296 -0.71 -0.00    +0.000    123.797
ATOM      8  N   UNL     1      36.615   8.431 123.356 -0.67 -0.00    +0.000    123.797
ATOM      9  H   UNL     1      36.130   8.558 124.204 -0.24 -0.00    +0.000    123.797
ATOM     10  O   UNL     1      37.434   7.365 123.205 -1.96 -0.00    +0.000    123.797
ATOM     11  H   UNL     1      38.353   7.640 123.347 -0.52 -0.00    +0.000    123.797
ATOM     12  C   UNL     1      38.261  12.904 120.666 -0.40 -0.00    +0.000    123.797
ATOM     13  C   UNL     1      37.442  13.179 119.440 -0.45 -0.00    +0.000    123.797
ATOM     14  N   UNL     1      37.820  12.609 118.178 -0.31 -0.00    +0.000    123.797
ATOM     15  O   UNL     1      36.426  13.922 119.530 -0.27 -0.00    +0.000    123.797
ATOM     16  H   UNL     1      38.407  11.819 118.185 -0.13 -0.00    +0.000    123.797
ATOM     17  C   UNL     1      37.395  13.120 116.902 -0.32 -0.00    +0.000    123.797
ATOM     18  C   UNL     1      38.227  12.968 115.784 -0.46 -0.00    +0.000    123.797
ATOM     19  C   UNL     1      37.842  13.487 114.546 -0.37 -0.00    +0.000    123.797
ATOM     20  C   UNL     1      36.632  14.173 114.441 -0.26 -0.00    +0.000    123.797
ATOM     21  N   UNL     1      35.845  14.339 115.536 -0.25 -0.00    +0.000    123.797
ATOM     22  C   UNL     1      36.194  13.837 116.751 -0.32 -0.00    +0.000    123.797
ATOM     23  CM  UNL     1      36.991  13.672 115.657 +0.00 -0.00    +0.000    123.797
TER
ENDMDL
MODEL       74
USER    Run = 74
USER    Cluster Rank = 5
USER    Number of conformations in this cluster = 16
USER  
USER    RMSD from reference structure       = 127.018 A
USER  
USER    Estimated Free Energy of Binding    =  -10.49 kcal/mol  [=(1)+(2)+(3)-(4)]
USER    Estimated Inhibition Constant, Ki   =   20.28 nM (nanomolar)  [Temperature = 298.15 K]
USER    
USER    (1) Final Intermolecular Energy     =  -13.18 kcal/mol
USER        vdW + Hbond + desolv Energy     =  -13.18 kcal/mol
USER        Electrostatic Energy            =   +0.00 kcal/mol
USER    (2) Final Total Internal Energy     =   -1.61 kcal/mol
USER    (3) Torsional Free Energy           =   +2.68 kcal/mol
USER    (4) Unbound System's Energy  [=(2)] =   -1.61 kcal/mol
USER    
USER    
USER  
USER    DPF = ligand_dock.biased.dpf
USER    NEWDPF move	ligand.dum.pdbqt
USER    NEWDPF about	-0.029000 -0.207000 0.469000
USER    NEWDPF tran0	39.031927 15.311635 123.924547
USER    NEWDPF axisangle0	-0.458884 -0.301457 -0.835793 -178.344540
USER    NEWDPF quaternion0	-0.458836 -0.301426 -0.835705 -0.014446
USER    NEWDPF dihe0	-0.09 101.55 24.47 -160.33 34.26 145.51 115.03 -30.17 1.44 
USER  
USER                              x       y       z    vdW   Elec        q     RMS 
ATOM      1  C   UNL     1      36.474  14.145 122.381 -0.29 -0.00    +0.000    127.018
ATOM      2  C   UNL     1      37.032  13.763 123.760 -0.37 -0.00    +0.000    127.018
ATOM      3  C   UNL     1      37.089  12.239 123.928 -0.49 -0.00    +0.000    127.018
ATOM      4  C   UNL     1      35.856  11.527 123.341 -0.67 -0.00    +0.000    127.018
ATOM      5  C   UNL     1      36.086  10.899 121.957 -0.56 -0.00    +0.000    127.018
ATOM      6  O   UNL     1      36.859   8.849 121.000 -2.66 -0.00    +0.000    127.018
ATOM      7  C   UNL     1      36.657   9.513 122.053 -0.69 -0.00    +0.000    127.018
ATOM      8  N   UNL     1      36.945   8.934 123.328 -0.62 -0.00    +0.000    127.018
ATOM      9  H   UNL     1      36.781   9.454 124.148 -0.50 -0.00    +0.000    127.018
ATOM     10  O   UNL     1      37.443   7.679 123.418 -2.16 -0.00    +0.000    127.018
ATOM     11  H   UNL     1      37.544   7.306 122.529 -0.20 -0.00    +0.000    127.018
ATOM     12  C   UNL     1      37.405  13.719 121.238 -0.43 -0.00    +0.000    127.018
ATOM     13  C   UNL     1      38.680  14.510 121.246 -0.36 -0.00    +0.000    127.018
ATOM     14  N   UNL     1      39.587  14.404 122.354 -0.38 -0.00    +0.000    127.018
ATOM     15  O   UNL     1      38.939  15.275 120.277 -0.24 -0.00    +0.000    127.018
ATOM     16  H   UNL     1      39.523  13.607 122.928 -0.01 -0.00    +0.000    127.018
ATOM     17  C   UNL     1      40.584  15.388 122.678 -0.39 -0.00    +0.000    127.018
ATOM     18  C   UNL     1      40.239  16.746 122.690 -0.24 -0.00    +0.000    127.018
ATOM     19  C   UNL     1      41.204  17.714 122.971 -0.22 -0.00    +0.000    127.018
ATOM     20  C   UNL     1      42.518  17.315 123.223 -0.31 -0.00    +0.000    127.018
ATOM     21  N   UNL     1      42.848  15.998 123.184 -0.94 +0.00    +0.000    127.018
ATOM     22  C   UNL     1      41.925  15.035 122.918 -0.45 +0.00    +0.000    127.018
ATOM     23  CM  UNL     1      41.588  16.356 122.950 +0.00 -0.00    +0.000    127.018
TER
ENDMDL
MODEL       34
USER    Run = 34
USER    Cluster Rank = 6
USER    Number of conformations in this cluster = 5
USER  
USER    RMSD from reference structure       = 126.793 A
USER  
USER    Estimated Free Energy of Binding    =  -10.39 kcal/mol  [=(1)+(2)+(3)-(4)]
USER    Estimated Inhibition Constant, Ki   =   24.12 nM (nanomolar)  [Temperature = 298.15 K]
USER    
USER    (1) Final Intermolecular Energy     =  -13.08 kcal/mol
USER        vdW + Hbond + desolv Energy     =  -13.08 kcal/mol
USER        Electrostatic Energy            =   +0.00 kcal/mol
USER    (2) Final Total Internal Energy     =   -1.43 kcal/mol
USER    (3) Torsional Free Energy           =   +2.68 kcal/mol
USER    (4) Unbound System's Energy  [=(2)] =   -1.43 kcal/mol
USER    
USER    
USER  
USER    DPF = ligand_dock.biased.dpf
USER    NEWDPF move	ligand.dum.pdbqt
USER    NEWDPF about	-0.029000 -0.207000 0.469000
USER    NEWDPF tran0	36.247963 12.721518 121.815917
USER    NEWDPF axisangle0	-0.369559 -0.370300 0.852235 154.150924
USER    NEWDPF quaternion0	-0.360197 -0.360918 0.830644 0.223668
USER    NEWDPF dihe0	13.85 -111.18 153.73 -173.47 -179.78 -20.61 -163.92 -63.88 -50.80 
USER  
USER                              x       y       z    vdW   Elec        q     RMS 
ATOM      1  C   UNL     1      37.273  15.490 120.561 -0.23 -0.00    +0.000    126.793
ATOM      2  C   UNL     1      37.249  14.089 119.932 -0.35 -0.00    +0.000    126.793
ATOM      3  C   UNL     1      37.951  13.066 120.836 -0.47 -0.00    +0.000    126.793
ATOM      4  C   UNL     1      37.433  11.631 120.627 -0.48 -0.00    +0.000    126.793
ATOM      5  C   UNL     1      36.685  11.043 121.835 -0.59 -0.00    +0.000    126.793
ATOM      6  O   UNL     1      37.069   8.849 120.966 -2.71 -0.00    +0.000    126.793
ATOM      7  C   UNL     1      36.933   9.570 121.991 -0.64 -0.00    +0.000    126.793
ATOM      8  N   UNL     1      36.986   8.978 123.292 -0.63 -0.00    +0.000    126.793
ATOM      9  H   UNL     1      36.873   9.543 124.090 -0.51 -0.00    +0.000    126.793
ATOM     10  O   UNL     1      37.190   7.647 123.435 -2.22 -0.00    +0.000    126.793
ATOM     11  H   UNL     1      37.495   7.275 122.593 -0.21 -0.00    +0.000    126.793
ATOM     12  C   UNL     1      38.284  15.593 121.712 -0.28 -0.00    +0.000    126.793
ATOM     13  C   UNL     1      37.612  15.970 122.999 -0.32 -0.00    +0.000    126.793
ATOM     14  N   UNL     1      36.254  15.574 123.246 -0.38 -0.00    +0.000    126.793
ATOM     15  O   UNL     1      38.248  16.644 123.854 -0.32 -0.00    +0.000    126.793
ATOM     16  H   UNL     1      35.891  14.819 122.728 -0.02 -0.00    +0.000    126.793
ATOM     17  C   UNL     1      35.388  16.210 124.203 -0.41 -0.00    +0.000    126.793
ATOM     18  C   UNL     1      35.515  17.585 124.444 -0.29 -0.00    +0.000    126.793
ATOM     19  C   UNL     1      34.704  18.209 125.393 -0.29 -0.00    +0.000    126.793
ATOM     20  C   UNL     1      33.780  17.446 126.109 -0.35 -0.00    +0.000    126.793
ATOM     21  N   UNL     1      33.684  16.109 125.887 -0.74 -0.00    +0.000    126.793
ATOM     22  C   UNL     1      34.458  15.479 124.963 -0.42 -0.00    +0.000    126.793
ATOM     23  CM  UNL     1      34.564  16.820 125.186 -0.24 -0.00    +0.000    126.793
TER
ENDMDL
MODEL       24
USER    Run = 24
USER    Cluster Rank = 7
USER    Number of conformations in this cluster = 4
USER  
USER    RMSD from reference structure       = 127.092 A
USER  
USER    Estimated Free Energy of Binding    =  -10.27 kcal/mol  [=(1)+(2)+(3)-(4)]
USER    Estimated Inhibition Constant, Ki   =   29.83 nM (nanomolar)  [Temperature = 298.15 K]
USER    
USER    (1) Final Intermolecular Energy     =  -12.95 kcal/mol
USER        vdW + Hbond + desolv Energy     =  -12.95 kcal/mol
USER        Electrostatic Energy            =   +0.00 kcal/mol
USER    (2) Final Total Internal Energy     =   -0.68 kcal/mol
USER    (3) Torsional Free Energy           =   +2.68 kcal/mol
USER    (4) Unbound System's Energy  [=(2)] =   -0.68 kcal/mol
USER    
USER    
USER  
USER    DPF = ligand_dock.biased.dpf
USER    NEWDPF move	ligand.dum.pdbqt
USER    NEWDPF about	-0.029000 -0.207000 0.469000
USER    NEWDPF tran0	37.371097 12.284148 123.652185
USER    NEWDPF axisangle0	0.111443 0.515558 -0.849577 161.564460
USER    NEWDPF quaternion0	0.110003 0.508900 -0.838606 0.160187
USER    NEWDPF dihe0	-163.40 -110.49 -179.55 158.80 -131.59 -8.70 171.00 149.06 -143.73 
USER  
USER                              x       y       z    vdW   Elec        q     RMS 
ATOM      1  C   UNL     1      38.569  15.109 122.717 -0.39 -0.00    +0.000    127.092
ATOM      2  C   UNL     1      37.518  14.225 122.029 -0.43 -0.00    +0.000    127.092
ATOM      3  C   UNL     1      38.180  13.051 121.295 -0.39 -0.00    +0.000    127.092
ATOM      4  C   UNL     1      37.175  11.955 120.893 -0.52 -0.00    +0.000    127.092
ATOM      5  C   UNL     1      36.522  11.227 122.080 -0.63 -0.00    +0.000    127.092
ATOM      6  O   UNL     1      36.973   9.142 121.000 -2.70 -0.00    +0.000    127.092
ATOM      7  C   UNL     1      36.847   9.760 122.091 -0.64 -0.00    +0.000    127.092
ATOM      8  N   UNL     1      36.983   9.058 123.329 -0.60 -0.00    +0.000    127.092
ATOM      9  H   UNL     1      36.877   9.542 124.180 -0.53 -0.00    +0.000    127.092
ATOM     10  O   UNL     1      37.256   7.732 123.342 -2.24 -0.00    +0.000    127.092
ATOM     11  H   UNL     1      37.059   7.370 124.220 -0.51 -0.00    +0.000    127.092
ATOM     12  C   UNL     1      39.964  14.470 122.704 -0.30 -0.00    +0.000    127.092
ATOM     13  C   UNL     1      41.042  15.509 122.599 -0.47 -0.00    +0.000    127.092
ATOM     14  N   UNL     1      41.907  15.536 121.453 -0.31 -0.00    +0.000    127.092
ATOM     15  O   UNL     1      41.184  16.348 123.529 -0.88 -0.00    +0.000    127.092
ATOM     16  H   UNL     1      41.598  15.091 120.631 +0.01 -0.00    +0.000    127.092
ATOM     17  C   UNL     1      43.197  16.171 121.430 -0.28 -0.00    +0.000    127.092
ATOM     18  C   UNL     1      43.720  16.719 122.610 -0.33 -0.00    +0.000    127.092
ATOM     19  C   UNL     1      44.956  17.367 122.595 -0.29 -0.00    +0.000    127.092
ATOM     20  C   UNL     1      45.654  17.478 121.392 -0.17 -0.00    +0.000    127.092
ATOM     21  N   UNL     1      45.126  16.968 120.249 -0.14 -0.00    +0.000    127.092
ATOM     22  C   UNL     1      43.927  16.326 120.238 -0.20 -0.00    +0.000    127.092
ATOM     23  CM  UNL     1      44.449  16.842 121.387 +0.00 -0.00    +0.000    127.092
TER
ENDMDL
MODEL       88
USER    Run = 88
USER    Cluster Rank = 8
USER    Number of conformations in this cluster = 1
USER  
USER    RMSD from reference structure       = 125.749 A
USER  
USER    Estimated Free Energy of Binding    =  -10.14 kcal/mol  [=(1)+(2)+(3)-(4)]
USER    Estimated Inhibition Constant, Ki   =   37.22 nM (nanomolar)  [Temperature = 298.15 K]
USER    
USER    (1) Final Intermolecular Energy     =  -12.82 kcal/mol
USER        vdW + Hbond + desolv Energy     =  -12.82 kcal/mol
USER        Electrostatic Energy            =   +0.00 kcal/mol
USER    (2) Final Total Internal Energy     =   -0.84 kcal/mol
USER    (3) Torsional Free Energy           =   +2.68 kcal/mol
USER    (4) Unbound System's Energy  [=(2)] =   -0.84 kcal/mol
USER    
USER    
USER  
USER    DPF = ligand_dock.biased.dpf
USER    NEWDPF move	ligand.dum.pdbqt
USER    NEWDPF about	-0.029000 -0.207000 0.469000
USER    NEWDPF tran0	36.299996 16.144854 121.110608
USER    NEWDPF axisangle0	0.986767 -0.162141 -0.000656 155.757302
USER    NEWDPF quaternion0	0.964767 -0.158526 -0.000642 0.209983
USER    NEWDPF dihe0	180.00 120.57 162.50 10.22 179.14 53.47 106.68 20.51 -14.99 
USER  
USER                              x       y       z    vdW   Elec        q     RMS 
ATOM      1  C   UNL     1      36.258  15.363 124.221 -0.30 -0.00    +0.000    125.749
ATOM      2  C   UNL     1      36.572  14.481 123.003 -0.47 -0.00    +0.000    125.749
ATOM      3  C   UNL     1      36.014  13.063 123.190 -0.56 -0.00    +0.000    125.749
ATOM      4  C   UNL     1      37.045  11.968 122.856 -0.64 -0.00    +0.000    125.749
ATOM      5  C   UNL     1      36.679  11.103 121.639 -0.55 -0.00    +0.000    125.749
ATOM      6  O   UNL     1      36.974   8.842 120.918 -2.69 -0.00    +0.000    125.749
ATOM      7  C   UNL     1      36.920   9.642 121.892 -0.61 -0.00    +0.000    125.749
ATOM      8  N   UNL     1      37.057   9.150 123.227 -0.63 -0.00    +0.000    125.749
ATOM      9  H   UNL     1      37.008   9.776 123.986 -0.48 -0.00    +0.000    125.749
ATOM     10  O   UNL     1      37.255   7.831 123.459 -2.21 -0.00    +0.000    125.749
ATOM     11  H   UNL     1      37.326   7.677 124.414 -0.47 -0.00    +0.000    125.749
ATOM     12  C   UNL     1      34.783  15.786 124.268 -0.56 -0.00    +0.000    125.749
ATOM     13  C   UNL     1      34.536  17.004 123.430 -0.45 -0.00    +0.000    125.749
ATOM     14  N   UNL     1      33.699  16.920 122.266 -0.25 -0.00    +0.000    125.749
ATOM     15  O   UNL     1      35.077  18.097 123.752 -0.32 -0.00    +0.000    125.749
ATOM     16  H   UNL     1      33.064  16.170 122.207 +0.00 -0.00    +0.000    125.749
ATOM     17  C   UNL     1      33.729  17.863 121.180 -0.29 -0.00    +0.000    125.749
ATOM     18  C   UNL     1      32.535  18.214 120.535 -0.39 -0.00    +0.000    125.749
ATOM     19  C   UNL     1      32.554  19.103 119.458 -0.33 -0.00    +0.000    125.749
ATOM     20  C   UNL     1      33.774  19.621 119.022 -0.19 -0.00    +0.000    125.749
ATOM     21  N   UNL     1      34.928  19.254 119.638 -0.19 -0.00    +0.000    125.749
ATOM     22  C   UNL     1      34.936  18.395 120.692 -0.25 -0.00    +0.000    125.749
ATOM     23  CM  UNL     1      33.775  18.755 120.075 +0.00 -0.00    +0.000    125.749
TER
ENDMDL
MODEL       50
USER    Run = 50
USER    Cluster Rank = 9
USER    Number of conformations in this cluster = 2
USER  
USER    RMSD from reference structure       = 125.635 A
USER  
USER    Estimated Free Energy of Binding    =   -9.98 kcal/mol  [=(1)+(2)+(3)-(4)]
USER    Estimated Inhibition Constant, Ki   =   48.03 nM (nanomolar)  [Temperature = 298.15 K]
USER    
USER    (1) Final Intermolecular Energy     =  -12.67 kcal/mol
USER        vdW + Hbond + desolv Energy     =  -12.67 kcal/mol
USER        Electrostatic Energy            =   +0.00 kcal/mol
USER    (2) Final Total Internal Energy     =   -2.07 kcal/mol
USER    (3) Torsional Free Energy           =   +2.68 kcal/mol
USER    (4) Unbound System's Energy  [=(2)] =   -2.07 kcal/mol
USER    
USER    
USER  
USER    DPF = ligand_dock.biased.dpf
USER    NEWDPF move	ligand.dum.pdbqt
USER    NEWDPF about	-0.029000 -0.207000 0.469000
USER    NEWDPF tran0	38.153421 12.056192 121.862327
USER    NEWDPF axisangle0	0.843104 0.536142 -0.041559 -122.088011
USER    NEWDPF quaternion0	0.737709 0.469120 -0.036364 -0.484138
USER    NEWDPF dihe0	-0.14 124.41 46.44 -57.14 122.84 153.32 -65.26 161.78 26.14 
USER  
USER                              x       y       z    vdW   Elec        q     RMS 
ATOM      1  C   UNL     1      36.466  14.463 123.147 -0.49 -0.00    +0.000    125.635
ATOM      2  C   UNL     1      37.980  14.205 123.195 -0.42 -0.00    +0.000    125.635
ATOM      3  C   UNL     1      38.517  13.817 121.810 -0.39 -0.00    +0.000    125.635
ATOM      4  C   UNL     1      37.490  13.033 120.971 -0.49 -0.00    +0.000    125.635
ATOM      5  C   UNL     1      38.056  12.436 119.671 -0.23 -0.00    +0.000    125.635
ATOM      6  O   UNL     1      38.979  10.349 118.959 -0.36 -0.00    +0.000    125.635
ATOM      7  C   UNL     1      38.196  10.943 119.749 +0.17 -0.00    +0.000    125.635
ATOM      8  N   UNL     1      37.426  10.190 120.690 -0.38 -0.00    +0.000    125.635
ATOM      9  H   UNL     1      36.811  10.657 121.302 -0.02 -0.00    +0.000    125.635
ATOM     10  O   UNL     1      37.536   8.842 120.749 -2.19 -0.00    +0.000    125.635
ATOM     11  H   UNL     1      38.175   8.541 120.085 -0.51 -0.00    +0.000    125.635
ATOM     12  C   UNL     1      35.674  13.425 123.955 -0.41 -0.00    +0.000    125.635
ATOM     13  C   UNL     1      36.187  12.036 123.715 -0.69 -0.00    +0.000    125.635
ATOM     14  N   UNL     1      35.455  11.133 122.873 -0.59 -0.00    +0.000    125.635
ATOM     15  O   UNL     1      37.259  11.669 124.268 -0.71 -0.00    +0.000    125.635
ATOM     16  H   UNL     1      34.814  11.517 122.231 -0.03 -0.00    +0.000    125.635
ATOM     17  C   UNL     1      35.597   9.702 122.907 -0.58 -0.00    +0.000    125.635
ATOM     18  C   UNL     1      34.499   8.889 122.593 -0.57 -0.00    +0.000    125.635
ATOM     19  C   UNL     1      34.613   7.499 122.654 -0.63 -0.00    +0.000    125.635
ATOM     20  C   UNL     1      35.826   6.931 123.048 -0.69 -0.00    +0.000    125.635
ATOM     21  N   UNL     1      36.876   7.728 123.377 -2.10 -0.00    +0.000    125.635
ATOM     22  C   UNL     1      36.792   9.084 123.319 -0.36 -0.00    +0.000    125.635
ATOM     23  CM  UNL     1      35.732   8.290 122.994 +0.00 -0.00    +0.000    125.635
TER
ENDMDL
MODEL       29
USER    Run = 29
USER    Cluster Rank = 10
USER    Number of conformations in this cluster = 1
USER  
USER    RMSD from reference structure       = 121.369 A
USER  
USER    Estimated Free Energy of Binding    =   -9.98 kcal/mol  [=(1)+(2)+(3)-(4)]
USER    Estimated Inhibition Constant, Ki   =   48.75 nM (nanomolar)  [Temperature = 298.15 K]
USER    
USER    (1) Final Intermolecular Energy     =  -12.66 kcal/mol
USER        vdW + Hbond + desolv Energy     =  -12.66 kcal/mol
USER        Electrostatic Energy            =   +0.00 kcal/mol
USER    (2) Final Total Internal Energy     =   -1.17 kcal/mol
USER    (3) Torsional Free Energy           =   +2.68 kcal/mol
USER    (4) Unbound System's Energy  [=(2)] =   -1.17 kcal/mol
USER    
USER    
USER  
USER    DPF = ligand_dock.biased.dpf
USER    NEWDPF move	ligand.dum.pdbqt
USER    NEWDPF about	-0.029000 -0.207000 0.469000
USER    NEWDPF tran0	34.767533 12.170702 119.136014
USER    NEWDPF axisangle0	0.661900 -0.707010 -0.249049 -78.377891
USER    NEWDPF quaternion0	0.418241 -0.446745 -0.157369 -0.775066
USER    NEWDPF dihe0	9.63 -147.55 19.94 -73.62 43.97 -5.38 -20.56 49.83 -71.89 
USER  
USER                              x       y       z    vdW   Elec        q     RMS 
ATOM      1  C   UNL     1      37.436  13.436 117.885 -0.41 -0.00    +0.000    121.369
ATOM      2  C   UNL     1      37.007  13.337 119.357 -0.43 -0.00    +0.000    121.369
ATOM      3  C   UNL     1      37.506  12.030 119.990 -0.44 -0.00    +0.000    121.369
ATOM      4  C   UNL     1      37.337  12.007 121.520 -0.50 -0.00    +0.000    121.369
ATOM      5  C   UNL     1      36.264  11.029 122.026 -0.61 -0.00    +0.000    121.369
ATOM      6  O   UNL     1      36.992   8.973 121.046 -2.70 -0.00    +0.000    121.369
ATOM      7  C   UNL     1      36.777   9.619 122.107 -0.67 -0.00    +0.000    121.369
ATOM      8  N   UNL     1      36.993   8.998 123.376 -0.60 -0.00    +0.000    121.369
ATOM      9  H   UNL     1      36.817   9.504 124.203 -0.51 -0.00    +0.000    121.369
ATOM     10  O   UNL     1      37.436   7.722 123.452 -2.18 -0.00    +0.000    121.369
ATOM     11  H   UNL     1      37.702   7.419 122.570 -0.22 -0.00    +0.000    121.369
ATOM     12  C   UNL     1      36.556  14.408 117.087 -0.34 -0.00    +0.000    121.369
ATOM     13  C   UNL     1      36.290  13.895 115.703 -0.32 -0.00    +0.000    121.369
ATOM     14  N   UNL     1      35.015  14.123 115.083 -0.25 -0.00    +0.000    121.369
ATOM     15  O   UNL     1      37.192  13.255 115.096 -0.44 -0.00    +0.000    121.369
ATOM     16  H   UNL     1      34.457  14.857 115.430 +0.00 -0.00    +0.000    121.369
ATOM     17  C   UNL     1      34.499  13.347 113.987 -0.22 -0.00    +0.000    121.369
ATOM     18  C   UNL     1      33.182  12.871 114.035 -0.32 -0.00    +0.000    121.369
ATOM     19  C   UNL     1      32.679  12.089 112.993 -0.44 -0.00    +0.000    121.369
ATOM     20  C   UNL     1      33.508  11.773 111.916 -0.42 -0.00    +0.000    121.369
ATOM     21  N   UNL     1      34.792  12.217 111.892 -0.34 -0.00    +0.000    121.369
ATOM     22  C   UNL     1      35.303  12.985 112.890 -0.28 -0.00    +0.000    121.369
ATOM     23  CM  UNL     1      34.015  12.538 112.924 +0.00 -0.00    +0.000    121.369
TER
ENDMDL
MODEL        5
USER    Run = 5
USER    Cluster Rank = 11
USER    Number of conformations in this cluster = 3
USER  
USER    RMSD from reference structure       = 123.590 A
USER  
USER    Estimated Free Energy of Binding    =   -9.93 kcal/mol  [=(1)+(2)+(3)-(4)]
USER    Estimated Inhibition Constant, Ki   =   52.38 nM (nanomolar)  [Temperature = 298.15 K]
USER    
USER    (1) Final Intermolecular Energy     =  -12.62 kcal/mol
USER        vdW + Hbond + desolv Energy     =  -12.62 kcal/mol
USER        Electrostatic Energy            =   +0.00 kcal/mol
USER    (2) Final Total Internal Energy     =   -1.33 kcal/mol
USER    (3) Torsional Free Energy           =   +2.68 kcal/mol
USER    (4) Unbound System's Energy  [=(2)] =   -1.33 kcal/mol
USER    
USER    
USER  
USER    DPF = ligand_dock.biased.dpf
USER    NEWDPF move	ligand.dum.pdbqt
USER    NEWDPF about	-0.029000 -0.207000 0.469000
USER    NEWDPF tran0	37.295957 11.411265 119.394761
USER    NEWDPF axisangle0	0.617162 0.771923 -0.152466 -164.656827
USER    NEWDPF quaternion0	0.611638 0.765014 -0.151101 -0.133495
USER    NEWDPF dihe0	17.57 134.39 177.92 -97.20 145.70 -25.32 -88.69 179.87 -29.52 
USER  
USER                              x       y       z    vdW   Elec        q     RMS 
ATOM      1  C   UNL     1      36.678  12.527 122.338 -0.57 -0.00    +0.000    123.590
ATOM      2  C   UNL     1      37.682  13.043 121.295 -0.49 -0.00    +0.000    123.590
ATOM      3  C   UNL     1      37.289  12.592 119.881 -0.48 -0.00    +0.000    123.590
ATOM      4  C   UNL     1      37.711  13.599 118.795 -0.34 -0.00    +0.000    123.590
ATOM      5  C   UNL     1      36.768  13.657 117.582 -0.40 -0.00    +0.000    123.590
ATOM      6  O   UNL     1      37.086  13.842 115.220 -0.36 -0.00    +0.000    123.590
ATOM      7  C   UNL     1      37.475  13.320 116.300 -0.42 -0.00    +0.000    123.590
ATOM      8  N   UNL     1      38.562  12.392 116.294 -0.43 -0.00    +0.000    123.590
ATOM      9  H   UNL     1      38.859  11.982 117.139 -0.11 -0.00    +0.000    123.590
ATOM     10  O   UNL     1      39.188  12.072 115.137 -0.77 -0.00    +0.000    123.590
ATOM     11  H   UNL     1      38.983  12.739 114.464 -0.05 -0.00    +0.000    123.590
ATOM     12  C   UNL     1      37.076  11.156 122.900 -0.61 -0.00    +0.000    123.590
ATOM     13  C   UNL     1      36.319  10.048 122.230 -0.66 -0.00    +0.000    123.590
ATOM     14  N   UNL     1      35.023   9.666 122.714 -0.59 -0.00    +0.000    123.590
ATOM     15  O   UNL     1      36.837   9.452 121.246 -2.44 -0.00    +0.000    123.590
ATOM     16  H   UNL     1      34.523  10.315 123.260 -0.37 -0.00    +0.000    123.590
ATOM     17  C   UNL     1      34.406   8.392 122.453 -0.61 -0.00    +0.000    123.590
ATOM     18  C   UNL     1      34.271   7.463 123.493 -0.64 -0.00    +0.000    123.590
ATOM     19  C   UNL     1      33.704   6.211 123.246 -0.64 -0.00    +0.000    123.590
ATOM     20  C   UNL     1      33.292   5.891 121.952 -0.53 -0.00    +0.000    123.590
ATOM     21  N   UNL     1      33.452   6.790 120.945 -0.54 -0.00    +0.000    123.590
ATOM     22  C   UNL     1      33.995   8.018 121.161 -0.56 -0.00    +0.000    123.590
ATOM     23  CM  UNL     1      33.843   7.118 122.174 +0.00 -0.00    +0.000    123.590
TER
ENDMDL
MODEL       93
USER    Run = 93
USER    Cluster Rank = 12
USER    Number of conformations in this cluster = 1
USER  
USER    RMSD from reference structure       = 126.070 A
USER  
USER    Estimated Free Energy of Binding    =   -9.68 kcal/mol  [=(1)+(2)+(3)-(4)]
USER    Estimated Inhibition Constant, Ki   =   80.72 nM (nanomolar)  [Temperature = 298.15 K]
USER    
USER    (1) Final Intermolecular Energy     =  -12.36 kcal/mol
USER        vdW + Hbond + desolv Energy     =  -12.36 kcal/mol
USER        Electrostatic Energy            =   +0.00 kcal/mol
USER    (2) Final Total Internal Energy     =   -1.23 kcal/mol
USER    (3) Torsional Free Energy           =   +2.68 kcal/mol
USER    (4) Unbound System's Energy  [=(2)] =   -1.23 kcal/mol
USER    
USER    
USER  
USER    DPF = ligand_dock.biased.dpf
USER    NEWDPF move	ligand.dum.pdbqt
USER    NEWDPF about	-0.029000 -0.207000 0.469000
USER    NEWDPF tran0	37.644840 13.754210 125.092716
USER    NEWDPF axisangle0	-0.030288 -0.420116 -0.906965 107.176794
USER    NEWDPF quaternion0	-0.024375 -0.338098 -0.729902 0.593582
USER    NEWDPF dihe0	-2.13 -131.75 -171.52 73.87 -174.44 -6.71 -43.53 173.73 177.98 
USER  
USER                              x       y       z    vdW   Elec        q     RMS 
ATOM      1  C   UNL     1      36.756  12.315 122.367 -0.60 -0.00    +0.000    126.070
ATOM      2  C   UNL     1      35.920  13.172 123.330 -0.56 -0.00    +0.000    126.070
ATOM      3  C   UNL     1      36.394  14.632 123.323 -0.49 -0.00    +0.000    126.070
ATOM      4  C   UNL     1      35.409  15.582 124.030 -0.51 -0.00    +0.000    126.070
ATOM      5  C   UNL     1      34.634  16.512 123.082 -0.44 -0.00    +0.000    126.070
ATOM      6  O   UNL     1      35.030  18.504 124.344 -0.30 -0.00    +0.000    126.070
ATOM      7  C   UNL     1      35.068  17.944 123.215 -0.34 -0.00    +0.000    126.070
ATOM      8  N   UNL     1      35.493  18.682 122.066 -0.24 -0.00    +0.000    126.070
ATOM      9  H   UNL     1      35.515  18.243 121.185 -0.00 -0.00    +0.000    126.070
ATOM     10  O   UNL     1      35.867  19.978 122.180 -0.71 -0.00    +0.000    126.070
ATOM     11  H   UNL     1      35.756  20.267 123.099 -0.02 -0.00    +0.000    126.070
ATOM     12  C   UNL     1      37.163  10.972 122.988 -0.51 -0.00    +0.000    126.070
ATOM     13  C   UNL     1      36.412   9.832 122.367 -0.69 -0.00    +0.000    126.070
ATOM     14  N   UNL     1      35.181   9.378 122.950 -0.60 -0.00    +0.000    126.070
ATOM     15  O   UNL     1      36.878   9.272 121.338 -2.52 -0.00    +0.000    126.070
ATOM     16  H   UNL     1      34.695   9.996 123.543 -0.47 -0.00    +0.000    126.070
ATOM     17  C   UNL     1      34.612   8.076 122.724 -0.62 -0.00    +0.000    126.070
ATOM     18  C   UNL     1      33.901   7.827 121.542 -0.59 -0.00    +0.000    126.070
ATOM     19  C   UNL     1      33.316   6.579 121.325 -0.43 -0.00    +0.000    126.070
ATOM     20  C   UNL     1      33.432   5.590 122.303 -0.48 -0.00    +0.000    126.070
ATOM     21  N   UNL     1      34.101   5.850 123.457 -0.62 -0.00    +0.000    126.070
ATOM     22  C   UNL     1      34.685   7.056 123.690 -0.63 -0.00    +0.000    126.070
ATOM     23  CM  UNL     1      34.010   6.803 122.533 +0.00 -0.00    +0.000    126.070
TER
ENDMDL
MODEL        3
USER    Run = 3
USER    Cluster Rank = 13
USER    Number of conformations in this cluster = 1
USER  
USER    RMSD from reference structure       = 127.549 A
USER  
USER    Estimated Free Energy of Binding    =   -9.52 kcal/mol  [=(1)+(2)+(3)-(4)]
USER    Estimated Inhibition Constant, Ki   =  105.83 nM (nanomolar)  [Temperature = 298.15 K]
USER    
USER    (1) Final Intermolecular Energy     =  -12.20 kcal/mol
USER        vdW + Hbond + desolv Energy     =  -12.20 kcal/mol
USER        Electrostatic Energy            =   +0.00 kcal/mol
USER    (2) Final Total Internal Energy     =   -0.85 kcal/mol
USER    (3) Torsional Free Energy           =   +2.68 kcal/mol
USER    (4) Unbound System's Energy  [=(2)] =   -0.85 kcal/mol
USER    
USER    
USER  
USER    DPF = ligand_dock.biased.dpf
USER    NEWDPF move	ligand.dum.pdbqt
USER    NEWDPF about	-0.029000 -0.207000 0.469000
USER    NEWDPF tran0	34.790506 14.911942 120.834015
USER    NEWDPF axisangle0	0.224466 0.972824 -0.056823 172.828827
USER    NEWDPF quaternion0	0.224026 0.970920 -0.056712 0.062539
USER    NEWDPF dihe0	-126.45 119.71 -3.82 -29.99 124.59 -96.64 46.95 -159.60 -29.89 
USER  
USER                              x       y       z    vdW   Elec        q     RMS 
ATOM      1  C   UNL     1      35.019  14.654 124.023 -0.50 -0.00    +0.000    127.549
ATOM      2  C   UNL     1      34.821  15.911 123.163 -0.40 -0.00    +0.000    127.549
ATOM      3  C   UNL     1      34.191  17.046 123.982 -0.44 -0.00    +0.000    127.549
ATOM      4  C   UNL     1      35.205  17.752 124.901 -0.34 -0.00    +0.000    127.549
ATOM      5  C   UNL     1      34.575  18.711 125.924 -0.28 -0.00    +0.000    127.549
ATOM      6  O   UNL     1      32.768  18.703 127.489 -0.26 -0.00    +0.000    127.549
ATOM      7  C   UNL     1      33.580  18.018 126.811 -0.33 -0.00    +0.000    127.549
ATOM      8  N   UNL     1      33.570  16.592 126.913 -0.45 -0.00    +0.000    127.549
ATOM      9  H   UNL     1      34.210  16.061 126.386 -0.04 -0.00    +0.000    127.549
ATOM     10  O   UNL     1      32.687  15.966 127.726 -1.12 -0.00    +0.000    127.549
ATOM     11  H   UNL     1      33.165  15.371 128.324 -0.56 -0.00    +0.000    127.549
ATOM     12  C   UNL     1      36.411  14.034 123.835 -0.51 -0.00    +0.000    127.549
ATOM     13  C   UNL     1      36.369  12.869 122.891 -0.59 -0.00    +0.000    127.549
ATOM     14  N   UNL     1      35.648  11.679 123.248 -0.61 -0.00    +0.000    127.549
ATOM     15  O   UNL     1      36.980  12.943 121.790 -0.49 -0.00    +0.000    127.549
ATOM     16  H   UNL     1      34.952  11.751 123.941 -0.13 -0.00    +0.000    127.549
ATOM     17  C   UNL     1      35.879  10.388 122.657 -0.60 -0.00    +0.000    127.549
ATOM     18  C   UNL     1      35.171   9.274 123.130 -0.49 -0.00    +0.000    127.549
ATOM     19  C   UNL     1      35.409   8.010 122.587 -0.63 -0.00    +0.000    127.549
ATOM     20  C   UNL     1      36.369   7.866 121.585 -0.43 -0.00    +0.000    127.549
ATOM     21  N   UNL     1      37.068   8.948 121.152 -2.61 -0.00    +0.000    127.549
ATOM     22  C   UNL     1      36.851  10.191 121.659 -0.39 -0.00    +0.000    127.549
ATOM     23  CM  UNL     1      36.150   9.109 122.102 +0.00 -0.00    +0.000    127.549
TER
ENDMDL
MODEL       37
USER    Run = 37
USER    Cluster Rank = 14
USER    Number of conformations in this cluster = 1
USER  
USER    RMSD from reference structure       = 127.914 A
USER  
USER    Estimated Free Energy of Binding    =   -9.28 kcal/mol  [=(1)+(2)+(3)-(4)]
USER    Estimated Inhibition Constant, Ki   =  158.70 nM (nanomolar)  [Temperature = 298.15 K]
USER    
USER    (1) Final Intermolecular Energy     =  -11.96 kcal/mol
USER        vdW + Hbond + desolv Energy     =  -11.96 kcal/mol
USER        Electrostatic Energy            =   +0.00 kcal/mol
USER    (2) Final Total Internal Energy     =   -1.29 kcal/mol
USER    (3) Torsional Free Energy           =   +2.68 kcal/mol
USER    (4) Unbound System's Energy  [=(2)] =   -1.29 kcal/mol
USER    
USER    
USER  
USER    DPF = ligand_dock.biased.dpf
USER    NEWDPF move	ligand.dum.pdbqt
USER    NEWDPF about	-0.029000 -0.207000 0.469000
USER    NEWDPF tran0	36.629151 11.834473 123.800703
USER    NEWDPF axisangle0	0.702744 0.534064 -0.470029 -95.183741
USER    NEWDPF quaternion0	0.518878 0.394331 -0.347050 -0.674407
USER    NEWDPF dihe0	18.40 -138.35 -171.04 90.09 157.63 -92.85 -105.31 -129.76 179.62 
USER  
USER                              x       y       z    vdW   Elec        q     RMS 
ATOM      1  C   UNL     1      35.579  14.781 123.092 -0.31 -0.00    +0.000    127.914
ATOM      2  C   UNL     1      37.018  14.245 123.122 -0.50 -0.00    +0.000    127.914
ATOM      3  C   UNL     1      37.038  12.733 123.389 -0.63 -0.00    +0.000    127.914
ATOM      4  C   UNL     1      36.773  11.901 122.120 -0.60 -0.00    +0.000    127.914
ATOM      5  C   UNL     1      35.799  10.729 122.322 -0.65 -0.00    +0.000    127.914
ATOM      6  O   UNL     1      37.066   9.050 121.186 -2.72 -0.00    +0.000    127.914
ATOM      7  C   UNL     1      36.492   9.398 122.253 -0.71 -0.00    +0.000    127.914
ATOM      8  N   UNL     1      36.480   8.515 123.378 -0.64 -0.00    +0.000    127.914
ATOM      9  H   UNL     1      36.025   8.788 124.207 -0.23 -0.00    +0.000    127.914
ATOM     10  O   UNL     1      37.088   7.308 123.312 -2.08 -0.00    +0.000    127.914
ATOM     11  H   UNL     1      37.717   7.302 122.574 -0.27 -0.00    +0.000    127.914
ATOM     12  C   UNL     1      34.957  14.855 124.493 -0.44 -0.00    +0.000    127.914
ATOM     13  C   UNL     1      34.783  16.277 124.941 -0.47 -0.00    +0.000    127.914
ATOM     14  N   UNL     1      35.754  17.270 124.578 -0.30 -0.00    +0.000    127.914
ATOM     15  O   UNL     1      33.783  16.585 125.645 -0.59 -0.00    +0.000    127.914
ATOM     16  H   UNL     1      36.336  17.087 123.806 -0.01 -0.00    +0.000    127.914
ATOM     17  C   UNL     1      35.931  18.518 125.273 -0.20 -0.00    +0.000    127.914
ATOM     18  C   UNL     1      34.889  19.454 125.291 -0.20 -0.00    +0.000    127.914
ATOM     19  C   UNL     1      35.059  20.682 125.933 -0.14 -0.00    +0.000    127.914
ATOM     20  C   UNL     1      36.282  20.971 126.540 -0.07 -0.00    +0.000    127.914
ATOM     21  N   UNL     1      37.295  20.067 126.493 -0.09 -0.00    +0.000    127.914
ATOM     22  C   UNL     1      37.153  18.862 125.880 -0.14 -0.00    +0.000    127.914
ATOM     23  CM  UNL     1      36.134  19.767 125.918 -0.00 -0.00    +0.000    127.914
TER
ENDMDL
MODEL       11
USER    Run = 11
USER    Cluster Rank = 15
USER    Number of conformations in this cluster = 1
USER  
USER    RMSD from reference structure       = 125.549 A
USER  
USER    Estimated Free Energy of Binding    =   -8.47 kcal/mol  [=(1)+(2)+(3)-(4)]
USER    Estimated Inhibition Constant, Ki   =  621.66 nM (nanomolar)  [Temperature = 298.15 K]
USER    
USER    (1) Final Intermolecular Energy     =  -11.15 kcal/mol
USER        vdW + Hbond + desolv Energy     =  -11.15 kcal/mol
USER        Electrostatic Energy            =   +0.00 kcal/mol
USER    (2) Final Total Internal Energy     =   -1.27 kcal/mol
USER    (3) Torsional Free Energy           =   +2.68 kcal/mol
USER    (4) Unbound System's Energy  [=(2)] =   -1.27 kcal/mol
USER    
USER    
USER  
USER    DPF = ligand_dock.biased.dpf
USER    NEWDPF move	ligand.dum.pdbqt
USER    NEWDPF about	-0.029000 -0.207000 0.469000
USER    NEWDPF tran0	34.072379 6.689998 121.812605
USER    NEWDPF axisangle0	0.852286 -0.470227 -0.229119 -124.419823
USER    NEWDPF quaternion0	0.753985 -0.415991 -0.202693 -0.466234
USER    NEWDPF dihe0	-65.17 154.06 -165.40 -175.55 -109.42 -71.94 -166.60 81.62 -160.77 
USER  
USER                              x       y       z    vdW   Elec        q     RMS 
ATOM      1  C   UNL     1      36.506   8.512 122.837 -0.77 -0.00    +0.000    125.549
ATOM      2  C   UNL     1      35.833   7.314 123.525 -0.67 -0.00    +0.000    125.549
ATOM      3  C   UNL     1      34.322   7.541 123.674 -0.67 -0.00    +0.000    125.549
ATOM      4  C   UNL     1      33.497   6.764 122.631 -0.74 -0.00    +0.000    125.549
ATOM      5  C   UNL     1      34.070   6.812 121.205 -0.14 -0.00    +0.000    125.549
ATOM      6  O   UNL     1      32.905   7.357 119.190 -0.74 +0.00    +0.000    125.549
ATOM      7  C   UNL     1      33.304   7.752 120.319 -0.58 -0.00    +0.000    125.549
ATOM      8  N   UNL     1      33.052   9.097 120.734 -0.57 -0.00    +0.000    125.549
ATOM      9  H   UNL     1      33.371   9.404 121.613 -0.07 -0.00    +0.000    125.549
ATOM     10  O   UNL     1      32.379   9.951 119.929 -0.56 -0.00    +0.000    125.549
ATOM     11  H   UNL     1      32.900  10.121 119.129 -0.60 -0.00    +0.000    125.549
ATOM     12  C   UNL     1      35.577   9.731 122.754 -0.67 -0.00    +0.000    125.549
ATOM     13  C   UNL     1      36.252  10.970 123.265 -0.69 -0.00    +0.000    125.549
ATOM     14  N   UNL     1      35.584  12.239 123.188 -0.55 -0.00    +0.000    125.549
ATOM     15  O   UNL     1      37.413  10.885 123.750 -0.66 -0.00    +0.000    125.549
ATOM     16  H   UNL     1      34.604  12.239 123.096 -0.02 -0.00    +0.000    125.549
ATOM     17  C   UNL     1      36.256  13.509 123.236 -0.50 -0.00    +0.000    125.549
ATOM     18  C   UNL     1      37.557  13.624 122.728 -0.46 -0.00    +0.000    125.549
ATOM     19  C   UNL     1      38.233  14.844 122.798 -0.36 -0.00    +0.000    125.549
ATOM     20  C   UNL     1      37.606  15.939 123.394 -0.28 -0.00    +0.000    125.549
ATOM     21  N   UNL     1      36.355  15.810 123.908 -0.37 -0.00    +0.000    125.549
ATOM     22  C   UNL     1      35.673  14.635 123.847 -0.49 -0.00    +0.000    125.549
ATOM     23  CM  UNL     1      36.931  14.756 123.335 +0.00 -0.00    +0.000    125.549
TER
ENDMDL
MODEL       14
USER    Run = 14
USER    Cluster Rank = 16
USER    Number of conformations in this cluster = 2
USER  
USER    RMSD from reference structure       = 126.463 A
USER  
USER    Estimated Free Energy of Binding    =   -8.20 kcal/mol  [=(1)+(2)+(3)-(4)]
USER    Estimated Inhibition Constant, Ki   =  973.54 nM (nanomolar)  [Temperature = 298.15 K]
USER    
USER    (1) Final Intermolecular Energy     =  -10.89 kcal/mol
USER        vdW + Hbond + desolv Energy     =  -10.89 kcal/mol
USER        Electrostatic Energy            =   +0.00 kcal/mol
USER    (2) Final Total Internal Energy     =   -2.38 kcal/mol
USER    (3) Torsional Free Energy           =   +2.68 kcal/mol
USER    (4) Unbound System's Energy  [=(2)] =   -2.38 kcal/mol
USER    
USER    
USER  
USER    DPF = ligand_dock.biased.dpf
USER    NEWDPF move	ligand.dum.pdbqt
USER    NEWDPF about	-0.029000 -0.207000 0.469000
USER    NEWDPF tran0	37.628129 13.438965 124.746898
USER    NEWDPF axisangle0	0.500223 -0.276595 0.820532 -32.040131
USER    NEWDPF quaternion0	0.138048 -0.076333 0.226445 -0.961165
USER    NEWDPF dihe0	-26.34 -170.47 -178.58 -154.33 -39.83 -47.80 81.43 179.04 -16.77 
USER  
USER                              x       y       z    vdW   Elec        q     RMS 
ATOM      1  C   UNL     1      38.145  13.888 121.613 -0.43 -0.00    +0.000    126.463
ATOM      2  C   UNL     1      38.127  14.920 122.752 -0.41 -0.00    +0.000    126.463
ATOM      3  C   UNL     1      38.106  16.351 122.198 -0.23 -0.00    +0.000    126.463
ATOM      4  C   UNL     1      36.951  17.194 122.771 -0.23 -0.00    +0.000    126.463
ATOM      5  C   UNL     1      36.467  16.748 124.160 -0.28 -0.00    +0.000    126.463
ATOM      6  O   UNL     1      34.117  17.096 124.425 -0.49 -0.00    +0.000    126.463
ATOM      7  C   UNL     1      35.038  16.285 124.139 -0.49 -0.00    +0.000    126.463
ATOM      8  N   UNL     1      34.721  14.926 123.827 -0.58 -0.00    +0.000    126.463
ATOM      9  H   UNL     1      35.444  14.293 123.610 -0.03 -0.00    +0.000    126.463
ATOM     10  O   UNL     1      33.436  14.501 123.826 -0.51 -0.00    +0.000    126.463
ATOM     11  H   UNL     1      32.912  15.054 124.426 -0.33 -0.00    +0.000    126.463
ATOM     12  C   UNL     1      36.753  13.302 121.339 -0.31 -0.00    +0.000    126.463
ATOM     13  C   UNL     1      36.467  12.129 122.228 -0.58 -0.00    +0.000    126.463
ATOM     14  N   UNL     1      36.880  10.810 121.837 -0.55 -0.00    +0.000    126.463
ATOM     15  O   UNL     1      35.854  12.312 123.315 -0.67 -0.00    +0.000    126.463
ATOM     16  H   UNL     1      37.597  10.731 121.167 -0.03 -0.00    +0.000    126.463
ATOM     17  C   UNL     1      36.312   9.597 122.362 -0.62 -0.00    +0.000    126.463
ATOM     18  C   UNL     1      34.922   9.419 122.344 -0.57 -0.00    +0.000    126.463
ATOM     19  C   UNL     1      34.355   8.261 122.879 -0.62 -0.00    +0.000    126.463
ATOM     20  C   UNL     1      35.186   7.294 123.447 -0.65 -0.00    +0.000    126.463
ATOM     21  N   UNL     1      36.531   7.489 123.484 -1.74 -0.00    +0.000    126.463
ATOM     22  C   UNL     1      37.107   8.605 122.963 -0.54 -0.00    +0.000    126.463
ATOM     23  CM  UNL     1      35.757   8.419 122.929 +0.00 -0.00    +0.000    126.463
TER
ENDMDL


AVSFLD: # AVS field file
AVSFLD: #
AVSFLD: # Created by AutoDock
AVSFLD: #
AVSFLD: ndim=2           # number of dimensions in the field
AVSFLD: nspace=1         # number of physical coordinates
AVSFLD: veclen=7         # vector size
AVSFLD: dim1=23          # atoms
AVSFLD: dim2=16          # conformations
AVSFLD: data=Real       # data type (byte,integer,Real,double)
AVSFLD: field=uniform    # field coordinate layout
AVSFLD: label= x y z vdW Elec q RMS
AVSFLD: variable 1 file = ligand_dock.biased.dlg.pdb filetype = ascii offset = 5 stride = 12
AVSFLD: variable 2 file = ligand_dock.biased.dlg.pdb filetype = ascii offset = 6 stride = 12
AVSFLD: variable 3 file = ligand_dock.biased.dlg.pdb filetype = ascii offset = 7 stride = 12
AVSFLD: variable 4 file = ligand_dock.biased.dlg.pdb filetype = ascii offset = 8 stride = 12
AVSFLD: variable 5 file = ligand_dock.biased.dlg.pdb filetype = ascii offset = 9 stride = 12
AVSFLD: variable 6 file = ligand_dock.biased.dlg.pdb filetype = ascii offset = 10 stride = 12
AVSFLD: variable 7 file = ligand_dock.biased.dlg.pdb filetype = ascii offset = 11 stride = 12
AVSFLD: # end of file

>>> Closing the docking parameter file (DPF)...
This docking finished at:			6:51 01" p.m., 11/08/2024


________________________________________________________________________________

autodock4: Successful Completion on "ThinkStation-P620"

Real= 11m 54.02s,  CPU= 11m 53.69s,  System= 0.20s
________________________________________________________________________________

