REMARK  Name = 
REMARK  11 active torsions:
REMARK  status: ('A' for Active; 'I' for Inactive)
REMARK    1  A    between atoms: C_2  and  C_5
REMARK    2  A    between atoms: N_3  and  O_4
REMARK    3  A    between atoms: C_6  and  C_7
REMARK    4  A    between atoms: C_10  and  C_11
REMARK    5  A    between atoms: C_11  and  N_12
REMARK    6  A    between atoms: N_12  and  C_13
REMARK    7  A    between atoms: N_12  and  C_16
REMARK    8  A    between atoms: C_13  and  C_14
REMARK    9  A    between atoms: C_14  and  O_15
REMARK   10  A    between atoms: C_16  and  C_17
REMARK   11  A    between atoms: C_17  and  C_18
REMARK                            x       y       z     vdW  Elec       q    Type
REMARK                         _______ _______ _______ _____ _____    ______ ____
ROOT
ATOM      1  N   UNL     1      -0.475  -1.117  -0.016  0.00  0.00     0.000 N 
ATOM      2  H   UNL     1       0.101  -1.016  -0.852  0.00  0.00     0.000 HD
ENDROOT
BRANCH   1   3
ATOM      3  C   UNL     1      -0.088  -0.059   0.942  0.00  0.00     0.000 C 
BRANCH   3   7
ATOM      4  C   UNL     1       4.147   0.756   0.579  0.00  0.00     0.000 A 
ATOM      5  C   UNL     1       3.636   0.139   1.733  0.00  0.00     0.000 A 
ATOM      6  C   UNL     1       2.268  -0.118   1.858  0.00  0.00     0.000 A 
ATOM      7  C   UNL     1       1.385   0.231   0.826  0.00  0.00     0.000 A 
ATOM      8  C   UNL     1       1.891   0.828  -0.337  0.00  0.00     0.000 A 
ATOM      9  C   UNL     1       3.259   1.087  -0.464  0.00  0.00     0.000 A 
ATOM     34  CM  UNL     1       2.764   0.487   0.699  1.00  0.00     0.000 AC
BRANCH   4  11
ATOM     10  C   UNL     1       6.166   1.904  -0.323  0.00  0.00     0.000 C 
ATOM     11  C   UNL     1       5.609   0.997   0.492  0.00  0.00     0.000 C 
BRANCH  10  13
ATOM     12  O   UNL     1       8.076   2.761  -1.401  0.00  0.00     0.000 OA
ATOM     13  C   UNL     1       7.623   2.139  -0.404  0.00  0.00     0.000 C 
ATOM     14  N   UNL     1       8.527   1.709   0.623  0.00  0.00     0.000 N 
ATOM     15  H   UNL     1       8.175   1.315   1.453  0.00  0.00     0.000 HD
BRANCH  14  16
ATOM     16  O   UNL     1       9.864   1.845   0.453  0.00  0.00     0.000 OA
ATOM     17  H   UNL     1      10.040   2.247  -0.412  0.00  0.00     0.000 HD
ENDBRANCH  14  16
ENDBRANCH  10  13
ENDBRANCH   4  11
ENDBRANCH   3   7
ENDBRANCH   1   3
BRANCH   1  18
ATOM     18  C   UNL     1      -0.165  -2.467   0.513  0.00  0.00     0.000 C 
BRANCH  18  19
ATOM     19  C   UNL     1      -0.208  -3.546  -0.581  0.00  0.00     0.000 C 
BRANCH  19  20
ATOM     20  O   UNL     1      -1.516  -4.009  -0.785  0.00  0.00     0.000 OA
ATOM     21  H   UNL     1      -1.852  -4.402   0.035  0.00  0.00     0.000 HD
ENDBRANCH  19  20
ENDBRANCH  18  19
ENDBRANCH   1  18
BRANCH   1  22
ATOM     22  C   UNL     1      -1.868  -0.951  -0.496  0.00  0.00     0.000 C 
BRANCH  22  23
ATOM     23  C   UNL     1      -2.940  -1.161   0.592  0.00  0.00     0.000 C 
BRANCH  23  24
ATOM     24  C   UNL     1      -4.291  -0.776   0.071  0.00  0.00     0.000 A 
ATOM     25  C   UNL     1      -5.222  -1.620  -0.529  0.00  0.00     0.000 A 
ATOM     26  N   UNL     1      -6.297  -0.914  -0.947  0.00  0.00     0.000 N 
ATOM     27  C   UNL     1      -6.047   0.368  -0.630  0.00  0.00     0.000 A 
ATOM     28  C   UNL     1      -4.829   0.493  -0.013  0.00  0.00     0.000 A 
ATOM     29  C   UNL     1      -4.330   1.733   0.388  0.00  0.00     0.000 A 
ATOM     30  C   UNL     1      -5.127   2.868   0.148  0.00  0.00     0.000 A 
ATOM     31  C   UNL     1      -6.384   2.740  -0.483  0.00  0.00     0.000 A 
ATOM     32  C   UNL     1      -6.856   1.475  -0.882  0.00  0.00     0.000 A 
ATOM     33  H   UNL     1      -7.100  -1.268  -1.393  0.00  0.00     0.000 HD
ATOM     35  CM  UNL     1      -5.368  -0.503  -0.427  1.00  0.00     0.000 AC
ATOM     36  CM  UNL     1      -5.596   1.613  -0.245  1.00  0.00     0.000 AC
ENDBRANCH  23  24
ENDBRANCH  22  23
ENDBRANCH   1  22
TORSDOF 11