          AutoDock 4.2 Release 4.2.6   
         (C) 1989-2012 The Scripps Research Institute
        AutoDock comes with ABSOLUTELY NO WARRANTY.
        AutoDock is free software, and you are welcome
        to redistribute it under certain conditions;
        for details type 'autodock4 -C'

                     main.cc  $Revision: 1.213 $

                   Compiled on Feb 20 2022 at 09:48:33


This file was created at:			6:39 07" p.m., 11/08/2024
                   on host:		"ThinkStation-P620"
Current Working Directory = "/home/antonio/Documenti/buccheri/IDROSSAMICO HDAC/HDAC 8/P (copia)/Ligand_7"

      ________________________________________________________________

                   SETTING UP DEFAULT PARAMETER LIBRARY
      ________________________________________________________________


Random number generator was seeded with values 358158, 1731087547.
Docking parameter file (DPF) used for this docking:		ligand_dock.biased.dpf
DPF> parameter_file ad4_arom_params.dat

Using read_parameter_library() to try to open and read "ad4_arom_params.dat".

DPF> autodock_parameter_version 4.2       # used by autodock to validate parameter set

	Autodock parameter version 4.2.
DPF> outlev 1                             # diagnostic output level

Output Level = 1  ADT-COMPATIBLE OUTPUT DURING DOCKING.
DPF> intelec                              # calculate internal electrostatics

Electrostatic energies will be calculated for all non-bonds between moving atoms.
DPF> seed pid time                        # seeds for random generator

Random number generator was seeded with values 358158, 1731087547.
DPF> ligand_types A C OA HD N AC

WARNING: pairwise distance, Rij, 0.00, is not a very reasonable value for the equilibrium separation of two atoms! (0.90 Angstroms <= Rij <= 6.00 Angstroms)

Perhaps you meant to use "intnbp_coeffs" instead of "intnbp_r_eps"?

DPF> fld receptor.maps.fld                # grid_data_file

Opening Grid Map Dimensions file:		receptor.maps.fld
Grid Point Spacing =				0.375 Angstroms

Even Number of User-specified Grid Points =	70 x-points
						70 y-points
						70 z-points

Coordinates of Central Grid Point of Maps =	(36.691, 12.592, 124.207)
Macromolecule file used to create Grid Maps =	receptor.pdbqt
Grid Parameter file used to create Grid Maps =	receptor.gpf
Minimum coordinates in grid = (23.566, -0.533, 111.082)
Maximum coordinates in grid = (49.816, 25.717, 137.332)

DPF> map receptor.A.map                   # atom-specific affinity map

DPF> map receptor.C.map                   # atom-specific affinity map

DPF> map receptor.OA.biased.map

DPF> map receptor.HD.map                  # atom-specific affinity map

DPF> map receptor.N.map                   # atom-specific affinity map

DPF> map receptor.AC.biased.map

DPF> elecmap receptor.e.map               # electrostatics map

DPF> desolvmap receptor.d.map             # desolvation map

DPF> move ligand.dum.pdbqt

1,4-interactions will be _ignored_ in the non-bonded internal energy calculation.

Ligand PDBQT file = "ligand.dum.pdbqt"

INPUT LIGAND PDBQT FILE:
________________________

INPUT-LIGAND-PDBQT: REMARK  Name = 
INPUT-LIGAND-PDBQT: REMARK  11 active torsions:
INPUT-LIGAND-PDBQT: REMARK  status: ('A' for Active; 'I' for Inactive)
INPUT-LIGAND-PDBQT: REMARK    1  A    between atoms: C_2  and  C_5
INPUT-LIGAND-PDBQT: REMARK    2  A    between atoms: N_3  and  O_4
INPUT-LIGAND-PDBQT: REMARK    3  A    between atoms: C_6  and  C_7
INPUT-LIGAND-PDBQT: REMARK    4  A    between atoms: C_10  and  C_11
INPUT-LIGAND-PDBQT: REMARK    5  A    between atoms: C_11  and  N_12
INPUT-LIGAND-PDBQT: REMARK    6  A    between atoms: N_12  and  C_13
INPUT-LIGAND-PDBQT: REMARK    7  A    between atoms: N_12  and  C_16
INPUT-LIGAND-PDBQT: REMARK    8  A    between atoms: C_13  and  C_14
INPUT-LIGAND-PDBQT: REMARK    9  A    between atoms: C_14  and  O_15
INPUT-LIGAND-PDBQT: REMARK   10  A    between atoms: C_16  and  C_17
INPUT-LIGAND-PDBQT: REMARK   11  A    between atoms: C_17  and  C_18
INPUT-LIGAND-PDBQT: REMARK                            x       y       z     vdW  Elec       q    Type
INPUT-LIGAND-PDBQT: REMARK                         _______ _______ _______ _____ _____    ______ ____
INPUT-LIGAND-PDBQT: ROOT
INPUT-LIGAND-PDBQT: ATOM      1  N   UNL     1      -0.475  -1.117  -0.016  0.00  0.00     0.000 N 
INPUT-LIGAND-PDBQT: ATOM      2  H   UNL     1       0.101  -1.016  -0.852  0.00  0.00     0.000 HD
INPUT-LIGAND-PDBQT: ENDROOT
INPUT-LIGAND-PDBQT: BRANCH   1   3
INPUT-LIGAND-PDBQT: ATOM      3  C   UNL     1      -0.088  -0.059   0.942  0.00  0.00     0.000 C 
INPUT-LIGAND-PDBQT: BRANCH   3   7
INPUT-LIGAND-PDBQT: ATOM      4  C   UNL     1       4.147   0.756   0.579  0.00  0.00     0.000 A 
INPUT-LIGAND-PDBQT: ATOM      5  C   UNL     1       3.636   0.139   1.733  0.00  0.00     0.000 A 
INPUT-LIGAND-PDBQT: ATOM      6  C   UNL     1       2.268  -0.118   1.858  0.00  0.00     0.000 A 
INPUT-LIGAND-PDBQT: ATOM      7  C   UNL     1       1.385   0.231   0.826  0.00  0.00     0.000 A 
INPUT-LIGAND-PDBQT: ATOM      8  C   UNL     1       1.891   0.828  -0.337  0.00  0.00     0.000 A 
INPUT-LIGAND-PDBQT: ATOM      9  C   UNL     1       3.259   1.087  -0.464  0.00  0.00     0.000 A 
INPUT-LIGAND-PDBQT: ATOM     34  CM  UNL     1       2.764   0.487   0.699  1.00  0.00     0.000 AC
INPUT-LIGAND-PDBQT: BRANCH   4  11
INPUT-LIGAND-PDBQT: ATOM     10  C   UNL     1       6.166   1.904  -0.323  0.00  0.00     0.000 C 
INPUT-LIGAND-PDBQT: ATOM     11  C   UNL     1       5.609   0.997   0.492  0.00  0.00     0.000 C 
INPUT-LIGAND-PDBQT: BRANCH  10  13
INPUT-LIGAND-PDBQT: ATOM     12  O   UNL     1       8.076   2.761  -1.401  0.00  0.00     0.000 OA
INPUT-LIGAND-PDBQT: ATOM     13  C   UNL     1       7.623   2.139  -0.404  0.00  0.00     0.000 C 
INPUT-LIGAND-PDBQT: ATOM     14  N   UNL     1       8.527   1.709   0.623  0.00  0.00     0.000 N 
INPUT-LIGAND-PDBQT: ATOM     15  H   UNL     1       8.175   1.315   1.453  0.00  0.00     0.000 HD
INPUT-LIGAND-PDBQT: BRANCH  14  16
INPUT-LIGAND-PDBQT: ATOM     16  O   UNL     1       9.864   1.845   0.453  0.00  0.00     0.000 OA
INPUT-LIGAND-PDBQT: ATOM     17  H   UNL     1      10.040   2.247  -0.412  0.00  0.00     0.000 HD
INPUT-LIGAND-PDBQT: ENDBRANCH  14  16
INPUT-LIGAND-PDBQT: ENDBRANCH  10  13
INPUT-LIGAND-PDBQT: ENDBRANCH   4  11
INPUT-LIGAND-PDBQT: ENDBRANCH   3   7
INPUT-LIGAND-PDBQT: ENDBRANCH   1   3
INPUT-LIGAND-PDBQT: BRANCH   1  18
INPUT-LIGAND-PDBQT: ATOM     18  C   UNL     1      -0.165  -2.467   0.513  0.00  0.00     0.000 C 
INPUT-LIGAND-PDBQT: BRANCH  18  19
INPUT-LIGAND-PDBQT: ATOM     19  C   UNL     1      -0.208  -3.546  -0.581  0.00  0.00     0.000 C 
INPUT-LIGAND-PDBQT: BRANCH  19  20
INPUT-LIGAND-PDBQT: ATOM     20  O   UNL     1      -1.516  -4.009  -0.785  0.00  0.00     0.000 OA
INPUT-LIGAND-PDBQT: ATOM     21  H   UNL     1      -1.852  -4.402   0.035  0.00  0.00     0.000 HD
INPUT-LIGAND-PDBQT: ENDBRANCH  19  20
INPUT-LIGAND-PDBQT: ENDBRANCH  18  19
INPUT-LIGAND-PDBQT: ENDBRANCH   1  18
INPUT-LIGAND-PDBQT: BRANCH   1  22
INPUT-LIGAND-PDBQT: ATOM     22  C   UNL     1      -1.868  -0.951  -0.496  0.00  0.00     0.000 C 
INPUT-LIGAND-PDBQT: BRANCH  22  23
INPUT-LIGAND-PDBQT: ATOM     23  C   UNL     1      -2.940  -1.161   0.592  0.00  0.00     0.000 C 
INPUT-LIGAND-PDBQT: BRANCH  23  24
INPUT-LIGAND-PDBQT: ATOM     24  C   UNL     1      -4.291  -0.776   0.071  0.00  0.00     0.000 A 
INPUT-LIGAND-PDBQT: ATOM     25  C   UNL     1      -5.222  -1.620  -0.529  0.00  0.00     0.000 A 
INPUT-LIGAND-PDBQT: ATOM     26  N   UNL     1      -6.297  -0.914  -0.947  0.00  0.00     0.000 N 
INPUT-LIGAND-PDBQT: ATOM     27  C   UNL     1      -6.047   0.368  -0.630  0.00  0.00     0.000 A 
INPUT-LIGAND-PDBQT: ATOM     28  C   UNL     1      -4.829   0.493  -0.013  0.00  0.00     0.000 A 
INPUT-LIGAND-PDBQT: ATOM     29  C   UNL     1      -4.330   1.733   0.388  0.00  0.00     0.000 A 
INPUT-LIGAND-PDBQT: ATOM     30  C   UNL     1      -5.127   2.868   0.148  0.00  0.00     0.000 A 
INPUT-LIGAND-PDBQT: ATOM     31  C   UNL     1      -6.384   2.740  -0.483  0.00  0.00     0.000 A 
INPUT-LIGAND-PDBQT: ATOM     32  C   UNL     1      -6.856   1.475  -0.882  0.00  0.00     0.000 A 
INPUT-LIGAND-PDBQT: ATOM     33  H   UNL     1      -7.100  -1.268  -1.393  0.00  0.00     0.000 HD
INPUT-LIGAND-PDBQT: ATOM     35  CM  UNL     1      -5.368  -0.503  -0.427  1.00  0.00     0.000 AC
INPUT-LIGAND-PDBQT: ATOM     36  CM  UNL     1      -5.596   1.613  -0.245  1.00  0.00     0.000 AC
INPUT-LIGAND-PDBQT: ENDBRANCH  23  24
INPUT-LIGAND-PDBQT: ENDBRANCH  22  23
INPUT-LIGAND-PDBQT: ENDBRANCH   1  22
INPUT-LIGAND-PDBQT: TORSDOF 11________________________________________________________________________________

Total charge on ligand                               =	+0.000 e
REMARK  Name = 
REMARK  11 active torsions:
REMARK  status: ('A' for Active; 'I' for Inactive)
REMARK    1  A    between atoms: C_2  and  C_5
REMARK    2  A    between atoms: N_3  and  O_4
REMARK    3  A    between atoms: C_6  and  C_7
REMARK    4  A    between atoms: C_10  and  C_11
REMARK    5  A    between atoms: C_11  and  N_12
REMARK    6  A    between atoms: N_12  and  C_13
REMARK    7  A    between atoms: N_12  and  C_16
REMARK    8  A    between atoms: C_13  and  C_14
REMARK    9  A    between atoms: C_14  and  O_15
REMARK   10  A    between atoms: C_16  and  C_17
REMARK   11  A    between atoms: C_17  and  C_18
REMARK                            x       y       z     vdW  Elec       q    Type
REMARK                         _______ _______ _______ _____ _____    ______ ____


Number of Rotatable Bonds in Small Molecule =	11 torsions
Number of atoms in ligand:  36

Number of non-hydrogen atoms in ligand:  31

Number of vibrational degrees of freedom of ligand:  102


Number of torsional degrees of freedom = 11
Estimated loss of torsional free energy upon binding = +3.2813 kcal/mol


DPF> about 0.460 0.128 -0.007            # small molecule center

Small molecule center of rotation =	(+0.460, +0.128, -0.007)

DPF> tran0 random                         # initial coordinates/A or random

Initial translation =			(45.354, 24.154, 114.039) Angstroms
DPF> quaternion0 random                   # initial orientation

Each run will begin with a new, random initial orientation.
Initial quaternion,  (x,y,z,w) =	( -0.672, -0.554, 0.243, 0.427 ),
DPF> dihe0 random                         # initial dihedrals (relative) or random

DPF> torsdof 11                            # torsional degrees of freedom

Number of torsional degrees of freedom = 11
Free energy coefficient for torsional degrees of freedom = 0.2983 as specified in parameter library "ad4_arom_params.dat".

Estimated loss of torsional free energy upon binding = +3.2813 kcal/mol

DPF> rmstol 2.0                           # cluster_tolerance/A

Maximum RMS tolerance for conformational cluster analysis = 2.00 Angstroms
DPF> extnrg 1000.0                        # external grid energy

External grid energy (beyond grid map walls) = 1000.00

DPF> e0max 0.0 10000                      # max initial energy; max number of retries

Using user-specified maximum number of retries for simanneal initialization, 10000 retries.
If the simanneal initial energy is greater than e0max, 0.000,
then a new, random initial state will be created.

DPF> ga_pop_size 150                      # number of individuals in population

A population of 150 individuals will be used
DPF> ga_num_evals 2500000                 # maximum number of energy evaluations

There will be at most 2500000 function evaluations used.
DPF> ga_num_generations 27000             # maximum number of generations

The GA will run for at most 27000 generations.
DPF> ga_elitism 1                         # number of top individuals to survive to next generation

The 1 best will be preserved each GA generation.
DPF> ga_mutation_rate 0.02                # rate of gene mutation

The mutation rate is 0.020000.
DPF> ga_crossover_rate 0.8                # rate of crossover

The crossover rate is 0.800000.
DPF> ga_window_size 10                    # 

The GA's selection window is 10 generations.
DPF> ga_cauchy_alpha 0.0                  # Alpha parameter of Cauchy distribution

The alpha parameter (for the Cauchy distribution) is being set to 0.000000.
DPF> ga_cauchy_beta 1.0                   # Beta parameter Cauchy distribution

The beta parameter (for the Cauchy distribution) is being set to 1.000000.
DPF> set_ga                               # set the above parameters for GA or LGA

DPF> sw_max_its 300                       # iterations of Solis & Wets local search

Solis & Wets algorithms will perform at most 300 iterations.
DPF> sw_max_succ 4                        # consecutive successes before changing rho

Solis & Wets algorithms expand rho every 4 in a row successes.
DPF> sw_max_fail 4                        # consecutive failures before changing rho

Solis & Wets algorithms contract rho every 4 in a row failures.
DPF> sw_rho 1.0                           # size of local search space to sample

rho is set to 1.000000.
DPF> sw_lb_rho 0.01                       # lower bound on rho

rho will never get smaller than 0.010000.
DPF> ls_search_freq 0.06                  # probability of performing local search on individual

Local search will be performed with frequency 0.060000.
DPF> set_psw1                             # set the above pseudo-Solis & Wets parameters

Creating a new Local Search object using the pseudo-Solis-Wets algorithm (pSW1) with the current settings.

DPF> unbound_model bound                  # state of unbound ligand

DPF> ga_run 100                           # do this many hybrid GA-LS runs

centering ligand on specified point: 0.460 0.128 -0.007
Furthest true ligand atom from "about" center is 9.820 Angstroms (maxrad).
Number of requested GA dockings = 100 runs
Unbound model to be used is 'same as bound' [AutoDock 4.2 default].

	BEGINNING GENETIC ALGORITHM DOCKING 1 of 100
Run: 1 Seed: 1175220087 1958352553 [ Run 1 of 100 GA/GALS ]
Beginning LAMARCKIAN GENETIC ALGORITHM (LGA), with a maximum of 2500000 energy evaluations.

Final-Value: -17.643


	FINAL GENETIC ALGORITHM DOCKED STATE
	_______________________________________________


Detailed state:  trans 35.409 18.692 122.956 quatxyzw -0.316819 -0.765878 0.558802 -0.028238 center 0.460 0.128 -0.007 ntor 11 5.5004 171.2863 47.4281 58.9437 126.6938 14.9125 17.4636 3.5909 148.9898 -16.2718 -159.4773
State:	 35.409  18.692 122.956  -0.317 -0.766  0.559 -176.764      5.50  171.29   47.43   58.94  126.69   14.91   17.46    3.59  148.99  -16.27 -159.48

DOCKED: MODEL        1
DOCKED: USER    Run = 1
DOCKED: USER    DPF = ligand_dock.biased.dpf
DOCKED: USER  
DOCKED: USER    Estimated Free Energy of Binding    =  -11.78 kcal/mol  [=(1)+(2)+(3)-(4)]
DOCKED: USER    Estimated Inhibition Constant, Ki   =    2.30 nM (nanomolar)  [Temperature = 298.15 K]
DOCKED: USER    
DOCKED: USER    (1) Final Intermolecular Energy     =  -15.07 kcal/mol
DOCKED: USER        vdW + Hbond + desolv Energy     =  -15.07 kcal/mol
DOCKED: USER        Electrostatic Energy            =   +0.00 kcal/mol
DOCKED: USER    (2) Final Total Internal Energy     =   -2.58 kcal/mol
DOCKED: USER    (3) Torsional Free Energy           =   +3.28 kcal/mol
DOCKED: USER    (4) Unbound System's Energy  [=(2)] =   -2.58 kcal/mol
DOCKED: USER    
DOCKED: USER    
DOCKED: USER    NEWDPF move ligand.dum.pdbqt
DOCKED: USER    NEWDPF about 0.460000 0.128000 -0.007000
DOCKED: USER    NEWDPF tran0 35.409155 18.692139 122.955962
DOCKED: USER    NEWDPF quaternion0 -0.316819 -0.765878 0.558802 -0.028238
DOCKED: USER    NEWDPF axisangle0 -0.316946 -0.766183 0.559025 -176.763693
DOCKED: USER    NEWDPF quat0 -0.316946 -0.766183 0.559025 -176.763693
DOCKED: USER    NEWDPF dihe0 5.50 171.29 47.43 58.94 126.69 14.91 17.46 3.59 148.99 -16.27 -159.48 
DOCKED: USER  keepresnum = 1 
DOCKED: USER  
DOCKED: REMARK  Name = 
DOCKED: REMARK  11 active torsions:
DOCKED: REMARK  status: ('A' for Active; 'I' for Inactive)
DOCKED: REMARK    1  A    between atoms: C_2  and  C_5
DOCKED: REMARK    2  A    between atoms: N_3  and  O_4
DOCKED: REMARK    3  A    between atoms: C_6  and  C_7
DOCKED: REMARK    4  A    between atoms: C_10  and  C_11
DOCKED: REMARK    5  A    between atoms: C_11  and  N_12
DOCKED: REMARK    6  A    between atoms: N_12  and  C_13
DOCKED: REMARK    7  A    between atoms: N_12  and  C_16
DOCKED: REMARK    8  A    between atoms: C_13  and  C_14
DOCKED: REMARK    9  A    between atoms: C_14  and  O_15
DOCKED: REMARK   10  A    between atoms: C_16  and  C_17
DOCKED: REMARK   11  A    between atoms: C_17  and  C_18
DOCKED: REMARK                            x       y       z     vdW  Elec       q    Type
DOCKED: REMARK                         _______ _______ _______ _____ _____    ______ ____
DOCKED: USER                              x       y       z     vdW  Elec       q    Type
DOCKED: USER                           _______ _______ _______ _____ _____    ______ ____
DOCKED: ROOT
DOCKED: ATOM      1  N   UNL     1      35.594  17.999 124.338 -0.26 -0.00    +0.000 N 
DOCKED: ATOM      2  H   UNL     1      35.512  19.015 124.383 -0.00 -0.00    +0.000 HD
DOCKED: ENDROOT
DOCKED: BRANCH   1   3
DOCKED: ATOM      3  C   UNL     1      35.384  17.581 122.935 -0.33 -0.00    +0.000 C 
DOCKED: BRANCH   3   7
DOCKED: ATOM      4  C   UNL     1      36.613  13.460 122.445 -0.41 -0.00    +0.000 A 
DOCKED: ATOM      5  C   UNL     1      37.115  14.459 121.595 -0.29 -0.00    +0.000 A 
DOCKED: ATOM      6  C   UNL     1      36.714  15.790 121.744 -0.22 -0.00    +0.000 A 
DOCKED: ATOM      7  C   UNL     1      35.808  16.147 122.753 -0.30 -0.00    +0.000 A 
DOCKED: ATOM      8  C   UNL     1      35.319  15.158 123.618 -0.46 -0.00    +0.000 A 
DOCKED: ATOM      9  C   UNL     1      35.718  13.827 123.470 -0.46 -0.00    +0.000 A 
DOCKED: ATOM     10  CM  UNL     1      36.214  14.807 122.604 +0.00 -0.00    +0.000 AC
DOCKED: BRANCH   4  11
DOCKED: ATOM     11  C   UNL     1      36.298  10.988 122.425 -0.68 -0.00    +0.000 C 
DOCKED: ATOM     12  C   UNL     1      37.079  12.064 122.251 -0.59 -0.00    +0.000 C 
DOCKED: BRANCH  10  13
DOCKED: ATOM     13  O   UNL     1      37.017   9.211 121.058 -2.72 -0.00    +0.000 OA
DOCKED: ATOM     14  C   UNL     1      36.768   9.601 122.229 -0.68 -0.00    +0.000 C 
DOCKED: ATOM     15  N   UNL     1      36.977   8.700 123.326 -0.66 -0.00    +0.000 N 
DOCKED: ATOM     16  H   UNL     1      36.886   9.024 124.250 -0.49 -0.00    +0.000 HD
DOCKED: BRANCH  14  16
DOCKED: ATOM     17  O   UNL     1      37.299   7.406 123.091 -2.05 -0.00    +0.000 OA
DOCKED: ATOM     18  H   UNL     1      37.433   7.274 122.139 -0.15 -0.00    +0.000 HD
DOCKED: ENDBRANCH  14  16
DOCKED: ENDBRANCH  10  13
DOCKED: ENDBRANCH   4  11
DOCKED: ENDBRANCH   3   7
DOCKED: ENDBRANCH   1   3
DOCKED: BRANCH   1  18
DOCKED: ATOM     19  C   UNL     1      34.524  17.480 125.223 -0.41 -0.00    +0.000 C 
DOCKED: BRANCH  18  19
DOCKED: ATOM     20  C   UNL     1      33.539  18.579 125.654 -0.34 -0.00    +0.000 C 
DOCKED: BRANCH  19  20
DOCKED: ATOM     21  O   UNL     1      34.201  19.796 125.871 -0.24 -0.00    +0.000 OA
DOCKED: ATOM     22  H   UNL     1      33.954  20.427 125.178 -0.02 -0.00    +0.000 HD
DOCKED: ENDBRANCH  19  20
DOCKED: ENDBRANCH  18  19
DOCKED: ENDBRANCH   1  18
DOCKED: BRANCH   1  22
DOCKED: ATOM     23  C   UNL     1      36.971  17.710 124.805 -0.07 -0.00    +0.000 C 
DOCKED: BRANCH  22  23
DOCKED: ATOM     24  C   UNL     1      38.012  18.770 124.395 -0.17 -0.00    +0.000 C 
DOCKED: BRANCH  23  24
DOCKED: ATOM     25  C   UNL     1      39.343  18.456 125.007 -0.20 -0.00    +0.000 A 
DOCKED: ATOM     26  C   UNL     1      40.484  18.021 124.338 -0.26 -0.00    +0.000 A 
DOCKED: ATOM     27  N   UNL     1      41.476  17.760 125.220 -0.31 -0.00    +0.000 N 
DOCKED: ATOM     28  C   UNL     1      40.967  18.011 126.438 -0.32 -0.00    +0.000 A 
DOCKED: ATOM     29  C   UNL     1      39.665  18.432 126.350 -0.22 -0.00    +0.000 A 
DOCKED: ATOM     30  C   UNL     1      38.908  18.728 127.484 -0.16 -0.00    +0.000 A 
DOCKED: ATOM     31  C   UNL     1      39.530  18.592 128.740 -0.22 -0.00    +0.000 A 
DOCKED: ATOM     32  C   UNL     1      40.872  18.164 128.832 -0.36 -0.00    +0.000 A 
DOCKED: ATOM     33  C   UNL     1      41.607  17.866 127.668 -0.43 -0.00    +0.000 A 
DOCKED: ATOM     34  H   UNL     1      42.386  17.449 125.011 -0.60 -0.00    +0.000 HD
DOCKED: ATOM     35  CM  UNL     1      40.422  18.124 125.463 +0.00 -0.00    +0.000 AC
DOCKED: ATOM     36  CM  UNL     1      40.259  18.299 127.585 +0.00 -0.00    +0.000 AC
DOCKED: ENDBRANCH  23  24
DOCKED: ENDBRANCH  22  23
DOCKED: ENDBRANCH   1  22
DOCKED: TORSDOF 11DOCKED: TER
DOCKED: ENDMDL
________________________________________________________________________________


	BEGINNING GENETIC ALGORITHM DOCKING 2 of 100
Run: 2 Seed: 1782424471 2019655400 [ Run 2 of 100 GA/GALS ]
Beginning LAMARCKIAN GENETIC ALGORITHM (LGA), with a maximum of 2500000 energy evaluations.

Final-Value: -16.987


	FINAL GENETIC ALGORITHM DOCKED STATE
	_______________________________________________


Detailed state:  trans 37.595 14.495 122.339 quatxyzw 0.730253 -0.298624 0.590079 0.171352 center 0.460 0.128 -0.007 ntor 11 10.0667 119.9616 -14.8183 -157.6211 37.1653 -146.9346 174.0543 -152.7589 -169.8720 -117.6689 40.1714
State:	 37.595  14.495 122.339   0.741 -0.303  0.599 160.267     10.07  119.96  -14.82 -157.62   37.17 -146.93  174.05 -152.76 -169.87 -117.67   40.17

DOCKED: MODEL        2
DOCKED: USER    Run = 2
DOCKED: USER    DPF = ligand_dock.biased.dpf
DOCKED: USER  
DOCKED: USER    Estimated Free Energy of Binding    =  -11.02 kcal/mol  [=(1)+(2)+(3)-(4)]
DOCKED: USER    Estimated Inhibition Constant, Ki   =    8.33 nM (nanomolar)  [Temperature = 298.15 K]
DOCKED: USER    
DOCKED: USER    (1) Final Intermolecular Energy     =  -14.30 kcal/mol
DOCKED: USER        vdW + Hbond + desolv Energy     =  -14.30 kcal/mol
DOCKED: USER        Electrostatic Energy            =   +0.00 kcal/mol
DOCKED: USER    (2) Final Total Internal Energy     =   -2.68 kcal/mol
DOCKED: USER    (3) Torsional Free Energy           =   +3.28 kcal/mol
DOCKED: USER    (4) Unbound System's Energy  [=(2)] =   -2.68 kcal/mol
DOCKED: USER    
DOCKED: USER    
DOCKED: USER    NEWDPF move ligand.dum.pdbqt
DOCKED: USER    NEWDPF about 0.460000 0.128000 -0.007000
DOCKED: USER    NEWDPF tran0 37.595116 14.495009 122.339152
DOCKED: USER    NEWDPF quaternion0 0.730253 -0.298624 0.590079 0.171352
DOCKED: USER    NEWDPF axisangle0 0.741216 -0.303107 0.598937 160.267122
DOCKED: USER    NEWDPF quat0 0.741216 -0.303107 0.598937 160.267122
DOCKED: USER    NEWDPF dihe0 10.07 119.96 -14.82 -157.62 37.17 -146.93 174.05 -152.76 -169.87 -117.67 40.17 
DOCKED: USER  keepresnum = 1 
DOCKED: USER  
DOCKED: REMARK  Name = 
DOCKED: REMARK  11 active torsions:
DOCKED: REMARK  status: ('A' for Active; 'I' for Inactive)
DOCKED: REMARK    1  A    between atoms: C_2  and  C_5
DOCKED: REMARK    2  A    between atoms: N_3  and  O_4
DOCKED: REMARK    3  A    between atoms: C_6  and  C_7
DOCKED: REMARK    4  A    between atoms: C_10  and  C_11
DOCKED: REMARK    5  A    between atoms: C_11  and  N_12
DOCKED: REMARK    6  A    between atoms: N_12  and  C_13
DOCKED: REMARK    7  A    between atoms: N_12  and  C_16
DOCKED: REMARK    8  A    between atoms: C_13  and  C_14
DOCKED: REMARK    9  A    between atoms: C_14  and  O_15
DOCKED: REMARK   10  A    between atoms: C_16  and  C_17
DOCKED: REMARK   11  A    between atoms: C_17  and  C_18
DOCKED: REMARK                            x       y       z     vdW  Elec       q    Type
DOCKED: REMARK                         _______ _______ _______ _____ _____    ______ ____
DOCKED: USER                              x       y       z     vdW  Elec       q    Type
DOCKED: USER                           _______ _______ _______ _____ _____    ______ ____
DOCKED: ROOT
DOCKED: ATOM      1  N   UNL     1      37.761  16.043 122.382 -0.24 -0.00    +0.000 N 
DOCKED: ATOM      2  H   UNL     1      37.003  15.683 122.963 -0.01 -0.00    +0.000 HD
DOCKED: ENDROOT
DOCKED: BRANCH   1   3
DOCKED: ATOM      3  C   UNL     1      38.485  14.891 121.803 -0.37 -0.00    +0.000 C 
DOCKED: BRANCH   3   7
DOCKED: ATOM      4  C   UNL     1      36.454  11.198 122.787 -0.61 -0.00    +0.000 A 
DOCKED: ATOM      5  C   UNL     1      36.850  11.464 121.466 -0.47 -0.00    +0.000 A 
DOCKED: ATOM      6  C   UNL     1      37.498  12.659 121.142 -0.46 -0.00    +0.000 A 
DOCKED: ATOM      7  C   UNL     1      37.770  13.608 122.137 -0.43 -0.00    +0.000 A 
DOCKED: ATOM      8  C   UNL     1      37.397  13.340 123.462 -0.47 -0.00    +0.000 A 
DOCKED: ATOM      9  C   UNL     1      36.748  12.146 123.788 -0.60 -0.00    +0.000 A 
DOCKED: ATOM     10  CM  UNL     1      37.120  12.403 122.464 +0.00 -0.00    +0.000 AC
DOCKED: BRANCH   4  11
DOCKED: ATOM     11  C   UNL     1      36.289   8.712 122.757 -0.75 -0.00    +0.000 C 
DOCKED: ATOM     12  C   UNL     1      35.779   9.909 123.080 -0.66 -0.00    +0.000 C 
DOCKED: BRANCH  10  13
DOCKED: ATOM     13  O   UNL     1      36.300   6.379 123.076 -1.17 -0.00    +0.000 OA
DOCKED: ATOM     14  C   UNL     1      35.610   7.432 123.051 -0.76 -0.00    +0.000 C 
DOCKED: ATOM     15  N   UNL     1      34.207   7.356 123.336 -0.68 -0.00    +0.000 N 
DOCKED: ATOM     16  H   UNL     1      33.678   8.182 123.421 -0.15 -0.00    +0.000 HD
DOCKED: BRANCH  14  16
DOCKED: ATOM     17  O   UNL     1      33.607   6.151 123.488 -0.84 -0.00    +0.000 OA
DOCKED: ATOM     18  H   UNL     1      34.284   5.458 123.532 -0.51 -0.00    +0.000 HD
DOCKED: ENDBRANCH  14  16
DOCKED: ENDBRANCH  10  13
DOCKED: ENDBRANCH   4  11
DOCKED: ENDBRANCH   3   7
DOCKED: ENDBRANCH   1   3
DOCKED: BRANCH   1  18
DOCKED: ATOM     19  C   UNL     1      38.625  16.821 123.301 -0.26 -0.00    +0.000 C 
DOCKED: BRANCH  18  19
DOCKED: ATOM     20  C   UNL     1      40.077  16.907 122.803 -0.26 -0.00    +0.000 C 
DOCKED: BRANCH  19  20
DOCKED: ATOM     21  O   UNL     1      40.892  15.970 123.454 -0.72 -0.00    +0.000 OA
DOCKED: ATOM     22  H   UNL     1      40.551  15.077 123.293 -0.03 -0.00    +0.000 HD
DOCKED: ENDBRANCH  19  20
DOCKED: ENDBRANCH  18  19
DOCKED: ENDBRANCH   1  18
DOCKED: BRANCH   1  22
DOCKED: ATOM     23  C   UNL     1      37.084  16.854 121.341 -0.18 -0.00    +0.000 C 
DOCKED: BRANCH  22  23
DOCKED: ATOM     24  C   UNL     1      35.566  17.014 121.553 -0.25 -0.00    +0.000 C 
DOCKED: BRANCH  23  24
DOCKED: ATOM     25  C   UNL     1      35.204  16.706 122.974 -0.34 -0.00    +0.000 A 
DOCKED: ATOM     26  C   UNL     1      34.794  15.475 123.479 -0.43 -0.00    +0.000 A 
DOCKED: ATOM     27  N   UNL     1      34.475  15.586 124.789 -0.56 -0.00    +0.000 N 
DOCKED: ATOM     28  C   UNL     1      34.666  16.877 125.110 -0.37 -0.00    +0.000 A 
DOCKED: ATOM     29  C   UNL     1      35.104  17.593 124.027 -0.32 -0.00    +0.000 A 
DOCKED: ATOM     30  C   UNL     1      35.348  18.966 124.101 -0.21 -0.00    +0.000 A 
DOCKED: ATOM     31  C   UNL     1      35.138  19.602 125.338 -0.19 -0.00    +0.000 A 
DOCKED: ATOM     32  C   UNL     1      34.691  18.864 126.456 -0.21 -0.00    +0.000 A 
DOCKED: ATOM     33  C   UNL     1      34.447  17.482 126.347 -0.25 -0.00    +0.000 A 
DOCKED: ATOM     34  H   UNL     1      34.166  14.866 125.385 -0.06 -0.00    +0.000 HD
DOCKED: ATOM     35  CM  UNL     1      34.837  16.420 124.099 -0.08 -0.00    +0.000 AC
DOCKED: ATOM     36  CM  UNL     1      34.899  18.231 125.230 -0.40 -0.00    +0.000 AC
DOCKED: ENDBRANCH  23  24
DOCKED: ENDBRANCH  22  23
DOCKED: ENDBRANCH   1  22
DOCKED: TORSDOF 11DOCKED: TER
DOCKED: ENDMDL
________________________________________________________________________________


	BEGINNING GENETIC ALGORITHM DOCKING 3 of 100
Run: 3 Seed: 241937992 1375097744 [ Run 3 of 100 GA/GALS ]
Beginning LAMARCKIAN GENETIC ALGORITHM (LGA), with a maximum of 2500000 energy evaluations.

Final-Value: -17.198


	FINAL GENETIC ALGORITHM DOCKED STATE
	_______________________________________________


Detailed state:  trans 37.413 16.878 123.041 quatxyzw -0.654591 0.378466 0.626891 0.187832 center 0.460 0.128 -0.007 ntor 11 13.0548 -78.8136 128.7401 33.6969 177.0483 169.6161 -13.1518 -105.6111 161.0298 -129.4337 20.7847
State:	 37.413  16.878 123.041  -0.666  0.385  0.638 158.347     13.05  -78.81  128.74   33.70  177.05  169.62  -13.15 -105.61  161.03 -129.43   20.78

DOCKED: MODEL        3
DOCKED: USER    Run = 3
DOCKED: USER    DPF = ligand_dock.biased.dpf
DOCKED: USER  
DOCKED: USER    Estimated Free Energy of Binding    =   -9.76 kcal/mol  [=(1)+(2)+(3)-(4)]
DOCKED: USER    Estimated Inhibition Constant, Ki   =   70.28 nM (nanomolar)  [Temperature = 298.15 K]
DOCKED: USER    
DOCKED: USER    (1) Final Intermolecular Energy     =  -13.04 kcal/mol
DOCKED: USER        vdW + Hbond + desolv Energy     =  -13.04 kcal/mol
DOCKED: USER        Electrostatic Energy            =   +0.00 kcal/mol
DOCKED: USER    (2) Final Total Internal Energy     =   -4.16 kcal/mol
DOCKED: USER    (3) Torsional Free Energy           =   +3.28 kcal/mol
DOCKED: USER    (4) Unbound System's Energy  [=(2)] =   -4.16 kcal/mol
DOCKED: USER    
DOCKED: USER    
DOCKED: USER    NEWDPF move ligand.dum.pdbqt
DOCKED: USER    NEWDPF about 0.460000 0.128000 -0.007000
DOCKED: USER    NEWDPF tran0 37.412510 16.878399 123.040605
DOCKED: USER    NEWDPF quaternion0 -0.654591 0.378466 0.626891 0.187832
DOCKED: USER    NEWDPF axisangle0 -0.666453 0.385325 0.638251 158.347405
DOCKED: USER    NEWDPF quat0 -0.666453 0.385325 0.638251 158.347405
DOCKED: USER    NEWDPF dihe0 13.05 -78.81 128.74 33.70 177.05 169.62 -13.15 -105.61 161.03 -129.43 20.78 
DOCKED: USER  keepresnum = 1 
DOCKED: USER  
DOCKED: REMARK  Name = 
DOCKED: REMARK  11 active torsions:
DOCKED: REMARK  status: ('A' for Active; 'I' for Inactive)
DOCKED: REMARK    1  A    between atoms: C_2  and  C_5
DOCKED: REMARK    2  A    between atoms: N_3  and  O_4
DOCKED: REMARK    3  A    between atoms: C_6  and  C_7
DOCKED: REMARK    4  A    between atoms: C_10  and  C_11
DOCKED: REMARK    5  A    between atoms: C_11  and  N_12
DOCKED: REMARK    6  A    between atoms: N_12  and  C_13
DOCKED: REMARK    7  A    between atoms: N_12  and  C_16
DOCKED: REMARK    8  A    between atoms: C_13  and  C_14
DOCKED: REMARK    9  A    between atoms: C_14  and  O_15
DOCKED: REMARK   10  A    between atoms: C_16  and  C_17
DOCKED: REMARK   11  A    between atoms: C_17  and  C_18
DOCKED: REMARK                            x       y       z     vdW  Elec       q    Type
DOCKED: REMARK                         _______ _______ _______ _____ _____    ______ ____
DOCKED: USER                              x       y       z     vdW  Elec       q    Type
DOCKED: USER                           _______ _______ _______ _____ _____    ______ ____
DOCKED: ROOT
DOCKED: ATOM      1  N   UNL     1      37.813  18.360 122.779 -0.11 -0.00    +0.000 N 
DOCKED: ATOM      2  H   UNL     1      38.550  17.683 122.581 +0.00 -0.00    +0.000 HD
DOCKED: ENDROOT
DOCKED: BRANCH   1   3
DOCKED: ATOM      3  C   UNL     1      36.587  17.616 123.142 -0.23 -0.00    +0.000 C 
DOCKED: BRANCH   3   7
DOCKED: ATOM      4  C   UNL     1      37.010  13.433 122.117 -0.43 -0.00    +0.000 A 
DOCKED: ATOM      5  C   UNL     1      36.791  13.822 123.449 -0.48 -0.00    +0.000 A 
DOCKED: ATOM      6  C   UNL     1      36.663  15.172 123.785 -0.34 -0.00    +0.000 A 
DOCKED: ATOM      7  C   UNL     1      36.744  16.160 122.793 -0.28 -0.00    +0.000 A 
DOCKED: ATOM      8  C   UNL     1      36.941  15.777 121.459 -0.20 -0.00    +0.000 A 
DOCKED: ATOM      9  C   UNL     1      37.071  14.427 121.120 -0.25 -0.00    +0.000 A 
DOCKED: ATOM     10  CM  UNL     1      36.870  14.799 122.454 +0.00 -0.00    +0.000 AC
DOCKED: BRANCH   4  11
DOCKED: ATOM     11  C   UNL     1      36.840  11.014 122.689 -0.64 -0.00    +0.000 C 
DOCKED: ATOM     12  C   UNL     1      37.129  11.985 121.812 -0.55 -0.00    +0.000 C 
DOCKED: BRANCH  10  13
DOCKED: ATOM     13  O   UNL     1      36.980   9.221 121.169 -2.71 -0.00    +0.000 OA
DOCKED: ATOM     14  C   UNL     1      36.960   9.574 122.378 -0.64 -0.00    +0.000 C 
DOCKED: ATOM     15  N   UNL     1      37.083   8.576 123.401 -0.67 -0.00    +0.000 N 
DOCKED: ATOM     16  H   UNL     1      37.173   8.847 124.342 -0.55 -0.00    +0.000 HD
DOCKED: BRANCH  14  16
DOCKED: ATOM     17  O   UNL     1      37.077   7.262 123.074 -2.07 -0.00    +0.000 OA
DOCKED: ATOM     18  H   UNL     1      37.189   7.167 122.115 -0.13 -0.00    +0.000 HD
DOCKED: ENDBRANCH  14  16
DOCKED: ENDBRANCH  10  13
DOCKED: ENDBRANCH   4  11
DOCKED: ENDBRANCH   3   7
DOCKED: ENDBRANCH   1   3
DOCKED: BRANCH   1  18
DOCKED: ATOM     19  C   UNL     1      37.632  19.123 121.521 -0.09 -0.00    +0.000 C 
DOCKED: BRANCH  18  19
DOCKED: ATOM     20  C   UNL     1      38.787  18.898 120.532 -0.04 -0.00    +0.000 C 
DOCKED: BRANCH  19  20
DOCKED: ATOM     21  O   UNL     1      39.132  17.541 120.454 -0.07 -0.00    +0.000 OA
DOCKED: ATOM     22  H   UNL     1      40.096  17.454 120.410 +0.00 -0.00    +0.000 HD
DOCKED: ENDBRANCH  19  20
DOCKED: ENDBRANCH  18  19
DOCKED: ENDBRANCH   1  18
DOCKED: BRANCH   1  22
DOCKED: ATOM     23  C   UNL     1      38.333  19.162 123.913 -0.12 -0.00    +0.000 C 
DOCKED: BRANCH  22  23
DOCKED: ATOM     24  C   UNL     1      39.413  18.447 124.749 -0.23 -0.00    +0.000 C 
DOCKED: BRANCH  23  24
DOCKED: ATOM     25  C   UNL     1      40.648  18.234 123.929 -0.23 -0.00    +0.000 A 
DOCKED: ATOM     26  C   UNL     1      41.632  19.178 123.648 -0.15 -0.00    +0.000 A 
DOCKED: ATOM     27  N   UNL     1      42.560  18.658 122.813 -0.17 -0.00    +0.000 N 
DOCKED: ATOM     28  C   UNL     1      42.163  17.400 122.552 -0.26 -0.00    +0.000 A 
DOCKED: ATOM     29  C   UNL     1      40.996  17.107 123.211 -0.29 -0.00    +0.000 A 
DOCKED: ATOM     30  C   UNL     1      40.367  15.869 123.078 -0.19 -0.00    +0.000 A 
DOCKED: ATOM     31  C   UNL     1      40.976  14.911 122.247 -0.44 -0.00    +0.000 A 
DOCKED: ATOM     32  C   UNL     1      42.180  15.209 121.572 -0.22 -0.00    +0.000 A 
DOCKED: ATOM     33  C   UNL     1      42.786  16.471 121.721 -0.29 -0.00    +0.000 A 
DOCKED: ATOM     34  H   UNL     1      43.363  19.109 122.466 -0.01 -0.00    +0.000 HD
DOCKED: ATOM     35  CM  UNL     1      41.631  18.133 123.217 +0.00 -0.00    +0.000 AC
DOCKED: ATOM     36  CM  UNL     1      41.578  16.161 122.397 +0.00 -0.00    +0.000 AC
DOCKED: ENDBRANCH  23  24
DOCKED: ENDBRANCH  22  23
DOCKED: ENDBRANCH   1  22
DOCKED: TORSDOF 11DOCKED: TER
DOCKED: ENDMDL
________________________________________________________________________________


	BEGINNING GENETIC ALGORITHM DOCKING 4 of 100
Run: 4 Seed: 517394606 176848496 [ Run 4 of 100 GA/GALS ]
Beginning LAMARCKIAN GENETIC ALGORITHM (LGA), with a maximum of 2500000 energy evaluations.

Final-Value: -15.996


	FINAL GENETIC ALGORITHM DOCKED STATE
	_______________________________________________


Detailed state:  trans 36.174 16.329 122.331 quatxyzw -0.406415 -0.288221 -0.865490 0.051788 center 0.460 0.128 -0.007 ntor 11 13.0329 -25.4202 103.8204 42.2365 106.6446 90.3540 -35.1064 26.7197 -155.0137 -160.3291 88.6266
State:	 36.174  16.329 122.331  -0.407 -0.289 -0.867 174.063     13.03  -25.42  103.82   42.24  106.64   90.35  -35.11   26.72 -155.01 -160.33   88.63

DOCKED: MODEL        4
DOCKED: USER    Run = 4
DOCKED: USER    DPF = ligand_dock.biased.dpf
DOCKED: USER  
DOCKED: USER    Estimated Free Energy of Binding    =   -9.80 kcal/mol  [=(1)+(2)+(3)-(4)]
DOCKED: USER    Estimated Inhibition Constant, Ki   =   65.50 nM (nanomolar)  [Temperature = 298.15 K]
DOCKED: USER    
DOCKED: USER    (1) Final Intermolecular Energy     =  -13.08 kcal/mol
DOCKED: USER        vdW + Hbond + desolv Energy     =  -13.08 kcal/mol
DOCKED: USER        Electrostatic Energy            =   +0.00 kcal/mol
DOCKED: USER    (2) Final Total Internal Energy     =   -2.91 kcal/mol
DOCKED: USER    (3) Torsional Free Energy           =   +3.28 kcal/mol
DOCKED: USER    (4) Unbound System's Energy  [=(2)] =   -2.91 kcal/mol
DOCKED: USER    
DOCKED: USER    
DOCKED: USER    NEWDPF move ligand.dum.pdbqt
DOCKED: USER    NEWDPF about 0.460000 0.128000 -0.007000
DOCKED: USER    NEWDPF tran0 36.173898 16.328884 122.331473
DOCKED: USER    NEWDPF quaternion0 -0.406415 -0.288221 -0.865490 0.051788
DOCKED: USER    NEWDPF axisangle0 -0.406962 -0.288609 -0.866653 174.062856
DOCKED: USER    NEWDPF quat0 -0.406962 -0.288609 -0.866653 174.062856
DOCKED: USER    NEWDPF dihe0 13.03 -25.42 103.82 42.24 106.64 90.35 -35.11 26.72 -155.01 -160.33 88.63 
DOCKED: USER  keepresnum = 1 
DOCKED: USER  
DOCKED: REMARK  Name = 
DOCKED: REMARK  11 active torsions:
DOCKED: REMARK  status: ('A' for Active; 'I' for Inactive)
DOCKED: REMARK    1  A    between atoms: C_2  and  C_5
DOCKED: REMARK    2  A    between atoms: N_3  and  O_4
DOCKED: REMARK    3  A    between atoms: C_6  and  C_7
DOCKED: REMARK    4  A    between atoms: C_10  and  C_11
DOCKED: REMARK    5  A    between atoms: C_11  and  N_12
DOCKED: REMARK    6  A    between atoms: N_12  and  C_13
DOCKED: REMARK    7  A    between atoms: N_12  and  C_16
DOCKED: REMARK    8  A    between atoms: C_13  and  C_14
DOCKED: REMARK    9  A    between atoms: C_14  and  O_15
DOCKED: REMARK   10  A    between atoms: C_16  and  C_17
DOCKED: REMARK   11  A    between atoms: C_17  and  C_18
DOCKED: REMARK                            x       y       z     vdW  Elec       q    Type
DOCKED: REMARK                         _______ _______ _______ _____ _____    ______ ____
DOCKED: USER                              x       y       z     vdW  Elec       q    Type
DOCKED: USER                           _______ _______ _______ _____ _____    ______ ____
DOCKED: ROOT
DOCKED: ATOM      1  N   UNL     1      36.608  17.053 121.024 -0.16 -0.00    +0.000 N 
DOCKED: ATOM      2  H   UNL     1      35.627  16.774 121.045 -0.01 -0.00    +0.000 HD
DOCKED: ENDROOT
DOCKED: BRANCH   1   3
DOCKED: ATOM      3  C   UNL     1      37.207  16.740 122.339 -0.22 -0.00    +0.000 C 
DOCKED: BRANCH   3   7
DOCKED: ATOM      4  C   UNL     1      36.588  12.573 123.332 -0.59 -0.00    +0.000 A 
DOCKED: ATOM      5  C   UNL     1      37.719  12.971 122.600 -0.42 -0.00    +0.000 A 
DOCKED: ATOM      6  C   UNL     1      37.918  14.315 122.270 -0.39 -0.00    +0.000 A 
DOCKED: ATOM      7  C   UNL     1      36.992  15.287 122.673 -0.33 -0.00    +0.000 A 
DOCKED: ATOM      8  C   UNL     1      35.872  14.899 123.421 -0.43 -0.00    +0.000 A 
DOCKED: ATOM      9  C   UNL     1      35.670  13.556 123.752 -0.45 -0.00    +0.000 A 
DOCKED: ATOM     10  CM  UNL     1      36.793  13.934 123.008 +0.00 -0.00    +0.000 AC
DOCKED: BRANCH   4  11
DOCKED: ATOM     11  C   UNL     1      36.176  10.184 122.755 -0.69 -0.00    +0.000 C 
DOCKED: ATOM     12  C   UNL     1      36.430  11.135 123.665 -0.63 -0.00    +0.000 C 
DOCKED: BRANCH  10  13
DOCKED: ATOM     13  O   UNL     1      37.043   8.020 123.086 -2.27 -0.00    +0.000 OA
DOCKED: ATOM     14  C   UNL     1      36.020   8.754 123.094 -0.70 -0.00    +0.000 C 
DOCKED: ATOM     15  N   UNL     1      34.754   8.187 123.458 -0.62 -0.00    +0.000 N 
DOCKED: ATOM     16  H   UNL     1      33.969   8.769 123.568 -0.42 -0.00    +0.000 HD
DOCKED: BRANCH  14  16
DOCKED: ATOM     17  O   UNL     1      34.637   6.851 123.650 -0.80 -0.00    +0.000 OA
DOCKED: ATOM     18  H   UNL     1      35.521   6.455 123.707 -0.05 -0.00    +0.000 HD
DOCKED: ENDBRANCH  14  16
DOCKED: ENDBRANCH  10  13
DOCKED: ENDBRANCH   4  11
DOCKED: ENDBRANCH   3   7
DOCKED: ENDBRANCH   1   3
DOCKED: BRANCH   1  18
DOCKED: ATOM     19  C   UNL     1      36.595  18.514 120.768 -0.15 -0.00    +0.000 C 
DOCKED: BRANCH  18  19
DOCKED: ATOM     20  C   UNL     1      35.179  19.045 120.494 -0.20 -0.00    +0.000 C 
DOCKED: BRANCH  19  20
DOCKED: ATOM     21  O   UNL     1      34.204  18.155 120.967 -0.38 -0.00    +0.000 OA
DOCKED: ATOM     22  H   UNL     1      34.018  17.488 120.289 -0.02 -0.00    +0.000 HD
DOCKED: ENDBRANCH  19  20
DOCKED: ENDBRANCH  18  19
DOCKED: ENDBRANCH   1  18
DOCKED: BRANCH   1  22
DOCKED: ATOM     23  C   UNL     1      37.206  16.245 119.933 -0.17 -0.00    +0.000 C 
DOCKED: BRANCH  22  23
DOCKED: ATOM     24  C   UNL     1      36.183  15.706 118.913 -0.14 -0.00    +0.000 C 
DOCKED: BRANCH  23  24
DOCKED: ATOM     25  C   UNL     1      36.775  14.572 118.134 -0.28 -0.00    +0.000 A 
DOCKED: ATOM     26  C   UNL     1      37.292  13.388 118.652 -0.38 -0.00    +0.000 A 
DOCKED: ATOM     27  N   UNL     1      37.813  12.628 117.662 -0.33 -0.00    +0.000 N 
DOCKED: ATOM     28  C   UNL     1      37.643  13.328 116.527 -0.38 -0.00    +0.000 A 
DOCKED: ATOM     29  C   UNL     1      37.019  14.523 116.776 -0.27 -0.00    +0.000 A 
DOCKED: ATOM     30  C   UNL     1      36.755  15.442 115.759 -0.14 -0.00    +0.000 A 
DOCKED: ATOM     31  C   UNL     1      37.143  15.099 114.450 -0.17 -0.00    +0.000 A 
DOCKED: ATOM     32  C   UNL     1      37.782  13.866 114.192 -0.30 -0.00    +0.000 A 
DOCKED: ATOM     33  C   UNL     1      38.041  12.964 115.242 -0.44 -0.00    +0.000 A 
DOCKED: ATOM     34  H   UNL     1      38.232  11.742 117.755 -0.11 -0.00    +0.000 HD
DOCKED: ATOM     35  CM  UNL     1      37.325  13.654 117.554 +0.00 -0.00    +0.000 AC
DOCKED: ATOM     36  CM  UNL     1      37.397  14.203 115.491 +0.00 -0.00    +0.000 AC
DOCKED: ENDBRANCH  23  24
DOCKED: ENDBRANCH  22  23
DOCKED: ENDBRANCH   1  22
DOCKED: TORSDOF 11DOCKED: TER
DOCKED: ENDMDL
________________________________________________________________________________


	BEGINNING GENETIC ALGORITHM DOCKING 5 of 100
Run: 5 Seed: 2114831330 327887603 [ Run 5 of 100 GA/GALS ]
Beginning LAMARCKIAN GENETIC ALGORITHM (LGA), with a maximum of 2500000 energy evaluations.

Final-Value: -16.346


	FINAL GENETIC ALGORITHM DOCKED STATE
	_______________________________________________


Detailed state:  trans 39.311 17.099 121.280 quatxyzw -0.650310 -0.353856 0.338686 0.580667 center 0.460 0.128 -0.007 ntor 11 13.1087 -89.8784 60.0295 29.4454 -72.4548 -53.4212 178.8397 -41.9467 -80.4109 -141.8274 -128.6830
State:	 39.311  17.099 121.280  -0.799 -0.435  0.416 109.005     13.11  -89.88   60.03   29.45  -72.45  -53.42  178.84  -41.95  -80.41 -141.83 -128.68

DOCKED: MODEL        5
DOCKED: USER    Run = 5
DOCKED: USER    DPF = ligand_dock.biased.dpf
DOCKED: USER  
DOCKED: USER    Estimated Free Energy of Binding    =  -10.06 kcal/mol  [=(1)+(2)+(3)-(4)]
DOCKED: USER    Estimated Inhibition Constant, Ki   =   42.29 nM (nanomolar)  [Temperature = 298.15 K]
DOCKED: USER    
DOCKED: USER    (1) Final Intermolecular Energy     =  -13.34 kcal/mol
DOCKED: USER        vdW + Hbond + desolv Energy     =  -13.34 kcal/mol
DOCKED: USER        Electrostatic Energy            =   +0.00 kcal/mol
DOCKED: USER    (2) Final Total Internal Energy     =   -3.01 kcal/mol
DOCKED: USER    (3) Torsional Free Energy           =   +3.28 kcal/mol
DOCKED: USER    (4) Unbound System's Energy  [=(2)] =   -3.01 kcal/mol
DOCKED: USER    
DOCKED: USER    
DOCKED: USER    NEWDPF move ligand.dum.pdbqt
DOCKED: USER    NEWDPF about 0.460000 0.128000 -0.007000
DOCKED: USER    NEWDPF tran0 39.310760 17.098590 121.279871
DOCKED: USER    NEWDPF quaternion0 -0.650310 -0.353856 0.338686 0.580667
DOCKED: USER    NEWDPF axisangle0 -0.798769 -0.434637 0.416004 109.005056
DOCKED: USER    NEWDPF quat0 -0.798769 -0.434637 0.416004 109.005056
DOCKED: USER    NEWDPF dihe0 13.11 -89.88 60.03 29.45 -72.45 -53.42 178.84 -41.95 -80.41 -141.83 -128.68 
DOCKED: USER  keepresnum = 1 
DOCKED: USER  
DOCKED: REMARK  Name = 
DOCKED: REMARK  11 active torsions:
DOCKED: REMARK  status: ('A' for Active; 'I' for Inactive)
DOCKED: REMARK    1  A    between atoms: C_2  and  C_5
DOCKED: REMARK    2  A    between atoms: N_3  and  O_4
DOCKED: REMARK    3  A    between atoms: C_6  and  C_7
DOCKED: REMARK    4  A    between atoms: C_10  and  C_11
DOCKED: REMARK    5  A    between atoms: C_11  and  N_12
DOCKED: REMARK    6  A    between atoms: N_12  and  C_13
DOCKED: REMARK    7  A    between atoms: N_12  and  C_16
DOCKED: REMARK    8  A    between atoms: C_13  and  C_14
DOCKED: REMARK    9  A    between atoms: C_14  and  O_15
DOCKED: REMARK   10  A    between atoms: C_16  and  C_17
DOCKED: REMARK   11  A    between atoms: C_17  and  C_18
DOCKED: REMARK                            x       y       z     vdW  Elec       q    Type
DOCKED: REMARK                         _______ _______ _______ _____ _____    ______ ____
DOCKED: USER                              x       y       z     vdW  Elec       q    Type
DOCKED: USER                           _______ _______ _______ _____ _____    ______ ____
DOCKED: ROOT
DOCKED: ATOM      1  N   UNL     1      37.762  17.139 121.435 -0.11 -0.00    +0.000 N 
DOCKED: ATOM      2  H   UNL     1      38.173  18.001 121.077 +0.00 -0.00    +0.000 HD
DOCKED: ENDROOT
DOCKED: BRANCH   1   3
DOCKED: ATOM      3  C   UNL     1      38.838  16.132 121.559 -0.22 -0.00    +0.000 C 
DOCKED: BRANCH   3   7
DOCKED: ATOM      4  C   UNL     1      37.156  12.158 121.886 -0.48 -0.00    +0.000 A 
DOCKED: ATOM      5  C   UNL     1      37.793  12.567 120.703 -0.45 -0.00    +0.000 A 
DOCKED: ATOM      6  C   UNL     1      38.329  13.852 120.590 -0.32 -0.00    +0.000 A 
DOCKED: ATOM      7  C   UNL     1      38.246  14.751 121.663 -0.32 -0.00    +0.000 A 
DOCKED: ATOM      8  C   UNL     1      37.630  14.342 122.854 -0.42 -0.00    +0.000 A 
DOCKED: ATOM      9  C   UNL     1      37.092  13.057 122.969 -0.53 -0.00    +0.000 A 
DOCKED: ATOM     10  CM  UNL     1      37.708  13.455 121.778 +0.00 -0.00    +0.000 AC
DOCKED: BRANCH   4  11
DOCKED: ATOM     11  C   UNL     1      36.566  10.055 123.086 -0.67 -0.00    +0.000 C 
DOCKED: ATOM     12  C   UNL     1      36.612  10.778 121.958 -0.62 -0.00    +0.000 C 
DOCKED: BRANCH  10  13
DOCKED: ATOM     13  O   UNL     1      36.810   7.716 122.970 -2.18 -0.00    +0.000 OA
DOCKED: ATOM     14  C   UNL     1      36.022   8.682 123.150 -0.66 -0.00    +0.000 C 
DOCKED: ATOM     15  N   UNL     1      34.642   8.417 123.438 -0.61 -0.00    +0.000 N 
DOCKED: ATOM     16  H   UNL     1      34.041   9.156 123.682 -0.55 -0.00    +0.000 HD
DOCKED: BRANCH  14  16
DOCKED: ATOM     17  O   UNL     1      34.166   7.150 123.375 -0.77 -0.00    +0.000 OA
DOCKED: ATOM     18  H   UNL     1      34.908   6.528 123.328 -0.02 -0.00    +0.000 HD
DOCKED: ENDBRANCH  14  16
DOCKED: ENDBRANCH  10  13
DOCKED: ENDBRANCH   4  11
DOCKED: ENDBRANCH   3   7
DOCKED: ENDBRANCH   1   3
DOCKED: BRANCH   1  18
DOCKED: ATOM     19  C   UNL     1      36.755  16.735 120.424 -0.17 -0.00    +0.000 C 
DOCKED: BRANCH  18  19
DOCKED: ATOM     20  C   UNL     1      36.357  17.897 119.501 -0.13 -0.00    +0.000 C 
DOCKED: BRANCH  19  20
DOCKED: ATOM     21  O   UNL     1      36.576  19.135 120.121 -0.13 -0.00    +0.000 OA
DOCKED: ATOM     22  H   UNL     1      35.943  19.785 119.781 -0.01 -0.00    +0.000 HD
DOCKED: ENDBRANCH  19  20
DOCKED: ENDBRANCH  18  19
DOCKED: ENDBRANCH   1  18
DOCKED: BRANCH   1  22
DOCKED: ATOM     23  C   UNL     1      37.193  17.511 122.753 -0.20 -0.00    +0.000 C 
DOCKED: BRANCH  22  23
DOCKED: ATOM     24  C   UNL     1      35.693  17.862 122.716 -0.28 -0.00    +0.000 C 
DOCKED: BRANCH  23  24
DOCKED: ATOM     25  C   UNL     1      34.954  17.098 123.773 -0.37 -0.00    +0.000 A 
DOCKED: ATOM     26  C   UNL     1      34.395  15.830 123.644 -0.47 -0.00    +0.000 A 
DOCKED: ATOM     27  N   UNL     1      33.738  15.487 124.775 -0.49 -0.00    +0.000 N 
DOCKED: ATOM     28  C   UNL     1      33.865  16.533 125.610 -0.34 -0.00    +0.000 A 
DOCKED: ATOM     29  C   UNL     1      34.596  17.538 125.032 -0.36 -0.00    +0.000 A 
DOCKED: ATOM     30  C   UNL     1      34.842  18.743 125.691 -0.24 -0.00    +0.000 A 
DOCKED: ATOM     31  C   UNL     1      34.321  18.897 126.990 -0.19 -0.00    +0.000 A 
DOCKED: ATOM     32  C   UNL     1      33.572  17.860 127.589 -0.26 -0.00    +0.000 A 
DOCKED: ATOM     33  C   UNL     1      33.335  16.659 126.894 -0.39 -0.00    +0.000 A 
DOCKED: ATOM     34  H   UNL     1      33.263  14.643 124.950 -0.19 -0.00    +0.000 HD
DOCKED: ATOM     35  CM  UNL     1      34.291  16.465 124.574 -0.10 -0.00    +0.000 AC
DOCKED: ATOM     36  CM  UNL     1      34.089  17.705 126.301 -0.11 -0.00    +0.000 AC
DOCKED: ENDBRANCH  23  24
DOCKED: ENDBRANCH  22  23
DOCKED: ENDBRANCH   1  22
DOCKED: TORSDOF 11DOCKED: TER
DOCKED: ENDMDL
________________________________________________________________________________


	BEGINNING GENETIC ALGORITHM DOCKING 6 of 100
Run: 6 Seed: 1388903658 1613269817 [ Run 6 of 100 GA/GALS ]
Beginning LAMARCKIAN GENETIC ALGORITHM (LGA), with a maximum of 2500000 energy evaluations.

Final-Value: -16.495


	FINAL GENETIC ALGORITHM DOCKED STATE
	_______________________________________________


Detailed state:  trans 35.066 17.798 123.985 quatxyzw 0.449752 -0.077676 0.785819 -0.417346 center 0.460 0.128 -0.007 ntor 11 13.1194 106.8312 89.2290 25.5398 143.6415 -33.5125 163.4361 51.7857 -122.6378 165.7356 172.2408
State:	 35.066  17.798 123.985   0.495 -0.085  0.865 -130.666     13.12  106.83   89.23   25.54  143.64  -33.51  163.44   51.79 -122.64  165.74  172.24

DOCKED: MODEL        6
DOCKED: USER    Run = 6
DOCKED: USER    DPF = ligand_dock.biased.dpf
DOCKED: USER  
DOCKED: USER    Estimated Free Energy of Binding    =  -10.65 kcal/mol  [=(1)+(2)+(3)-(4)]
DOCKED: USER    Estimated Inhibition Constant, Ki   =   15.69 nM (nanomolar)  [Temperature = 298.15 K]
DOCKED: USER    
DOCKED: USER    (1) Final Intermolecular Energy     =  -13.93 kcal/mol
DOCKED: USER        vdW + Hbond + desolv Energy     =  -13.93 kcal/mol
DOCKED: USER        Electrostatic Energy            =   +0.00 kcal/mol
DOCKED: USER    (2) Final Total Internal Energy     =   -2.57 kcal/mol
DOCKED: USER    (3) Torsional Free Energy           =   +3.28 kcal/mol
DOCKED: USER    (4) Unbound System's Energy  [=(2)] =   -2.57 kcal/mol
DOCKED: USER    
DOCKED: USER    
DOCKED: USER    NEWDPF move ligand.dum.pdbqt
DOCKED: USER    NEWDPF about 0.460000 0.128000 -0.007000
DOCKED: USER    NEWDPF tran0 35.065535 17.797626 123.985239
DOCKED: USER    NEWDPF quaternion0 0.449752 -0.077676 0.785819 -0.417346
DOCKED: USER    NEWDPF axisangle0 0.494915 -0.085476 0.864727 -130.665701
DOCKED: USER    NEWDPF quat0 0.494915 -0.085476 0.864727 -130.665701
DOCKED: USER    NEWDPF dihe0 13.12 106.83 89.23 25.54 143.64 -33.51 163.44 51.79 -122.64 165.74 172.24 
DOCKED: USER  keepresnum = 1 
DOCKED: USER  
DOCKED: REMARK  Name = 
DOCKED: REMARK  11 active torsions:
DOCKED: REMARK  status: ('A' for Active; 'I' for Inactive)
DOCKED: REMARK    1  A    between atoms: C_2  and  C_5
DOCKED: REMARK    2  A    between atoms: N_3  and  O_4
DOCKED: REMARK    3  A    between atoms: C_6  and  C_7
DOCKED: REMARK    4  A    between atoms: C_10  and  C_11
DOCKED: REMARK    5  A    between atoms: C_11  and  N_12
DOCKED: REMARK    6  A    between atoms: N_12  and  C_13
DOCKED: REMARK    7  A    between atoms: N_12  and  C_16
DOCKED: REMARK    8  A    between atoms: C_13  and  C_14
DOCKED: REMARK    9  A    between atoms: C_14  and  O_15
DOCKED: REMARK   10  A    between atoms: C_16  and  C_17
DOCKED: REMARK   11  A    between atoms: C_17  and  C_18
DOCKED: REMARK                            x       y       z     vdW  Elec       q    Type
DOCKED: REMARK                         _______ _______ _______ _____ _____    ______ ____
DOCKED: USER                              x       y       z     vdW  Elec       q    Type
DOCKED: USER                           _______ _______ _______ _____ _____    ______ ____
DOCKED: ROOT
DOCKED: ATOM      1  N   UNL     1      36.194  18.050 122.943 -0.19 -0.00    +0.000 N 
DOCKED: ATOM      2  H   UNL     1      35.442  18.739 122.925 -0.01 -0.00    +0.000 HD
DOCKED: ENDROOT
DOCKED: BRANCH   1   3
DOCKED: ATOM      3  C   UNL     1      35.946  17.124 124.069 -0.33 -0.00    +0.000 C 
DOCKED: BRANCH   3   7
DOCKED: ATOM      4  C   UNL     1      36.794  13.045 122.897 -0.53 -0.00    +0.000 A 
DOCKED: ATOM      5  C   UNL     1      37.766  14.047 122.744 -0.44 -0.00    +0.000 A 
DOCKED: ATOM      6  C   UNL     1      37.493  15.367 123.113 -0.34 -0.00    +0.000 A 
DOCKED: ATOM      7  C   UNL     1      36.243  15.709 123.650 -0.37 -0.00    +0.000 A 
DOCKED: ATOM      8  C   UNL     1      35.276  14.709 123.824 -0.50 -0.00    +0.000 A 
DOCKED: ATOM      9  C   UNL     1      35.546  13.388 123.455 -0.38 -0.00    +0.000 A 
DOCKED: ATOM     10  CM  UNL     1      36.520  14.378 123.281 +0.00 -0.00    +0.000 AC
DOCKED: BRANCH   4  11
DOCKED: ATOM     11  C   UNL     1      36.396  10.586 122.818 -0.69 -0.00    +0.000 C 
DOCKED: ATOM     12  C   UNL     1      37.138  11.657 122.499 -0.56 -0.00    +0.000 C 
DOCKED: BRANCH  10  13
DOCKED: ATOM     13  O   UNL     1      36.964   8.972 121.200 -2.68 -0.00    +0.000 OA
DOCKED: ATOM     14  C   UNL     1      36.745   9.207 122.418 -0.72 -0.00    +0.000 C 
DOCKED: ATOM     15  N   UNL     1      36.868   8.141 123.369 -0.72 -0.00    +0.000 N 
DOCKED: ATOM     16  H   UNL     1      36.801   8.333 124.332 -0.37 -0.00    +0.000 HD
DOCKED: BRANCH  14  16
DOCKED: ATOM     17  O   UNL     1      37.077   6.871 122.945 -1.63 -0.00    +0.000 OA
DOCKED: ATOM     18  H   UNL     1      37.323   6.881 122.007 -0.26 -0.00    +0.000 HD
DOCKED: ENDBRANCH  14  16
DOCKED: ENDBRANCH  10  13
DOCKED: ENDBRANCH   4  11
DOCKED: ENDBRANCH   3   7
DOCKED: ENDBRANCH   1   3
DOCKED: BRANCH   1  18
DOCKED: ATOM     19  C   UNL     1      37.437  18.832 123.149 -0.13 -0.00    +0.000 C 
DOCKED: BRANCH  18  19
DOCKED: ATOM     20  C   UNL     1      37.280  20.300 122.721 -0.12 -0.00    +0.000 C 
DOCKED: BRANCH  19  20
DOCKED: ATOM     21  O   UNL     1      35.961  20.577 122.336 -0.60 -0.00    +0.000 OA
DOCKED: ATOM     22  H   UNL     1      35.348  20.205 122.988 -0.02 -0.00    +0.000 HD
DOCKED: ENDBRANCH  19  20
DOCKED: ENDBRANCH  18  19
DOCKED: ENDBRANCH   1  18
DOCKED: BRANCH   1  22
DOCKED: ATOM     23  C   UNL     1      36.110  17.367 121.630 -0.23 -0.00    +0.000 C 
DOCKED: BRANCH  22  23
DOCKED: ATOM     24  C   UNL     1      36.129  18.321 120.419 -0.18 -0.00    +0.000 C 
DOCKED: BRANCH  23  24
DOCKED: ATOM     25  C   UNL     1      35.103  17.901 119.411 -0.17 -0.00    +0.000 A 
DOCKED: ATOM     26  C   UNL     1      35.341  17.239 118.209 -0.13 -0.00    +0.000 A 
DOCKED: ATOM     27  N   UNL     1      34.189  17.092 117.517 -0.15 -0.00    +0.000 N 
DOCKED: ATOM     28  C   UNL     1      33.230  17.667 118.263 -0.09 -0.00    +0.000 A 
DOCKED: ATOM     29  C   UNL     1      33.751  18.178 119.423 -0.22 -0.00    +0.000 A 
DOCKED: ATOM     30  C   UNL     1      32.957  18.850 120.354 -0.17 -0.00    +0.000 A 
DOCKED: ATOM     31  C   UNL     1      31.585  18.983 120.069 -0.44 -0.00    +0.000 A 
DOCKED: ATOM     32  C   UNL     1      31.046  18.453 118.876 -0.36 -0.00    +0.000 A 
DOCKED: ATOM     33  C   UNL     1      31.876  17.786 117.954 -0.20 -0.00    +0.000 A 
DOCKED: ATOM     34  H   UNL     1      34.076  16.653 116.643 -0.00 -0.00    +0.000 HD
DOCKED: ATOM     35  CM  UNL     1      34.318  17.599 118.531 +0.00 -0.00    +0.000 AC
DOCKED: ATOM     36  CM  UNL     1      32.407  18.319 119.156 +0.00 -0.00    +0.000 AC
DOCKED: ENDBRANCH  23  24
DOCKED: ENDBRANCH  22  23
DOCKED: ENDBRANCH   1  22
DOCKED: TORSDOF 11DOCKED: TER
DOCKED: ENDMDL
________________________________________________________________________________


	BEGINNING GENETIC ALGORITHM DOCKING 7 of 100
Run: 7 Seed: 1453741218 1097154292 [ Run 7 of 100 GA/GALS ]
Beginning LAMARCKIAN GENETIC ALGORITHM (LGA), with a maximum of 2500000 energy evaluations.

Final-Value: -16.626


	FINAL GENETIC ALGORITHM DOCKED STATE
	_______________________________________________


Detailed state:  trans 37.058 16.890 122.318 quatxyzw -0.013002 -0.028320 -0.816857 -0.575998 center 0.460 0.128 -0.007 ntor 11 180.0000 -43.9571 43.9569 52.7786 -42.1696 175.4834 -21.6293 -115.3584 164.0200 -173.6959 0.7551
State:	 37.058  16.890 122.318  -0.016 -0.035 -0.999 -109.661    180.00  -43.96   43.96   52.78  -42.17  175.48  -21.63 -115.36  164.02 -173.70    0.76

DOCKED: MODEL        7
DOCKED: USER    Run = 7
DOCKED: USER    DPF = ligand_dock.biased.dpf
DOCKED: USER  
DOCKED: USER    Estimated Free Energy of Binding    =   -9.90 kcal/mol  [=(1)+(2)+(3)-(4)]
DOCKED: USER    Estimated Inhibition Constant, Ki   =   55.20 nM (nanomolar)  [Temperature = 298.15 K]
DOCKED: USER    
DOCKED: USER    (1) Final Intermolecular Energy     =  -13.18 kcal/mol
DOCKED: USER        vdW + Hbond + desolv Energy     =  -13.18 kcal/mol
DOCKED: USER        Electrostatic Energy            =   +0.00 kcal/mol
DOCKED: USER    (2) Final Total Internal Energy     =   -3.44 kcal/mol
DOCKED: USER    (3) Torsional Free Energy           =   +3.28 kcal/mol
DOCKED: USER    (4) Unbound System's Energy  [=(2)] =   -3.44 kcal/mol
DOCKED: USER    
DOCKED: USER    
DOCKED: USER    NEWDPF move ligand.dum.pdbqt
DOCKED: USER    NEWDPF about 0.460000 0.128000 -0.007000
DOCKED: USER    NEWDPF tran0 37.058473 16.890410 122.317872
DOCKED: USER    NEWDPF quaternion0 -0.013002 -0.028320 -0.816857 -0.575998
DOCKED: USER    NEWDPF axisangle0 -0.015906 -0.034645 -0.999273 -109.660927
DOCKED: USER    NEWDPF quat0 -0.015906 -0.034645 -0.999273 -109.660927
DOCKED: USER    NEWDPF dihe0 180.00 -43.96 43.96 52.78 -42.17 175.48 -21.63 -115.36 164.02 -173.70 0.76 
DOCKED: USER  keepresnum = 1 
DOCKED: USER  
DOCKED: REMARK  Name = 
DOCKED: REMARK  11 active torsions:
DOCKED: REMARK  status: ('A' for Active; 'I' for Inactive)
DOCKED: REMARK    1  A    between atoms: C_2  and  C_5
DOCKED: REMARK    2  A    between atoms: N_3  and  O_4
DOCKED: REMARK    3  A    between atoms: C_6  and  C_7
DOCKED: REMARK    4  A    between atoms: C_10  and  C_11
DOCKED: REMARK    5  A    between atoms: C_11  and  N_12
DOCKED: REMARK    6  A    between atoms: N_12  and  C_13
DOCKED: REMARK    7  A    between atoms: N_12  and  C_16
DOCKED: REMARK    8  A    between atoms: C_13  and  C_14
DOCKED: REMARK    9  A    between atoms: C_14  and  O_15
DOCKED: REMARK   10  A    between atoms: C_16  and  C_17
DOCKED: REMARK   11  A    between atoms: C_17  and  C_18
DOCKED: REMARK                            x       y       z     vdW  Elec       q    Type
DOCKED: REMARK                         _______ _______ _______ _____ _____    ______ ____
DOCKED: USER                              x       y       z     vdW  Elec       q    Type
DOCKED: USER                           _______ _______ _______ _____ _____    ______ ____
DOCKED: ROOT
DOCKED: ATOM      1  N   UNL     1      36.200  18.186 122.220 -0.18 -0.00    +0.000 N 
DOCKED: ATOM      2  H   UNL     1      36.111  17.559 121.419 +0.00 -0.00    +0.000 HD
DOCKED: ENDROOT
DOCKED: BRANCH   1   3
DOCKED: ATOM      3  C   UNL     1      37.056  17.526 123.230 -0.22 -0.00    +0.000 C 
DOCKED: BRANCH   3   7
DOCKED: ATOM      4  C   UNL     1      36.475  13.238 123.147 -0.53 -0.00    +0.000 A 
DOCKED: ATOM      5  C   UNL     1      37.220  13.877 122.141 -0.40 -0.00    +0.000 A 
DOCKED: ATOM      6  C   UNL     1      37.403  15.262 122.160 -0.29 -0.00    +0.000 A 
DOCKED: ATOM      7  C   UNL     1      36.849  16.036 123.190 -0.30 -0.00    +0.000 A 
DOCKED: ATOM      8  C   UNL     1      36.121  15.403 124.207 -0.31 -0.00    +0.000 A 
DOCKED: ATOM      9  C   UNL     1      35.936  14.017 124.191 -0.41 -0.00    +0.000 A 
DOCKED: ATOM     10  CM  UNL     1      36.667  14.639 123.173 +0.00 -0.00    +0.000 AC
DOCKED: BRANCH   4  11
DOCKED: ATOM     11  C   UNL     1      37.089  10.965 122.333 -0.53 -0.00    +0.000 C 
DOCKED: ATOM     12  C   UNL     1      36.319  11.764 123.086 -0.69 -0.00    +0.000 C 
DOCKED: BRANCH  10  13
DOCKED: ATOM     13  O   UNL     1      36.688   8.960 121.165 -2.61 -0.00    +0.000 OA
DOCKED: ATOM     14  C   UNL     1      36.929   9.497 122.278 -0.65 -0.00    +0.000 C 
DOCKED: ATOM     15  N   UNL     1      37.067   8.667 123.440 -0.65 -0.00    +0.000 N 
DOCKED: ATOM     16  H   UNL     1      37.357   9.062 124.293 -0.60 -0.00    +0.000 HD
DOCKED: BRANCH  14  16
DOCKED: ATOM     17  O   UNL     1      36.800   7.341 123.364 -2.01 -0.00    +0.000 OA
DOCKED: ATOM     18  H   UNL     1      36.944   6.933 124.232 -0.47 -0.00    +0.000 HD
DOCKED: ENDBRANCH  14  16
DOCKED: ENDBRANCH  10  13
DOCKED: ENDBRANCH   4  11
DOCKED: ENDBRANCH   3   7
DOCKED: ENDBRANCH   1   3
DOCKED: BRANCH   1  18
DOCKED: ATOM     19  C   UNL     1      34.819  18.379 122.722 -0.23 -0.00    +0.000 C 
DOCKED: BRANCH  18  19
DOCKED: ATOM     20  C   UNL     1      33.798  17.507 121.972 -0.33 -0.00    +0.000 C 
DOCKED: BRANCH  19  20
DOCKED: ATOM     21  O   UNL     1      34.075  17.473 120.597 -0.20 -0.00    +0.000 OA
DOCKED: ATOM     22  H   UNL     1      33.440  18.033 120.125 -0.02 -0.00    +0.000 HD
DOCKED: ENDBRANCH  19  20
DOCKED: ENDBRANCH  18  19
DOCKED: ENDBRANCH   1  18
DOCKED: BRANCH   1  22
DOCKED: ATOM     23  C   UNL     1      36.830  19.411 121.671 -0.14 -0.00    +0.000 C 
DOCKED: BRANCH  22  23
DOCKED: ATOM     24  C   UNL     1      37.561  19.198 120.330 -0.07 -0.00    +0.000 C 
DOCKED: BRANCH  23  24
DOCKED: ATOM     25  C   UNL     1      36.624  18.620 119.314 -0.08 -0.00    +0.000 A 
DOCKED: ATOM     26  C   UNL     1      35.566  19.275 118.691 -0.12 -0.00    +0.000 A 
DOCKED: ATOM     27  N   UNL     1      34.888  18.421 117.891 -0.10 -0.00    +0.000 N 
DOCKED: ATOM     28  C   UNL     1      35.499  17.230 118.015 -0.12 -0.00    +0.000 A 
DOCKED: ATOM     29  C   UNL     1      36.560  17.310 118.880 -0.11 -0.00    +0.000 A 
DOCKED: ATOM     30  C   UNL     1      37.338  16.196 119.196 -0.14 -0.00    +0.000 A 
DOCKED: ATOM     31  C   UNL     1      37.007  14.972 118.586 -0.23 -0.00    +0.000 A 
DOCKED: ATOM     32  C   UNL     1      35.918  14.889 117.691 -0.26 -0.00    +0.000 A 
DOCKED: ATOM     33  C   UNL     1      35.147  16.030 117.398 -0.16 -0.00    +0.000 A 
DOCKED: ATOM     34  H   UNL     1      34.105  18.629 117.332 +0.00 -0.00    +0.000 HD
DOCKED: ATOM     35  CM  UNL     1      35.797  18.179 118.537 +0.00 -0.00    +0.000 AC
DOCKED: ATOM     36  CM  UNL     1      36.245  16.104 118.294 +0.00 -0.00    +0.000 AC
DOCKED: ENDBRANCH  23  24
DOCKED: ENDBRANCH  22  23
DOCKED: ENDBRANCH   1  22
DOCKED: TORSDOF 11DOCKED: TER
DOCKED: ENDMDL
________________________________________________________________________________


	BEGINNING GENETIC ALGORITHM DOCKING 8 of 100
Run: 8 Seed: 1368394365 64070850 [ Run 8 of 100 GA/GALS ]
Beginning LAMARCKIAN GENETIC ALGORITHM (LGA), with a maximum of 2500000 energy evaluations.

Final-Value: -17.775


	FINAL GENETIC ALGORITHM DOCKED STATE
	_______________________________________________


Detailed state:  trans 35.735 16.597 124.340 quatxyzw 0.728203 0.067391 0.614021 0.296912 center 0.460 0.128 -0.007 ntor 11 18.4227 -15.9015 40.9562 52.0881 -25.4050 -61.6142 48.7581 43.9334 45.0333 98.2374 71.8491
State:	 35.735  16.597 124.340   0.763  0.071  0.643 145.456     18.42  -15.90   40.96   52.09  -25.41  -61.61   48.76   43.93   45.03   98.24   71.85

DOCKED: MODEL        8
DOCKED: USER    Run = 8
DOCKED: USER    DPF = ligand_dock.biased.dpf
DOCKED: USER  
DOCKED: USER    Estimated Free Energy of Binding    =  -12.01 kcal/mol  [=(1)+(2)+(3)-(4)]
DOCKED: USER    Estimated Inhibition Constant, Ki   =    1.58 nM (nanomolar)  [Temperature = 298.15 K]
DOCKED: USER    
DOCKED: USER    (1) Final Intermolecular Energy     =  -15.29 kcal/mol
DOCKED: USER        vdW + Hbond + desolv Energy     =  -15.29 kcal/mol
DOCKED: USER        Electrostatic Energy            =   +0.00 kcal/mol
DOCKED: USER    (2) Final Total Internal Energy     =   -2.49 kcal/mol
DOCKED: USER    (3) Torsional Free Energy           =   +3.28 kcal/mol
DOCKED: USER    (4) Unbound System's Energy  [=(2)] =   -2.49 kcal/mol
DOCKED: USER    
DOCKED: USER    
DOCKED: USER    NEWDPF move ligand.dum.pdbqt
DOCKED: USER    NEWDPF about 0.460000 0.128000 -0.007000
DOCKED: USER    NEWDPF tran0 35.734988 16.596966 124.340321
DOCKED: USER    NEWDPF quaternion0 0.728203 0.067391 0.614021 0.296912
DOCKED: USER    NEWDPF axisangle0 0.762593 0.070573 0.643018 145.455539
DOCKED: USER    NEWDPF quat0 0.762593 0.070573 0.643018 145.455539
DOCKED: USER    NEWDPF dihe0 18.42 -15.90 40.96 52.09 -25.41 -61.61 48.76 43.93 45.03 98.24 71.85 
DOCKED: USER  keepresnum = 1 
DOCKED: USER  
DOCKED: REMARK  Name = 
DOCKED: REMARK  11 active torsions:
DOCKED: REMARK  status: ('A' for Active; 'I' for Inactive)
DOCKED: REMARK    1  A    between atoms: C_2  and  C_5
DOCKED: REMARK    2  A    between atoms: N_3  and  O_4
DOCKED: REMARK    3  A    between atoms: C_6  and  C_7
DOCKED: REMARK    4  A    between atoms: C_10  and  C_11
DOCKED: REMARK    5  A    between atoms: C_11  and  N_12
DOCKED: REMARK    6  A    between atoms: N_12  and  C_13
DOCKED: REMARK    7  A    between atoms: N_12  and  C_16
DOCKED: REMARK    8  A    between atoms: C_13  and  C_14
DOCKED: REMARK    9  A    between atoms: C_14  and  O_15
DOCKED: REMARK   10  A    between atoms: C_16  and  C_17
DOCKED: REMARK   11  A    between atoms: C_17  and  C_18
DOCKED: REMARK                            x       y       z     vdW  Elec       q    Type
DOCKED: REMARK                         _______ _______ _______ _____ _____    ______ ____
DOCKED: USER                              x       y       z     vdW  Elec       q    Type
DOCKED: USER                           _______ _______ _______ _____ _____    ______ ____
DOCKED: ROOT
DOCKED: ATOM      1  N   UNL     1      34.930  17.856 123.903 -0.32 -0.00    +0.000 N 
DOCKED: ATOM      2  H   UNL     1      34.399  17.189 124.464 -0.01 -0.00    +0.000 HD
DOCKED: ENDROOT
DOCKED: BRANCH   1   3
DOCKED: ATOM      3  C   UNL     1      36.329  17.384 123.828 -0.28 -0.00    +0.000 C 
DOCKED: BRANCH   3   7
DOCKED: ATOM      4  C   UNL     1      36.442  13.075 123.446 -0.56 -0.00    +0.000 A 
DOCKED: ATOM      5  C   UNL     1      35.252  13.728 123.807 -0.20 -0.00    +0.000 A 
DOCKED: ATOM      6  C   UNL     1      35.213  15.118 123.940 -0.50 -0.00    +0.000 A 
DOCKED: ATOM      7  C   UNL     1      36.365  15.884 123.706 -0.34 -0.00    +0.000 A 
DOCKED: ATOM      8  C   UNL     1      37.550  15.240 123.325 -0.32 -0.00    +0.000 A 
DOCKED: ATOM      9  C   UNL     1      37.591  13.849 123.192 -0.44 -0.00    +0.000 A 
DOCKED: ATOM     10  CM  UNL     1      36.402  14.483 123.569 +0.00 -0.00    +0.000 AC
DOCKED: BRANCH   4  11
DOCKED: ATOM     11  C   UNL     1      37.063  10.934 122.332 -0.56 -0.00    +0.000 C 
DOCKED: ATOM     12  C   UNL     1      36.426  11.597 123.308 -0.70 -0.00    +0.000 C 
DOCKED: BRANCH  10  13
DOCKED: ATOM     13  O   UNL     1      36.901   8.963 121.054 -2.67 -0.00    +0.000 OA
DOCKED: ATOM     14  C   UNL     1      37.043   9.462 122.201 -0.63 -0.00    +0.000 C 
DOCKED: ATOM     15  N   UNL     1      37.208   8.590 123.328 -0.65 -0.00    +0.000 N 
DOCKED: ATOM     16  H   UNL     1      37.422   8.966 124.212 -0.60 -0.00    +0.000 HD
DOCKED: BRANCH  14  16
DOCKED: ATOM     17  O   UNL     1      37.070   7.251 123.178 -2.05 -0.00    +0.000 OA
DOCKED: ATOM     18  H   UNL     1      37.152   7.022 122.239 -0.14 -0.00    +0.000 HD
DOCKED: ENDBRANCH  14  16
DOCKED: ENDBRANCH  10  13
DOCKED: ENDBRANCH   4  11
DOCKED: ENDBRANCH   3   7
DOCKED: ENDBRANCH   1   3
DOCKED: BRANCH   1  18
DOCKED: ATOM     19  C   UNL     1      34.830  19.145 124.628 -0.21 -0.00    +0.000 C 
DOCKED: BRANCH  18  19
DOCKED: ATOM     20  C   UNL     1      34.085  19.007 125.965 -0.29 -0.00    +0.000 C 
DOCKED: BRANCH  19  20
DOCKED: ATOM     21  O   UNL     1      32.941  18.208 125.827 -0.39 -0.00    +0.000 OA
DOCKED: ATOM     22  H   UNL     1      32.238  18.720 125.399 -0.29 -0.00    +0.000 HD
DOCKED: ENDBRANCH  19  20
DOCKED: ENDBRANCH  18  19
DOCKED: ENDBRANCH   1  18
DOCKED: BRANCH   1  22
DOCKED: ATOM     23  C   UNL     1      34.266  17.844 122.577 -0.37 -0.00    +0.000 C 
DOCKED: BRANCH  22  23
DOCKED: ATOM     24  C   UNL     1      35.241  17.878 121.383 -0.29 -0.00    +0.000 C 
DOCKED: BRANCH  23  24
DOCKED: ATOM     25  C   UNL     1      34.661  18.685 120.261 -0.24 -0.00    +0.000 A 
DOCKED: ATOM     26  C   UNL     1      35.351  19.552 119.418 -0.14 -0.00    +0.000 A 
DOCKED: ATOM     27  N   UNL     1      34.494  20.169 118.574 -0.15 -0.00    +0.000 N 
DOCKED: ATOM     28  C   UNL     1      33.269  19.712 118.886 -0.22 -0.00    +0.000 A 
DOCKED: ATOM     29  C   UNL     1      33.330  18.809 119.916 -0.30 -0.00    +0.000 A 
DOCKED: ATOM     30  C   UNL     1      32.183  18.212 120.442 -0.42 -0.00    +0.000 A 
DOCKED: ATOM     31  C   UNL     1      30.945  18.559 119.871 -0.41 -0.00    +0.000 A 
DOCKED: ATOM     32  C   UNL     1      30.881  19.486 118.807 -0.33 -0.00    +0.000 A 
DOCKED: ATOM     33  C   UNL     1      32.056  20.075 118.304 -0.21 -0.00    +0.000 A 
DOCKED: ATOM     34  H   UNL     1      34.721  20.821 117.872 -0.01 -0.00    +0.000 HD
DOCKED: ATOM     35  CM  UNL     1      34.229  19.411 119.384 +0.00 -0.00    +0.000 AC
DOCKED: ATOM     36  CM  UNL     1      32.110  19.142 119.370 +0.00 -0.00    +0.000 AC
DOCKED: ENDBRANCH  23  24
DOCKED: ENDBRANCH  22  23
DOCKED: ENDBRANCH   1  22
DOCKED: TORSDOF 11DOCKED: TER
DOCKED: ENDMDL
________________________________________________________________________________


	BEGINNING GENETIC ALGORITHM DOCKING 9 of 100
Run: 9 Seed: 1932816632 1105783894 [ Run 9 of 100 GA/GALS ]
Beginning LAMARCKIAN GENETIC ALGORITHM (LGA), with a maximum of 2500000 energy evaluations.

Final-Value: -16.175


	FINAL GENETIC ALGORITHM DOCKED STATE
	_______________________________________________


Detailed state:  trans 37.751 18.532 123.284 quatxyzw -0.321348 0.718000 -0.401988 0.468634 center 0.460 0.128 -0.007 ntor 11 12.8419 -128.5878 -51.2169 14.3525 -171.6254 140.3154 -103.1773 -55.1652 -52.8699 -143.7173 -110.3016
State:	 37.751  18.532 123.284  -0.364  0.813 -0.455 124.109     12.84 -128.59  -51.22   14.35 -171.63  140.32 -103.18  -55.17  -52.87 -143.72 -110.30

DOCKED: MODEL        9
DOCKED: USER    Run = 9
DOCKED: USER    DPF = ligand_dock.biased.dpf
DOCKED: USER  
DOCKED: USER    Estimated Free Energy of Binding    =  -10.46 kcal/mol  [=(1)+(2)+(3)-(4)]
DOCKED: USER    Estimated Inhibition Constant, Ki   =   21.51 nM (nanomolar)  [Temperature = 298.15 K]
DOCKED: USER    
DOCKED: USER    (1) Final Intermolecular Energy     =  -13.74 kcal/mol
DOCKED: USER        vdW + Hbond + desolv Energy     =  -13.74 kcal/mol
DOCKED: USER        Electrostatic Energy            =   +0.00 kcal/mol
DOCKED: USER    (2) Final Total Internal Energy     =   -2.43 kcal/mol
DOCKED: USER    (3) Torsional Free Energy           =   +3.28 kcal/mol
DOCKED: USER    (4) Unbound System's Energy  [=(2)] =   -2.43 kcal/mol
DOCKED: USER    
DOCKED: USER    
DOCKED: USER    NEWDPF move ligand.dum.pdbqt
DOCKED: USER    NEWDPF about 0.460000 0.128000 -0.007000
DOCKED: USER    NEWDPF tran0 37.750841 18.532385 123.283517
DOCKED: USER    NEWDPF quaternion0 -0.321348 0.718000 -0.401988 0.468634
DOCKED: USER    NEWDPF axisangle0 -0.363766 0.812775 -0.455050 124.108727
DOCKED: USER    NEWDPF quat0 -0.363766 0.812775 -0.455050 124.108727
DOCKED: USER    NEWDPF dihe0 12.84 -128.59 -51.22 14.35 -171.63 140.32 -103.18 -55.17 -52.87 -143.72 -110.30 
DOCKED: USER  keepresnum = 1 
DOCKED: USER  
DOCKED: REMARK  Name = 
DOCKED: REMARK  11 active torsions:
DOCKED: REMARK  status: ('A' for Active; 'I' for Inactive)
DOCKED: REMARK    1  A    between atoms: C_2  and  C_5
DOCKED: REMARK    2  A    between atoms: N_3  and  O_4
DOCKED: REMARK    3  A    between atoms: C_6  and  C_7
DOCKED: REMARK    4  A    between atoms: C_10  and  C_11
DOCKED: REMARK    5  A    between atoms: C_11  and  N_12
DOCKED: REMARK    6  A    between atoms: N_12  and  C_13
DOCKED: REMARK    7  A    between atoms: N_12  and  C_16
DOCKED: REMARK    8  A    between atoms: C_13  and  C_14
DOCKED: REMARK    9  A    between atoms: C_14  and  O_15
DOCKED: REMARK   10  A    between atoms: C_16  and  C_17
DOCKED: REMARK   11  A    between atoms: C_17  and  C_18
DOCKED: REMARK                            x       y       z     vdW  Elec       q    Type
DOCKED: REMARK                         _______ _______ _______ _____ _____    ______ ____
DOCKED: USER                              x       y       z     vdW  Elec       q    Type
DOCKED: USER                           _______ _______ _______ _____ _____    ______ ____
DOCKED: ROOT
DOCKED: ATOM      1  N   UNL     1      39.129  18.034 122.759 -0.12 -0.00    +0.000 N 
DOCKED: ATOM      2  H   UNL     1      39.187  18.767 123.466 +0.00 -0.00    +0.000 HD
DOCKED: ENDROOT
DOCKED: BRANCH   1   3
DOCKED: ATOM      3  C   UNL     1      37.708  17.657 122.599 -0.16 -0.00    +0.000 C 
DOCKED: BRANCH   3   7
DOCKED: ATOM      4  C   UNL     1      37.348  13.414 121.827 -0.42 -0.00    +0.000 A 
DOCKED: ATOM      5  C   UNL     1      37.016  13.940 123.087 -0.47 -0.00    +0.000 A 
DOCKED: ATOM      6  C   UNL     1      37.139  15.308 123.343 -0.35 -0.00    +0.000 A 
DOCKED: ATOM      7  C   UNL     1      37.590  16.179 122.340 -0.23 -0.00    +0.000 A 
DOCKED: ATOM      8  C   UNL     1      37.904  15.663 121.075 -0.20 -0.00    +0.000 A 
DOCKED: ATOM      9  C   UNL     1      37.782  14.295 120.816 -0.32 -0.00    +0.000 A 
DOCKED: ATOM     10  CM  UNL     1      37.463  14.800 122.081 +0.00 -0.00    +0.000 AC
DOCKED: BRANCH   4  11
DOCKED: ATOM     11  C   UNL     1      37.101  11.056 122.595 -0.55 -0.00    +0.000 C 
DOCKED: ATOM     12  C   UNL     1      37.190  11.955 121.604 -0.53 -0.00    +0.000 C 
DOCKED: BRANCH  10  13
DOCKED: ATOM     13  O   UNL     1      36.726   9.203 121.191 -2.64 -0.00    +0.000 OA
DOCKED: ATOM     14  C   UNL     1      36.943   9.605 122.365 -0.64 -0.00    +0.000 C 
DOCKED: ATOM     15  N   UNL     1      37.055   8.644 123.424 -0.65 -0.00    +0.000 N 
DOCKED: ATOM     16  H   UNL     1      37.326   8.936 124.324 -0.58 -0.00    +0.000 HD
DOCKED: BRANCH  14  16
DOCKED: ATOM     17  O   UNL     1      36.790   7.337 123.188 -2.03 -0.00    +0.000 OA
DOCKED: ATOM     18  H   UNL     1      36.739   7.186 122.231 -0.06 -0.00    +0.000 HD
DOCKED: ENDBRANCH  14  16
DOCKED: ENDBRANCH  10  13
DOCKED: ENDBRANCH   4  11
DOCKED: ENDBRANCH   3   7
DOCKED: ENDBRANCH   1   3
DOCKED: BRANCH   1  18
DOCKED: ATOM     19  C   UNL     1      39.932  16.908 123.294 -0.26 -0.00    +0.000 C 
DOCKED: BRANCH  18  19
DOCKED: ATOM     20  C   UNL     1      41.134  17.391 124.122 -0.32 -0.00    +0.000 C 
DOCKED: BRANCH  19  20
DOCKED: ATOM     21  O   UNL     1      42.293  16.671 123.800 -1.02 -0.00    +0.000 OA
DOCKED: ATOM     22  H   UNL     1      43.061  17.088 124.220 -0.64 -0.00    +0.000 HD
DOCKED: ENDBRANCH  19  20
DOCKED: ENDBRANCH  18  19
DOCKED: ENDBRANCH   1  18
DOCKED: BRANCH   1  22
DOCKED: ATOM     23  C   UNL     1      39.683  18.652 121.529 -0.06 -0.00    +0.000 C 
DOCKED: BRANCH  22  23
DOCKED: ATOM     24  C   UNL     1      40.874  17.887 120.920 -0.09 -0.00    +0.000 C 
DOCKED: BRANCH  23  24
DOCKED: ATOM     25  C   UNL     1      40.520  17.374 119.558 -0.07 -0.00    +0.000 A 
DOCKED: ATOM     26  C   UNL     1      39.254  17.360 118.978 -0.05 -0.00    +0.000 A 
DOCKED: ATOM     27  N   UNL     1      39.295  16.751 117.771 -0.09 -0.00    +0.000 N 
DOCKED: ATOM     28  C   UNL     1      40.570  16.368 117.590 -0.13 -0.00    +0.000 A 
DOCKED: ATOM     29  C   UNL     1      41.347  16.725 118.662 -0.11 -0.00    +0.000 A 
DOCKED: ATOM     30  C   UNL     1      42.706  16.411 118.725 -0.16 -0.00    +0.000 A 
DOCKED: ATOM     31  C   UNL     1      43.268  15.718 117.636 -0.26 -0.00    +0.000 A 
DOCKED: ATOM     32  C   UNL     1      42.470  15.355 116.529 -0.27 -0.00    +0.000 A 
DOCKED: ATOM     33  C   UNL     1      41.101  15.679 116.500 -0.26 -0.00    +0.000 A 
DOCKED: ATOM     34  H   UNL     1      38.542  16.616 117.151 +0.00 -0.00    +0.000 HD
DOCKED: ATOM     35  CM  UNL     1      40.169  16.910 118.488 +0.00 -0.00    +0.000 AC
DOCKED: ATOM     36  CM  UNL     1      41.911  16.043 117.607 +0.00 -0.00    +0.000 AC
DOCKED: ENDBRANCH  23  24
DOCKED: ENDBRANCH  22  23
DOCKED: ENDBRANCH   1  22
DOCKED: TORSDOF 11DOCKED: TER
DOCKED: ENDMDL
________________________________________________________________________________


	BEGINNING GENETIC ALGORITHM DOCKING 10 of 100
Run: 10 Seed: 1364351096 1340865623 [ Run 10 of 100 GA/GALS ]
Beginning LAMARCKIAN GENETIC ALGORITHM (LGA), with a maximum of 2500000 energy evaluations.

Final-Value: -16.942


	FINAL GENETIC ALGORITHM DOCKED STATE
	_______________________________________________


Detailed state:  trans 35.976 17.427 122.719 quatxyzw -0.711499 0.675420 -0.181055 -0.069255 center 0.460 0.128 -0.007 ntor 11 19.3841 105.5507 98.6093 14.1844 132.5670 -175.6803 -143.8678 172.2771 171.3934 -179.8038 -25.2949
State:	 35.976  17.427 122.719  -0.713  0.677 -0.181 -172.058     19.38  105.55   98.61   14.18  132.57 -175.68 -143.87  172.28  171.39 -179.80  -25.29

DOCKED: MODEL       10
DOCKED: USER    Run = 10
DOCKED: USER    DPF = ligand_dock.biased.dpf
DOCKED: USER  
DOCKED: USER    Estimated Free Energy of Binding    =  -10.54 kcal/mol  [=(1)+(2)+(3)-(4)]
DOCKED: USER    Estimated Inhibition Constant, Ki   =   18.64 nM (nanomolar)  [Temperature = 298.15 K]
DOCKED: USER    
DOCKED: USER    (1) Final Intermolecular Energy     =  -13.83 kcal/mol
DOCKED: USER        vdW + Hbond + desolv Energy     =  -13.83 kcal/mol
DOCKED: USER        Electrostatic Energy            =   +0.00 kcal/mol
DOCKED: USER    (2) Final Total Internal Energy     =   -3.12 kcal/mol
DOCKED: USER    (3) Torsional Free Energy           =   +3.28 kcal/mol
DOCKED: USER    (4) Unbound System's Energy  [=(2)] =   -3.12 kcal/mol
DOCKED: USER    
DOCKED: USER    
DOCKED: USER    NEWDPF move ligand.dum.pdbqt
DOCKED: USER    NEWDPF about 0.460000 0.128000 -0.007000
DOCKED: USER    NEWDPF tran0 35.975792 17.427318 122.718591
DOCKED: USER    NEWDPF quaternion0 -0.711499 0.675420 -0.181055 -0.069255
DOCKED: USER    NEWDPF axisangle0 -0.713212 0.677045 -0.181491 -172.057563
DOCKED: USER    NEWDPF quat0 -0.713212 0.677045 -0.181491 -172.057563
DOCKED: USER    NEWDPF dihe0 19.38 105.55 98.61 14.18 132.57 -175.68 -143.87 172.28 171.39 -179.80 -25.29 
DOCKED: USER  keepresnum = 1 
DOCKED: USER  
DOCKED: REMARK  Name = 
DOCKED: REMARK  11 active torsions:
DOCKED: REMARK  status: ('A' for Active; 'I' for Inactive)
DOCKED: REMARK    1  A    between atoms: C_2  and  C_5
DOCKED: REMARK    2  A    between atoms: N_3  and  O_4
DOCKED: REMARK    3  A    between atoms: C_6  and  C_7
DOCKED: REMARK    4  A    between atoms: C_10  and  C_11
DOCKED: REMARK    5  A    between atoms: C_11  and  N_12
DOCKED: REMARK    6  A    between atoms: N_12  and  C_13
DOCKED: REMARK    7  A    between atoms: N_12  and  C_16
DOCKED: REMARK    8  A    between atoms: C_13  and  C_14
DOCKED: REMARK    9  A    between atoms: C_14  and  O_15
DOCKED: REMARK   10  A    between atoms: C_16  and  C_17
DOCKED: REMARK   11  A    between atoms: C_17  and  C_18
DOCKED: REMARK                            x       y       z     vdW  Elec       q    Type
DOCKED: REMARK                         _______ _______ _______ _____ _____    ______ ____
DOCKED: USER                              x       y       z     vdW  Elec       q    Type
DOCKED: USER                           _______ _______ _______ _____ _____    ______ ____
DOCKED: ROOT
DOCKED: ATOM      1  N   UNL     1      37.117  18.448 123.001 -0.13 -0.00    +0.000 N 
DOCKED: ATOM      2  H   UNL     1      36.742  17.994 123.834 -0.00 -0.00    +0.000 HD
DOCKED: ENDROOT
DOCKED: BRANCH   1   3
DOCKED: ATOM      3  C   UNL     1      36.472  17.844 121.815 -0.19 -0.00    +0.000 C 
DOCKED: BRANCH   3   7
DOCKED: ATOM      4  C   UNL     1      37.232  13.585 121.675 -0.39 -0.00    +0.000 A 
DOCKED: ATOM      5  C   UNL     1      36.400  14.129 122.668 -0.35 -0.00    +0.000 A 
DOCKED: ATOM      6  C   UNL     1      36.159  15.504 122.722 -0.30 -0.00    +0.000 A 
DOCKED: ATOM      7  C   UNL     1      36.741  16.363 121.778 -0.20 -0.00    +0.000 A 
DOCKED: ATOM      8  C   UNL     1      37.555  15.824 120.771 -0.18 -0.00    +0.000 A 
DOCKED: ATOM      9  C   UNL     1      37.798  14.449 120.716 -0.30 -0.00    +0.000 A 
DOCKED: ATOM     10  CM  UNL     1      36.981  14.976 121.722 +0.00 -0.00    +0.000 AC
DOCKED: BRANCH   4  11
DOCKED: ATOM     11  C   UNL     1      36.578  11.231 122.164 -0.64 -0.00    +0.000 C 
DOCKED: ATOM     12  C   UNL     1      37.447  12.117 121.656 -0.48 -0.00    +0.000 C 
DOCKED: BRANCH  10  13
DOCKED: ATOM     13  O   UNL     1      36.848   9.188 121.024 -2.66 -0.00    +0.000 OA
DOCKED: ATOM     14  C   UNL     1      36.798   9.770 122.140 -0.66 -0.00    +0.000 C 
DOCKED: ATOM     15  N   UNL     1      36.984   9.004 123.338 -0.61 -0.00    +0.000 N 
DOCKED: ATOM     16  H   UNL     1      37.050   9.460 124.207 -0.58 -0.00    +0.000 HD
DOCKED: BRANCH  14  16
DOCKED: ATOM     17  O   UNL     1      37.069   7.653 123.276 -2.29 -0.00    +0.000 OA
DOCKED: ATOM     18  H   UNL     1      37.292   7.386 122.370 -0.12 -0.00    +0.000 HD
DOCKED: ENDBRANCH  14  16
DOCKED: ENDBRANCH  10  13
DOCKED: ENDBRANCH   4  11
DOCKED: ENDBRANCH   3   7
DOCKED: ENDBRANCH   1   3
DOCKED: BRANCH   1  18
DOCKED: ATOM     19  C   UNL     1      38.574  18.170 123.026 -0.15 -0.00    +0.000 C 
DOCKED: BRANCH  18  19
DOCKED: ATOM     20  C   UNL     1      39.133  18.116 124.456 -0.23 -0.00    +0.000 C 
DOCKED: BRANCH  19  20
DOCKED: ATOM     21  O   UNL     1      38.100  18.023 125.401 -0.13 -0.00    +0.000 OA
DOCKED: ATOM     22  H   UNL     1      37.450  17.367 125.106 -0.01 -0.00    +0.000 HD
DOCKED: ENDBRANCH  19  20
DOCKED: ENDBRANCH  18  19
DOCKED: ENDBRANCH   1  18
DOCKED: BRANCH   1  22
DOCKED: ATOM     23  C   UNL     1      36.763  19.879 123.159 -0.16 -0.00    +0.000 C 
DOCKED: BRANCH  22  23
DOCKED: ATOM     24  C   UNL     1      35.739  20.155 124.278 -0.17 -0.00    +0.000 C 
DOCKED: BRANCH  23  24
DOCKED: ATOM     25  C   UNL     1      35.054  18.885 124.680 -0.23 -0.00    +0.000 A 
DOCKED: ATOM     26  C   UNL     1      34.437  17.969 123.833 -0.33 -0.00    +0.000 A 
DOCKED: ATOM     27  N   UNL     1      33.854  16.981 124.550 -0.39 -0.00    +0.000 N 
DOCKED: ATOM     28  C   UNL     1      34.085  17.274 125.842 -0.37 -0.00    +0.000 A 
DOCKED: ATOM     29  C   UNL     1      34.808  18.432 125.962 -0.25 -0.00    +0.000 A 
DOCKED: ATOM     30  C   UNL     1      35.150  18.961 127.207 -0.15 -0.00    +0.000 A 
DOCKED: ATOM     31  C   UNL     1      34.736  18.258 128.353 -0.15 -0.00    +0.000 A 
DOCKED: ATOM     32  C   UNL     1      33.995  17.062 128.231 -0.22 -0.00    +0.000 A 
DOCKED: ATOM     33  C   UNL     1      33.659  16.558 126.960 -0.35 -0.00    +0.000 A 
DOCKED: ATOM     34  H   UNL     1      33.362  16.206 124.197 -0.02 -0.00    +0.000 HD
DOCKED: ATOM     35  CM  UNL     1      34.428  17.878 124.960 -0.42 -0.00    +0.000 AC
DOCKED: ATOM     36  CM  UNL     1      34.406  17.757 127.092 -0.03 -0.00    +0.000 AC
DOCKED: ENDBRANCH  23  24
DOCKED: ENDBRANCH  22  23
DOCKED: ENDBRANCH   1  22
DOCKED: TORSDOF 11DOCKED: TER
DOCKED: ENDMDL
________________________________________________________________________________


	BEGINNING GENETIC ALGORITHM DOCKING 11 of 100
Run: 11 Seed: 1110769422 1311249130 [ Run 11 of 100 GA/GALS ]
Beginning LAMARCKIAN GENETIC ALGORITHM (LGA), with a maximum of 2500000 energy evaluations.

Final-Value: -17.148


	FINAL GENETIC ALGORITHM DOCKED STATE
	_______________________________________________


Detailed state:  trans 38.301 14.507 121.797 quatxyzw -0.772069 0.631456 0.008441 -0.071427 center 0.460 0.128 -0.007 ntor 11 1.6363 -100.2433 130.3384 25.3309 -12.7076 -128.6537 47.9664 92.6533 158.1628 -15.0957 35.7021
State:	 38.301  14.507 121.797  -0.774  0.633  0.008 -171.808      1.64 -100.24  130.34   25.33  -12.71 -128.65   47.97   92.65  158.16  -15.10   35.70

DOCKED: MODEL       11
DOCKED: USER    Run = 11
DOCKED: USER    DPF = ligand_dock.biased.dpf
DOCKED: USER  
DOCKED: USER    Estimated Free Energy of Binding    =  -10.76 kcal/mol  [=(1)+(2)+(3)-(4)]
DOCKED: USER    Estimated Inhibition Constant, Ki   =   13.02 nM (nanomolar)  [Temperature = 298.15 K]
DOCKED: USER    
DOCKED: USER    (1) Final Intermolecular Energy     =  -14.04 kcal/mol
DOCKED: USER        vdW + Hbond + desolv Energy     =  -14.04 kcal/mol
DOCKED: USER        Electrostatic Energy            =   +0.00 kcal/mol
DOCKED: USER    (2) Final Total Internal Energy     =   -3.11 kcal/mol
DOCKED: USER    (3) Torsional Free Energy           =   +3.28 kcal/mol
DOCKED: USER    (4) Unbound System's Energy  [=(2)] =   -3.11 kcal/mol
DOCKED: USER    
DOCKED: USER    
DOCKED: USER    NEWDPF move ligand.dum.pdbqt
DOCKED: USER    NEWDPF about 0.460000 0.128000 -0.007000
DOCKED: USER    NEWDPF tran0 38.300672 14.507454 121.796574
DOCKED: USER    NEWDPF quaternion0 -0.772069 0.631456 0.008441 -0.071427
DOCKED: USER    NEWDPF axisangle0 -0.774046 0.633073 0.008462 -171.808060
DOCKED: USER    NEWDPF quat0 -0.774046 0.633073 0.008462 -171.808060
DOCKED: USER    NEWDPF dihe0 1.64 -100.24 130.34 25.33 -12.71 -128.65 47.97 92.65 158.16 -15.10 35.70 
DOCKED: USER  keepresnum = 1 
DOCKED: USER  
DOCKED: REMARK  Name = 
DOCKED: REMARK  11 active torsions:
DOCKED: REMARK  status: ('A' for Active; 'I' for Inactive)
DOCKED: REMARK    1  A    between atoms: C_2  and  C_5
DOCKED: REMARK    2  A    between atoms: N_3  and  O_4
DOCKED: REMARK    3  A    between atoms: C_6  and  C_7
DOCKED: REMARK    4  A    between atoms: C_10  and  C_11
DOCKED: REMARK    5  A    between atoms: C_11  and  N_12
DOCKED: REMARK    6  A    between atoms: N_12  and  C_13
DOCKED: REMARK    7  A    between atoms: N_12  and  C_16
DOCKED: REMARK    8  A    between atoms: C_13  and  C_14
DOCKED: REMARK    9  A    between atoms: C_14  and  O_15
DOCKED: REMARK   10  A    between atoms: C_16  and  C_17
DOCKED: REMARK   11  A    between atoms: C_17  and  C_18
DOCKED: REMARK                            x       y       z     vdW  Elec       q    Type
DOCKED: REMARK                         _______ _______ _______ _____ _____    ______ ____
DOCKED: USER                              x       y       z     vdW  Elec       q    Type
DOCKED: USER                           _______ _______ _______ _____ _____    ______ ____
DOCKED: ROOT
DOCKED: ATOM      1  N   UNL     1      39.326  15.656 122.026 -0.27 -0.00    +0.000 N 
DOCKED: ATOM      2  H   UNL     1      39.280  14.975 122.784 -0.02 -0.00    +0.000 HD
DOCKED: ENDROOT
DOCKED: BRANCH   1   3
DOCKED: ATOM      3  C   UNL     1      38.446  15.192 120.933 -0.28 -0.00    +0.000 C 
DOCKED: BRANCH   3   7
DOCKED: ATOM      4  C   UNL     1      36.480  11.519 122.107 -0.55 -0.00    +0.000 A 
DOCKED: ATOM      5  C   UNL     1      37.206  11.587 120.906 -0.40 -0.00    +0.000 A 
DOCKED: ATOM      6  C   UNL     1      37.835  12.773 120.519 -0.44 -0.00    +0.000 A 
DOCKED: ATOM      7  C   UNL     1      37.756  13.914 121.331 -0.37 -0.00    +0.000 A 
DOCKED: ATOM      8  C   UNL     1      37.050  13.848 122.540 -0.44 -0.00    +0.000 A 
DOCKED: ATOM      9  C   UNL     1      36.420  12.662 122.930 -0.55 -0.00    +0.000 A 
DOCKED: ATOM     10  CM  UNL     1      37.125  12.718 121.722 +0.00 -0.00    +0.000 AC
DOCKED: BRANCH   4  11
DOCKED: ATOM     11  C   UNL     1      36.521   9.156 122.895 -0.72 -0.00    +0.000 C 
DOCKED: ATOM     12  C   UNL     1      35.840  10.232 122.477 -0.67 -0.00    +0.000 C 
DOCKED: BRANCH  10  13
DOCKED: ATOM     13  O   UNL     1      36.524   6.810 123.098 -1.47 -0.00    +0.000 OA
DOCKED: ATOM     14  C   UNL     1      35.877   7.877 123.263 -0.73 -0.00    +0.000 C 
DOCKED: ATOM     15  N   UNL     1      34.558   7.817 123.823 -0.63 -0.00    +0.000 N 
DOCKED: ATOM     16  H   UNL     1      34.084   8.648 124.052 -0.41 -0.00    +0.000 HD
DOCKED: BRANCH  14  16
DOCKED: ATOM     17  O   UNL     1      33.965   6.618 124.039 -0.85 -0.00    +0.000 OA
DOCKED: ATOM     18  H   UNL     1      34.573   5.907 123.784 -0.20 -0.00    +0.000 HD
DOCKED: ENDBRANCH  14  16
DOCKED: ENDBRANCH  10  13
DOCKED: ENDBRANCH   4  11
DOCKED: ENDBRANCH   3   7
DOCKED: ENDBRANCH   1   3
DOCKED: BRANCH   1  18
DOCKED: ATOM     19  C   UNL     1      40.748  15.678 121.605 -0.33 -0.00    +0.000 C 
DOCKED: BRANCH  18  19
DOCKED: ATOM     20  C   UNL     1      41.691  15.178 122.711 -0.56 -0.00    +0.000 C 
DOCKED: BRANCH  19  20
DOCKED: ATOM     21  O   UNL     1      41.205  14.001 123.298 -0.90 -0.00    +0.000 OA
DOCKED: ATOM     22  H   UNL     1      41.629  13.869 124.160 -0.21 -0.00    +0.000 HD
DOCKED: ENDBRANCH  19  20
DOCKED: ENDBRANCH  18  19
DOCKED: ENDBRANCH   1  18
DOCKED: BRANCH   1  22
DOCKED: ATOM     23  C   UNL     1      38.845  16.923 122.628 -0.22 -0.00    +0.000 C 
DOCKED: BRANCH  22  23
DOCKED: ATOM     24  C   UNL     1      37.899  16.731 123.831 -0.23 -0.00    +0.000 C 
DOCKED: BRANCH  23  24
DOCKED: ATOM     25  C   UNL     1      36.471  16.801 123.384 -0.27 -0.00    +0.000 A 
DOCKED: ATOM     26  C   UNL     1      35.418  16.011 123.840 -0.42 -0.00    +0.000 A 
DOCKED: ATOM     27  N   UNL     1      34.286  16.297 123.157 -0.44 -0.00    +0.000 N 
DOCKED: ATOM     28  C   UNL     1      34.617  17.247 122.267 -0.33 -0.00    +0.000 A 
DOCKED: ATOM     29  C   UNL     1      35.944  17.576 122.370 -0.23 -0.00    +0.000 A 
DOCKED: ATOM     30  C   UNL     1      36.537  18.521 121.531 -0.15 -0.00    +0.000 A 
DOCKED: ATOM     31  C   UNL     1      35.721  19.145 120.568 -0.16 -0.00    +0.000 A 
DOCKED: ATOM     32  C   UNL     1      34.353  18.810 120.464 -0.24 -0.00    +0.000 A 
DOCKED: ATOM     33  C   UNL     1      33.787  17.847 121.321 -0.31 -0.00    +0.000 A 
DOCKED: ATOM     34  H   UNL     1      33.399  15.891 123.287 -0.04 -0.00    +0.000 HD
DOCKED: ATOM     35  CM  UNL     1      35.313  16.771 123.008 -0.01 -0.00    +0.000 AC
DOCKED: ATOM     36  CM  UNL     1      35.159  18.192 121.420 +0.00 -0.00    +0.000 AC
DOCKED: ENDBRANCH  23  24
DOCKED: ENDBRANCH  22  23
DOCKED: ENDBRANCH   1  22
DOCKED: TORSDOF 11DOCKED: TER
DOCKED: ENDMDL
________________________________________________________________________________


	BEGINNING GENETIC ALGORITHM DOCKING 12 of 100
Run: 12 Seed: 1247397522 1109061464 [ Run 12 of 100 GA/GALS ]
Beginning LAMARCKIAN GENETIC ALGORITHM (LGA), with a maximum of 2500000 energy evaluations.

Final-Value: -16.383


	FINAL GENETIC ALGORITHM DOCKED STATE
	_______________________________________________


Detailed state:  trans 36.608 15.000 121.888 quatxyzw -0.434497 0.233290 -0.707487 -0.506212 center 0.460 0.128 -0.007 ntor 11 107.4192 -152.0623 94.3346 44.6510 -115.4669 -169.4169 -134.1076 118.1179 146.6098 34.5312 12.6794
State:	 36.608  15.000 121.888  -0.504  0.271 -0.820 -119.176    107.42 -152.06   94.33   44.65 -115.47 -169.42 -134.11  118.12  146.61   34.53   12.68

DOCKED: MODEL       12
DOCKED: USER    Run = 12
DOCKED: USER    DPF = ligand_dock.biased.dpf
DOCKED: USER  
DOCKED: USER    Estimated Free Energy of Binding    =  -10.10 kcal/mol  [=(1)+(2)+(3)-(4)]
DOCKED: USER    Estimated Inhibition Constant, Ki   =   39.81 nM (nanomolar)  [Temperature = 298.15 K]
DOCKED: USER    
DOCKED: USER    (1) Final Intermolecular Energy     =  -13.38 kcal/mol
DOCKED: USER        vdW + Hbond + desolv Energy     =  -13.38 kcal/mol
DOCKED: USER        Electrostatic Energy            =   +0.00 kcal/mol
DOCKED: USER    (2) Final Total Internal Energy     =   -3.01 kcal/mol
DOCKED: USER    (3) Torsional Free Energy           =   +3.28 kcal/mol
DOCKED: USER    (4) Unbound System's Energy  [=(2)] =   -3.01 kcal/mol
DOCKED: USER    
DOCKED: USER    
DOCKED: USER    NEWDPF move ligand.dum.pdbqt
DOCKED: USER    NEWDPF about 0.460000 0.128000 -0.007000
DOCKED: USER    NEWDPF tran0 36.607649 14.999818 121.888201
DOCKED: USER    NEWDPF quaternion0 -0.434497 0.233290 -0.707487 -0.506212
DOCKED: USER    NEWDPF axisangle0 -0.503818 0.270509 -0.820361 -119.176297
DOCKED: USER    NEWDPF quat0 -0.503818 0.270509 -0.820361 -119.176297
DOCKED: USER    NEWDPF dihe0 107.42 -152.06 94.33 44.65 -115.47 -169.42 -134.11 118.12 146.61 34.53 12.68 
DOCKED: USER  keepresnum = 1 
DOCKED: USER  
DOCKED: REMARK  Name = 
DOCKED: REMARK  11 active torsions:
DOCKED: REMARK  status: ('A' for Active; 'I' for Inactive)
DOCKED: REMARK    1  A    between atoms: C_2  and  C_5
DOCKED: REMARK    2  A    between atoms: N_3  and  O_4
DOCKED: REMARK    3  A    between atoms: C_6  and  C_7
DOCKED: REMARK    4  A    between atoms: C_10  and  C_11
DOCKED: REMARK    5  A    between atoms: C_11  and  N_12
DOCKED: REMARK    6  A    between atoms: N_12  and  C_13
DOCKED: REMARK    7  A    between atoms: N_12  and  C_16
DOCKED: REMARK    8  A    between atoms: C_13  and  C_14
DOCKED: REMARK    9  A    between atoms: C_14  and  O_15
DOCKED: REMARK   10  A    between atoms: C_16  and  C_17
DOCKED: REMARK   11  A    between atoms: C_17  and  C_18
DOCKED: REMARK                            x       y       z     vdW  Elec       q    Type
DOCKED: REMARK                         _______ _______ _______ _____ _____    ______ ____
DOCKED: USER                              x       y       z     vdW  Elec       q    Type
DOCKED: USER                           _______ _______ _______ _____ _____    ______ ____
DOCKED: ROOT
DOCKED: ATOM      1  N   UNL     1      36.063  16.330 122.488 -0.27 -0.00    +0.000 N 
DOCKED: ATOM      2  H   UNL     1      35.341  15.670 122.199 -0.01 -0.00    +0.000 HD
DOCKED: ENDROOT
DOCKED: BRANCH   1   3
DOCKED: ATOM      3  C   UNL     1      37.379  15.678 122.312 -0.31 -0.00    +0.000 C 
DOCKED: BRANCH   3   7
DOCKED: ATOM      4  C   UNL     1      36.885  11.380 122.196 -0.53 -0.00    +0.000 A 
DOCKED: ATOM      5  C   UNL     1      36.826  12.072 123.417 -0.61 -0.00    +0.000 A 
DOCKED: ATOM      6  C   UNL     1      36.994  13.459 123.460 -0.50 -0.00    +0.000 A 
DOCKED: ATOM      7  C   UNL     1      37.217  14.182 122.280 -0.39 -0.00    +0.000 A 
DOCKED: ATOM      8  C   UNL     1      37.256  13.500 121.055 -0.38 -0.00    +0.000 A 
DOCKED: ATOM      9  C   UNL     1      37.089  12.113 121.010 -0.47 -0.00    +0.000 A 
DOCKED: ATOM     10  CM  UNL     1      37.044  12.785 122.236 +0.00 -0.00    +0.000 AC
DOCKED: BRANCH   4  11
DOCKED: ATOM     11  C   UNL     1      35.904   9.268 123.082 -0.67 -0.00    +0.000 C 
DOCKED: ATOM     12  C   UNL     1      36.689   9.909 122.205 -0.68 -0.00    +0.000 C 
DOCKED: BRANCH  10  13
DOCKED: ATOM     13  O   UNL     1      36.732   7.065 123.011 -1.76 -0.00    +0.000 OA
DOCKED: ATOM     14  C   UNL     1      35.714   7.802 123.084 -0.75 -0.00    +0.000 C 
DOCKED: ATOM     15  N   UNL     1      34.418   7.198 123.195 -0.68 -0.00    +0.000 N 
DOCKED: ATOM     16  H   UNL     1      33.627   7.760 123.356 -0.10 -0.00    +0.000 HD
DOCKED: BRANCH  14  16
DOCKED: ATOM     17  O   UNL     1      34.282   5.855 123.078 -0.83 -0.00    +0.000 OA
DOCKED: ATOM     18  H   UNL     1      34.094   5.473 123.949 -0.61 -0.00    +0.000 HD
DOCKED: ENDBRANCH  14  16
DOCKED: ENDBRANCH  10  13
DOCKED: ENDBRANCH   4  11
DOCKED: ENDBRANCH   3   7
DOCKED: ENDBRANCH   1   3
DOCKED: BRANCH   1  18
DOCKED: ATOM     19  C   UNL     1      35.786  16.614 123.917 -0.38 -0.00    +0.000 C 
DOCKED: BRANCH  18  19
DOCKED: ATOM     20  C   UNL     1      34.514  15.910 124.415 -0.57 -0.00    +0.000 C 
DOCKED: BRANCH  19  20
DOCKED: ATOM     21  O   UNL     1      34.039  14.991 123.468 -0.60 -0.00    +0.000 OA
DOCKED: ATOM     22  H   UNL     1      33.626  14.241 123.924 -0.10 -0.00    +0.000 HD
DOCKED: ENDBRANCH  19  20
DOCKED: ENDBRANCH  18  19
DOCKED: ENDBRANCH   1  18
DOCKED: BRANCH   1  22
DOCKED: ATOM     23  C   UNL     1      35.893  17.494 121.586 -0.24 -0.00    +0.000 C 
DOCKED: BRANCH  22  23
DOCKED: ATOM     24  C   UNL     1      35.511  17.122 120.140 -0.14 -0.00    +0.000 C 
DOCKED: BRANCH  23  24
DOCKED: ATOM     25  C   UNL     1      36.671  16.475 119.447 -0.14 -0.00    +0.000 A 
DOCKED: ATOM     26  C   UNL     1      38.007  16.859 119.527 -0.09 -0.00    +0.000 A 
DOCKED: ATOM     27  N   UNL     1      38.766  16.098 118.707 -0.13 -0.00    +0.000 N 
DOCKED: ATOM     28  C   UNL     1      37.921  15.247 118.100 -0.18 -0.00    +0.000 A 
DOCKED: ATOM     29  C   UNL     1      36.632  15.451 118.521 -0.19 -0.00    +0.000 A 
DOCKED: ATOM     30  C   UNL     1      35.565  14.709 118.013 -0.15 -0.00    +0.000 A 
DOCKED: ATOM     31  C   UNL     1      35.853  13.723 117.051 -0.30 -0.00    +0.000 A 
DOCKED: ATOM     32  C   UNL     1      37.180  13.508 116.620 -0.35 -0.00    +0.000 A 
DOCKED: ATOM     33  C   UNL     1      38.234  14.279 117.147 -0.23 -0.00    +0.000 A 
DOCKED: ATOM     34  H   UNL     1      39.741  16.155 118.580 -0.01 -0.00    +0.000 HD
DOCKED: ATOM     35  CM  UNL     1      37.637  16.028 118.855 +0.00 -0.00    +0.000 AC
DOCKED: ATOM     36  CM  UNL     1      36.898  14.486 117.575 +0.00 -0.00    +0.000 AC
DOCKED: ENDBRANCH  23  24
DOCKED: ENDBRANCH  22  23
DOCKED: ENDBRANCH   1  22
DOCKED: TORSDOF 11DOCKED: TER
DOCKED: ENDMDL
________________________________________________________________________________


	BEGINNING GENETIC ALGORITHM DOCKING 13 of 100
Run: 13 Seed: 1874128509 797291738 [ Run 13 of 100 GA/GALS ]
Beginning LAMARCKIAN GENETIC ALGORITHM (LGA), with a maximum of 2500000 energy evaluations.

Final-Value: -16.771


	FINAL GENETIC ALGORITHM DOCKED STATE
	_______________________________________________


Detailed state:  trans 38.544 16.702 121.701 quatxyzw 0.745364 -0.386112 -0.533261 0.104801 center 0.460 0.128 -0.007 ntor 11 9.0421 11.3545 79.3880 80.6409 -179.9556 -172.5142 169.7770 -165.4627 -163.6349 167.6118 49.2626
State:	 38.544  16.702 121.701   0.749 -0.388 -0.536 167.969      9.04   11.35   79.39   80.64 -179.96 -172.51  169.78 -165.46 -163.63  167.61   49.26

DOCKED: MODEL       13
DOCKED: USER    Run = 13
DOCKED: USER    DPF = ligand_dock.biased.dpf
DOCKED: USER  
DOCKED: USER    Estimated Free Energy of Binding    =   -9.58 kcal/mol  [=(1)+(2)+(3)-(4)]
DOCKED: USER    Estimated Inhibition Constant, Ki   =   94.91 nM (nanomolar)  [Temperature = 298.15 K]
DOCKED: USER    
DOCKED: USER    (1) Final Intermolecular Energy     =  -12.86 kcal/mol
DOCKED: USER        vdW + Hbond + desolv Energy     =  -12.86 kcal/mol
DOCKED: USER        Electrostatic Energy            =   +0.00 kcal/mol
DOCKED: USER    (2) Final Total Internal Energy     =   -3.91 kcal/mol
DOCKED: USER    (3) Torsional Free Energy           =   +3.28 kcal/mol
DOCKED: USER    (4) Unbound System's Energy  [=(2)] =   -3.91 kcal/mol
DOCKED: USER    
DOCKED: USER    
DOCKED: USER    NEWDPF move ligand.dum.pdbqt
DOCKED: USER    NEWDPF about 0.460000 0.128000 -0.007000
DOCKED: USER    NEWDPF tran0 38.543992 16.701625 121.700902
DOCKED: USER    NEWDPF quaternion0 0.745364 -0.386112 -0.533261 0.104801
DOCKED: USER    NEWDPF axisangle0 0.749491 -0.388250 -0.536214 167.968642
DOCKED: USER    NEWDPF quat0 0.749491 -0.388250 -0.536214 167.968642
DOCKED: USER    NEWDPF dihe0 9.04 11.35 79.39 80.64 -179.96 -172.51 169.78 -165.46 -163.63 167.61 49.26 
DOCKED: USER  keepresnum = 1 
DOCKED: USER  
DOCKED: REMARK  Name = 
DOCKED: REMARK  11 active torsions:
DOCKED: REMARK  status: ('A' for Active; 'I' for Inactive)
DOCKED: REMARK    1  A    between atoms: C_2  and  C_5
DOCKED: REMARK    2  A    between atoms: N_3  and  O_4
DOCKED: REMARK    3  A    between atoms: C_6  and  C_7
DOCKED: REMARK    4  A    between atoms: C_10  and  C_11
DOCKED: REMARK    5  A    between atoms: C_11  and  N_12
DOCKED: REMARK    6  A    between atoms: N_12  and  C_13
DOCKED: REMARK    7  A    between atoms: N_12  and  C_16
DOCKED: REMARK    8  A    between atoms: C_13  and  C_14
DOCKED: REMARK    9  A    between atoms: C_14  and  O_15
DOCKED: REMARK   10  A    between atoms: C_16  and  C_17
DOCKED: REMARK   11  A    between atoms: C_17  and  C_18
DOCKED: REMARK                            x       y       z     vdW  Elec       q    Type
DOCKED: REMARK                         _______ _______ _______ _____ _____    ______ ____
DOCKED: USER                              x       y       z     vdW  Elec       q    Type
DOCKED: USER                           _______ _______ _______ _____ _____    ______ ____
DOCKED: ROOT
DOCKED: ATOM      1  N   UNL     1      39.282  17.977 122.205 -0.10 -0.00    +0.000 N 
DOCKED: ATOM      2  H   UNL     1      39.886  17.166 122.069 +0.00 -0.00    +0.000 HD
DOCKED: ENDROOT
DOCKED: BRANCH   1   3
DOCKED: ATOM      3  C   UNL     1      37.922  17.622 121.745 -0.12 -0.00    +0.000 C 
DOCKED: BRANCH   3   7
DOCKED: ATOM      4  C   UNL     1      37.531  13.333 121.318 -0.42 -0.00    +0.000 A 
DOCKED: ATOM      5  C   UNL     1      37.923  13.895 122.545 -0.43 -0.00    +0.000 A 
DOCKED: ATOM      6  C   UNL     1      38.059  15.278 122.684 -0.33 -0.00    +0.000 A 
DOCKED: ATOM      7  C   UNL     1      37.797  16.128 121.600 -0.19 -0.00    +0.000 A 
DOCKED: ATOM      8  C   UNL     1      37.386  15.576 120.379 -0.19 -0.00    +0.000 A 
DOCKED: ATOM      9  C   UNL     1      37.250  14.192 120.236 -0.29 -0.00    +0.000 A 
DOCKED: ATOM     10  CM  UNL     1      37.657  14.734 121.460 +0.00 -0.00    +0.000 AC
DOCKED: BRANCH   4  11
DOCKED: ATOM     11  C   UNL     1      37.073  11.075 122.266 -0.55 -0.00    +0.000 C 
DOCKED: ATOM     12  C   UNL     1      37.391  11.858 121.226 -0.49 -0.00    +0.000 C 
DOCKED: BRANCH  10  13
DOCKED: ATOM     13  O   UNL     1      36.805   9.092 121.025 -2.64 -0.00    +0.000 OA
DOCKED: ATOM     14  C   UNL     1      36.935   9.606 122.167 -0.64 -0.00    +0.000 C 
DOCKED: ATOM     15  N   UNL     1      36.973   8.753 123.319 -0.65 -0.00    +0.000 N 
DOCKED: ATOM     16  H   UNL     1      37.177   9.133 124.204 -0.58 -0.00    +0.000 HD
DOCKED: BRANCH  14  16
DOCKED: ATOM     17  O   UNL     1      36.729   7.427 123.192 -2.05 -0.00    +0.000 OA
DOCKED: ATOM     18  H   UNL     1      36.689   7.195 122.251 -0.05 -0.00    +0.000 HD
DOCKED: ENDBRANCH  14  16
DOCKED: ENDBRANCH  10  13
DOCKED: ENDBRANCH   4  11
DOCKED: ENDBRANCH   3   7
DOCKED: ENDBRANCH   1   3
DOCKED: BRANCH   1  18
DOCKED: ATOM     19  C   UNL     1      39.873  19.051 121.372 -0.04 -0.00    +0.000 C 
DOCKED: BRANCH  18  19
DOCKED: ATOM     20  C   UNL     1      40.538  18.503 120.099 -0.04 -0.00    +0.000 C 
DOCKED: BRANCH  19  20
DOCKED: ATOM     21  O   UNL     1      40.526  17.101 120.085 -0.11 -0.00    +0.000 OA
DOCKED: ATOM     22  H   UNL     1      40.860  16.765 120.931 +0.00 -0.00    +0.000 HD
DOCKED: ENDBRANCH  19  20
DOCKED: ENDBRANCH  18  19
DOCKED: ENDBRANCH   1  18
DOCKED: BRANCH   1  22
DOCKED: ATOM     23  C   UNL     1      39.325  18.237 123.664 -0.19 -0.00    +0.000 C 
DOCKED: BRANCH  22  23
DOCKED: ATOM     24  C   UNL     1      40.432  17.466 124.411 -0.23 -0.00    +0.000 C 
DOCKED: BRANCH  23  24
DOCKED: ATOM     25  C   UNL     1      41.305  16.737 123.436 -0.32 -0.00    +0.000 A 
DOCKED: ATOM     26  C   UNL     1      41.207  15.397 123.072 -0.37 -0.00    +0.000 A 
DOCKED: ATOM     27  N   UNL     1      42.210  15.063 122.229 -0.46 -0.00    +0.000 N 
DOCKED: ATOM     28  C   UNL     1      42.947  16.175 122.068 -0.34 -0.00    +0.000 A 
DOCKED: ATOM     29  C   UNL     1      42.430  17.216 122.794 -0.31 -0.00    +0.000 A 
DOCKED: ATOM     30  C   UNL     1      43.037  18.473 122.814 -0.16 -0.00    +0.000 A 
DOCKED: ATOM     31  C   UNL     1      44.205  18.648 122.049 -0.14 -0.00    +0.000 A 
DOCKED: ATOM     32  C   UNL     1      44.736  17.577 121.297 -0.16 -0.00    +0.000 A 
DOCKED: ATOM     33  C   UNL     1      44.104  16.319 121.303 -0.24 -0.00    +0.000 A 
DOCKED: ATOM     34  H   UNL     1      42.367  14.183 121.816 -0.03 -0.00    +0.000 HD
DOCKED: ATOM     35  CM  UNL     1      42.026  16.084 122.704 +0.00 -0.00    +0.000 AC
DOCKED: ATOM     36  CM  UNL     1      43.577  17.402 122.054 +0.00 -0.00    +0.000 AC
DOCKED: ENDBRANCH  23  24
DOCKED: ENDBRANCH  22  23
DOCKED: ENDBRANCH   1  22
DOCKED: TORSDOF 11DOCKED: TER
DOCKED: ENDMDL
________________________________________________________________________________


	BEGINNING GENETIC ALGORITHM DOCKING 14 of 100
Run: 14 Seed: 1227821462 501725942 [ Run 14 of 100 GA/GALS ]
Beginning LAMARCKIAN GENETIC ALGORITHM (LGA), with a maximum of 2500000 energy evaluations.

Final-Value: -16.382


	FINAL GENETIC ALGORITHM DOCKED STATE
	_______________________________________________


Detailed state:  trans 36.674 16.974 123.756 quatxyzw -0.612402 0.286320 0.554378 0.485437 center 0.460 0.128 -0.007 ntor 11 20.4469 -82.5224 120.4243 7.3265 168.3174 166.4269 2.7843 125.0201 -161.1035 -76.1177 -6.4556
State:	 36.674  16.974 123.756  -0.700  0.327  0.634 121.918     20.45  -82.52  120.42    7.33  168.32  166.43    2.78  125.02 -161.10  -76.12   -6.46

DOCKED: MODEL       14
DOCKED: USER    Run = 14
DOCKED: USER    DPF = ligand_dock.biased.dpf
DOCKED: USER  
DOCKED: USER    Estimated Free Energy of Binding    =  -10.04 kcal/mol  [=(1)+(2)+(3)-(4)]
DOCKED: USER    Estimated Inhibition Constant, Ki   =   43.83 nM (nanomolar)  [Temperature = 298.15 K]
DOCKED: USER    
DOCKED: USER    (1) Final Intermolecular Energy     =  -13.32 kcal/mol
DOCKED: USER        vdW + Hbond + desolv Energy     =  -13.32 kcal/mol
DOCKED: USER        Electrostatic Energy            =   +0.00 kcal/mol
DOCKED: USER    (2) Final Total Internal Energy     =   -3.06 kcal/mol
DOCKED: USER    (3) Torsional Free Energy           =   +3.28 kcal/mol
DOCKED: USER    (4) Unbound System's Energy  [=(2)] =   -3.06 kcal/mol
DOCKED: USER    
DOCKED: USER    
DOCKED: USER    NEWDPF move ligand.dum.pdbqt
DOCKED: USER    NEWDPF about 0.460000 0.128000 -0.007000
DOCKED: USER    NEWDPF tran0 36.673532 16.974336 123.756341
DOCKED: USER    NEWDPF quaternion0 -0.612402 0.286320 0.554378 0.485437
DOCKED: USER    NEWDPF axisangle0 -0.700471 0.327496 0.634103 121.917832
DOCKED: USER    NEWDPF quat0 -0.700471 0.327496 0.634103 121.917832
DOCKED: USER    NEWDPF dihe0 20.45 -82.52 120.42 7.33 168.32 166.43 2.78 125.02 -161.10 -76.12 -6.46 
DOCKED: USER  keepresnum = 1 
DOCKED: USER  
DOCKED: REMARK  Name = 
DOCKED: REMARK  11 active torsions:
DOCKED: REMARK  status: ('A' for Active; 'I' for Inactive)
DOCKED: REMARK    1  A    between atoms: C_2  and  C_5
DOCKED: REMARK    2  A    between atoms: N_3  and  O_4
DOCKED: REMARK    3  A    between atoms: C_6  and  C_7
DOCKED: REMARK    4  A    between atoms: C_10  and  C_11
DOCKED: REMARK    5  A    between atoms: C_11  and  N_12
DOCKED: REMARK    6  A    between atoms: N_12  and  C_13
DOCKED: REMARK    7  A    between atoms: N_12  and  C_16
DOCKED: REMARK    8  A    between atoms: C_13  and  C_14
DOCKED: REMARK    9  A    between atoms: C_14  and  O_15
DOCKED: REMARK   10  A    between atoms: C_16  and  C_17
DOCKED: REMARK   11  A    between atoms: C_17  and  C_18
DOCKED: REMARK                            x       y       z     vdW  Elec       q    Type
DOCKED: REMARK                         _______ _______ _______ _____ _____    ______ ____
DOCKED: USER                              x       y       z     vdW  Elec       q    Type
DOCKED: USER                           _______ _______ _______ _____ _____    ______ ____
DOCKED: ROOT
DOCKED: ATOM      1  N   UNL     1      36.242  18.262 122.995 -0.19 -0.00    +0.000 N 
DOCKED: ATOM      2  H   UNL     1      37.188  17.945 122.784 +0.00 -0.00    +0.000 HD
DOCKED: ENDROOT
DOCKED: BRANCH   1   3
DOCKED: ATOM      3  C   UNL     1      35.609  17.267 123.887 -0.34 -0.00    +0.000 C 
DOCKED: BRANCH   3   7
DOCKED: ATOM      4  C   UNL     1      36.649  13.266 122.604 -0.47 -0.00    +0.000 A 
DOCKED: ATOM      5  C   UNL     1      35.948  13.470 123.804 -0.52 -0.00    +0.000 A 
DOCKED: ATOM      6  C   UNL     1      35.618  14.761 124.227 -0.45 -0.00    +0.000 A 
DOCKED: ATOM      7  C   UNL     1      35.977  15.873 123.451 -0.37 -0.00    +0.000 A 
DOCKED: ATOM      8  C   UNL     1      36.658  15.675 122.243 -0.26 -0.00    +0.000 A 
DOCKED: ATOM      9  C   UNL     1      36.990  14.385 121.818 -0.29 -0.00    +0.000 A 
DOCKED: ATOM     10  CM  UNL     1      36.306  14.572 123.025 +0.00 -0.00    +0.000 AC
DOCKED: BRANCH   4  11
DOCKED: ATOM     11  C   UNL     1      36.500  10.789 122.831 -0.69 -0.00    +0.000 C 
DOCKED: ATOM     12  C   UNL     1      36.966  11.875 122.196 -0.60 -0.00    +0.000 C 
DOCKED: BRANCH  10  13
DOCKED: ATOM     13  O   UNL     1      37.069   9.185 121.204 -2.73 -0.00    +0.000 OA
DOCKED: ATOM     14  C   UNL     1      36.820   9.406 122.418 -0.69 -0.00    +0.000 C 
DOCKED: ATOM     15  N   UNL     1      36.882   8.322 123.355 -0.70 -0.00    +0.000 N 
DOCKED: ATOM     16  H   UNL     1      36.791   8.500 124.318 -0.40 -0.00    +0.000 HD
DOCKED: BRANCH  14  16
DOCKED: ATOM     17  O   UNL     1      37.066   7.054 122.916 -1.81 -0.00    +0.000 OA
DOCKED: ATOM     18  H   UNL     1      37.450   7.073 122.026 -0.20 -0.00    +0.000 HD
DOCKED: ENDBRANCH  14  16
DOCKED: ENDBRANCH  10  13
DOCKED: ENDBRANCH   4  11
DOCKED: ENDBRANCH   3   7
DOCKED: ENDBRANCH   1   3
DOCKED: BRANCH   1  18
DOCKED: ATOM     19  C   UNL     1      35.551  18.332 121.685 -0.27 -0.00    +0.000 C 
DOCKED: BRANCH  18  19
DOCKED: ATOM     20  C   UNL     1      36.453  18.904 120.580 -0.15 -0.00    +0.000 C 
DOCKED: BRANCH  19  20
DOCKED: ATOM     21  O   UNL     1      37.783  18.492 120.747 -0.07 -0.00    +0.000 OA
DOCKED: ATOM     22  H   UNL     1      38.380  19.212 120.494 +0.00 -0.00    +0.000 HD
DOCKED: ENDBRANCH  19  20
DOCKED: ENDBRANCH  18  19
DOCKED: ENDBRANCH   1  18
DOCKED: BRANCH   1  22
DOCKED: ATOM     23  C   UNL     1      36.424  19.573 123.664 -0.18 -0.00    +0.000 C 
DOCKED: BRANCH  22  23
DOCKED: ATOM     24  C   UNL     1      37.833  20.176 123.498 -0.09 -0.00    +0.000 C 
DOCKED: BRANCH  23  24
DOCKED: ATOM     25  C   UNL     1      38.855  19.294 124.147 -0.10 -0.00    +0.000 A 
DOCKED: ATOM     26  C   UNL     1      39.626  18.316 123.523 -0.16 -0.00    +0.000 A 
DOCKED: ATOM     27  N   UNL     1      40.385  17.663 124.432 -0.29 -0.00    +0.000 N 
DOCKED: ATOM     28  C   UNL     1      40.089  18.208 125.624 -0.27 -0.00    +0.000 A 
DOCKED: ATOM     29  C   UNL     1      39.154  19.202 125.492 -0.15 -0.00    +0.000 A 
DOCKED: ATOM     30  C   UNL     1      38.662  19.903 126.594 -0.10 -0.00    +0.000 A 
DOCKED: ATOM     31  C   UNL     1      39.166  19.563 127.864 -0.13 -0.00    +0.000 A 
DOCKED: ATOM     32  C   UNL     1      40.132  18.542 128.001 -0.28 -0.00    +0.000 A 
DOCKED: ATOM     33  C   UNL     1      40.603  17.849 126.870 -0.33 -0.00    +0.000 A 
DOCKED: ATOM     34  H   UNL     1      41.024  16.936 124.256 -0.04 -0.00    +0.000 HD
DOCKED: ATOM     35  CM  UNL     1      39.646  18.509 124.637 +0.00 -0.00    +0.000 AC
DOCKED: ATOM     36  CM  UNL     1      39.635  18.878 126.741 +0.00 -0.00    +0.000 AC
DOCKED: ENDBRANCH  23  24
DOCKED: ENDBRANCH  22  23
DOCKED: ENDBRANCH   1  22
DOCKED: TORSDOF 11DOCKED: TER
DOCKED: ENDMDL
________________________________________________________________________________


	BEGINNING GENETIC ALGORITHM DOCKING 15 of 100
Run: 15 Seed: 581732367 2072547227 [ Run 15 of 100 GA/GALS ]
Beginning LAMARCKIAN GENETIC ALGORITHM (LGA), with a maximum of 2500000 energy evaluations.

Final-Value: -16.288


	FINAL GENETIC ALGORITHM DOCKED STATE
	_______________________________________________


Detailed state:  trans 37.035 17.208 122.716 quatxyzw -0.605060 0.126377 0.775957 -0.125782 center 0.460 0.128 -0.007 ntor 11 17.1304 179.6754 71.7642 82.6019 157.7536 -34.7351 159.3401 -48.4744 -154.5325 69.4273 73.8507
State:	 37.035  17.208 122.716  -0.610  0.127  0.782 -165.548     17.13  179.68   71.76   82.60  157.75  -34.74  159.34  -48.47 -154.53   69.43   73.85

DOCKED: MODEL       15
DOCKED: USER    Run = 15
DOCKED: USER    DPF = ligand_dock.biased.dpf
DOCKED: USER  
DOCKED: USER    Estimated Free Energy of Binding    =  -10.26 kcal/mol  [=(1)+(2)+(3)-(4)]
DOCKED: USER    Estimated Inhibition Constant, Ki   =   29.96 nM (nanomolar)  [Temperature = 298.15 K]
DOCKED: USER    
DOCKED: USER    (1) Final Intermolecular Energy     =  -13.55 kcal/mol
DOCKED: USER        vdW + Hbond + desolv Energy     =  -13.55 kcal/mol
DOCKED: USER        Electrostatic Energy            =   +0.00 kcal/mol
DOCKED: USER    (2) Final Total Internal Energy     =   -2.74 kcal/mol
DOCKED: USER    (3) Torsional Free Energy           =   +3.28 kcal/mol
DOCKED: USER    (4) Unbound System's Energy  [=(2)] =   -2.74 kcal/mol
DOCKED: USER    
DOCKED: USER    
DOCKED: USER    NEWDPF move ligand.dum.pdbqt
DOCKED: USER    NEWDPF about 0.460000 0.128000 -0.007000
DOCKED: USER    NEWDPF tran0 37.034726 17.208205 122.716442
DOCKED: USER    NEWDPF quaternion0 -0.605060 0.126377 0.775957 -0.125782
DOCKED: USER    NEWDPF axisangle0 -0.609904 0.127388 0.782169 -165.548108
DOCKED: USER    NEWDPF quat0 -0.609904 0.127388 0.782169 -165.548108
DOCKED: USER    NEWDPF dihe0 17.13 179.68 71.76 82.60 157.75 -34.74 159.34 -48.47 -154.53 69.43 73.85 
DOCKED: USER  keepresnum = 1 
DOCKED: USER  
DOCKED: REMARK  Name = 
DOCKED: REMARK  11 active torsions:
DOCKED: REMARK  status: ('A' for Active; 'I' for Inactive)
DOCKED: REMARK    1  A    between atoms: C_2  and  C_5
DOCKED: REMARK    2  A    between atoms: N_3  and  O_4
DOCKED: REMARK    3  A    between atoms: C_6  and  C_7
DOCKED: REMARK    4  A    between atoms: C_10  and  C_11
DOCKED: REMARK    5  A    between atoms: C_11  and  N_12
DOCKED: REMARK    6  A    between atoms: N_12  and  C_13
DOCKED: REMARK    7  A    between atoms: N_12  and  C_16
DOCKED: REMARK    8  A    between atoms: C_13  and  C_14
DOCKED: REMARK    9  A    between atoms: C_14  and  O_15
DOCKED: REMARK   10  A    between atoms: C_16  and  C_17
DOCKED: REMARK   11  A    between atoms: C_17  and  C_18
DOCKED: REMARK                            x       y       z     vdW  Elec       q    Type
DOCKED: REMARK                         _______ _______ _______ _____ _____    ______ ____
DOCKED: USER                              x       y       z     vdW  Elec       q    Type
DOCKED: USER                           _______ _______ _______ _____ _____    ______ ____
DOCKED: ROOT
DOCKED: ATOM      1  N   UNL     1      37.697  18.331 123.567 -0.15 -0.00    +0.000 N 
DOCKED: ATOM      2  H   UNL     1      38.284  17.970 122.815 +0.00 -0.00    +0.000 HD
DOCKED: ENDROOT
DOCKED: BRANCH   1   3
DOCKED: ATOM      3  C   UNL     1      36.368  17.691 123.464 -0.25 -0.00    +0.000 C 
DOCKED: BRANCH   3   7
DOCKED: ATOM      4  C   UNL     1      36.814  13.501 122.476 -0.45 -0.00    +0.000 A 
DOCKED: ATOM      5  C   UNL     1      37.609  14.471 121.844 -0.35 -0.00    +0.000 A 
DOCKED: ATOM      6  C   UNL     1      37.463  15.826 122.153 -0.25 -0.00    +0.000 A 
DOCKED: ATOM      7  C   UNL     1      36.521  16.236 123.109 -0.30 -0.00    +0.000 A 
DOCKED: ATOM      8  C   UNL     1      35.739  15.271 123.759 -0.44 -0.00    +0.000 A 
DOCKED: ATOM      9  C   UNL     1      35.884  13.915 123.450 -0.48 -0.00    +0.000 A 
DOCKED: ATOM     10  CM  UNL     1      36.672  14.870 122.799 +0.00 -0.00    +0.000 AC
DOCKED: BRANCH   4  11
DOCKED: ATOM     11  C   UNL     1      36.522  11.052 122.830 -0.69 -0.00    +0.000 C 
DOCKED: ATOM     12  C   UNL     1      37.017  12.074 122.119 -0.58 -0.00    +0.000 C 
DOCKED: BRANCH  10  13
DOCKED: ATOM     13  O   UNL     1      36.689   9.314 121.250 -2.51 -0.00    +0.000 OA
DOCKED: ATOM     14  C   UNL     1      36.728   9.634 122.468 -0.70 -0.00    +0.000 C 
DOCKED: ATOM     15  N   UNL     1      36.996   8.623 123.449 -0.65 -0.00    +0.000 N 
DOCKED: ATOM     16  H   UNL     1      37.131   8.877 124.390 -0.53 -0.00    +0.000 HD
DOCKED: BRANCH  14  16
DOCKED: ATOM     17  O   UNL     1      37.066   7.321 123.083 -2.14 -0.00    +0.000 OA
DOCKED: ATOM     18  H   UNL     1      37.182   7.261 122.122 -0.11 -0.00    +0.000 HD
DOCKED: ENDBRANCH  14  16
DOCKED: ENDBRANCH  10  13
DOCKED: ENDBRANCH   4  11
DOCKED: ENDBRANCH   3   7
DOCKED: ENDBRANCH   1   3
DOCKED: BRANCH   1  18
DOCKED: ATOM     19  C   UNL     1      37.614  19.793 123.332 -0.11 -0.00    +0.000 C 
DOCKED: BRANCH  18  19
DOCKED: ATOM     20  C   UNL     1      37.604  20.143 121.835 -0.10 -0.00    +0.000 C 
DOCKED: BRANCH  19  20
DOCKED: ATOM     21  O   UNL     1      37.961  19.035 121.053 -0.06 -0.00    +0.000 OA
DOCKED: ATOM     22  H   UNL     1      37.228  18.805 120.462 +0.00 -0.00    +0.000 HD
DOCKED: ENDBRANCH  19  20
DOCKED: ENDBRANCH  18  19
DOCKED: ENDBRANCH   1  18
DOCKED: BRANCH   1  22
DOCKED: ATOM     23  C   UNL     1      38.404  17.950 124.814 -0.13 -0.00    +0.000 C 
DOCKED: BRANCH  22  23
DOCKED: ATOM     24  C   UNL     1      39.907  17.665 124.625 -0.20 -0.00    +0.000 C 
DOCKED: BRANCH  23  24
DOCKED: ATOM     25  C   UNL     1      40.720  18.549 125.521 -0.29 -0.00    +0.000 A 
DOCKED: ATOM     26  C   UNL     1      41.502  19.633 125.132 -0.13 -0.00    +0.000 A 
DOCKED: ATOM     27  N   UNL     1      42.156  20.148 126.198 -0.12 -0.00    +0.000 N 
DOCKED: ATOM     28  C   UNL     1      41.806  19.391 127.252 -0.20 -0.00    +0.000 A 
DOCKED: ATOM     29  C   UNL     1      40.936  18.400 126.877 -0.34 -0.00    +0.000 A 
DOCKED: ATOM     30  C   UNL     1      40.448  17.464 127.790 -0.31 -0.00    +0.000 A 
DOCKED: ATOM     31  C   UNL     1      40.872  17.572 129.128 -0.43 -0.00    +0.000 A 
DOCKED: ATOM     32  C   UNL     1      41.765  18.595 129.516 -0.29 -0.00    +0.000 A 
DOCKED: ATOM     33  C   UNL     1      42.244  19.520 128.569 -0.21 -0.00    +0.000 A 
DOCKED: ATOM     34  H   UNL     1      42.766  20.921 126.200 -0.07 -0.00    +0.000 HD
DOCKED: ATOM     35  CM  UNL     1      41.448  19.254 126.196 +0.00 -0.00    +0.000 AC
DOCKED: ATOM     36  CM  UNL     1      41.345  18.491 128.189 +0.00 -0.00    +0.000 AC
DOCKED: ENDBRANCH  23  24
DOCKED: ENDBRANCH  22  23
DOCKED: ENDBRANCH   1  22
DOCKED: TORSDOF 11DOCKED: TER
DOCKED: ENDMDL
________________________________________________________________________________


	BEGINNING GENETIC ALGORITHM DOCKING 16 of 100
Run: 16 Seed: 1599298124 1564198496 [ Run 16 of 100 GA/GALS ]
Beginning LAMARCKIAN GENETIC ALGORITHM (LGA), with a maximum of 2500000 energy evaluations.

Final-Value: -15.738


	FINAL GENETIC ALGORITHM DOCKED STATE
	_______________________________________________


Detailed state:  trans 36.411 15.424 121.783 quatxyzw 0.514942 0.114692 0.781959 0.331995 center 0.460 0.128 -0.007 ntor 11 0.3120 173.7338 -154.6792 -162.4940 147.8721 99.9135 -109.7665 -52.2367 73.0060 -162.5253 41.9603
State:	 36.411  15.424 121.783   0.546  0.122  0.829 141.220      0.31  173.73 -154.68 -162.49  147.87   99.91 -109.77  -52.24   73.01 -162.53   41.96

DOCKED: MODEL       16
DOCKED: USER    Run = 16
DOCKED: USER    DPF = ligand_dock.biased.dpf
DOCKED: USER  
DOCKED: USER    Estimated Free Energy of Binding    =  -10.09 kcal/mol  [=(1)+(2)+(3)-(4)]
DOCKED: USER    Estimated Inhibition Constant, Ki   =   39.91 nM (nanomolar)  [Temperature = 298.15 K]
DOCKED: USER    
DOCKED: USER    (1) Final Intermolecular Energy     =  -13.38 kcal/mol
DOCKED: USER        vdW + Hbond + desolv Energy     =  -13.38 kcal/mol
DOCKED: USER        Electrostatic Energy            =   +0.00 kcal/mol
DOCKED: USER    (2) Final Total Internal Energy     =   -2.36 kcal/mol
DOCKED: USER    (3) Torsional Free Energy           =   +3.28 kcal/mol
DOCKED: USER    (4) Unbound System's Energy  [=(2)] =   -2.36 kcal/mol
DOCKED: USER    
DOCKED: USER    
DOCKED: USER    NEWDPF move ligand.dum.pdbqt
DOCKED: USER    NEWDPF about 0.460000 0.128000 -0.007000
DOCKED: USER    NEWDPF tran0 36.410900 15.423587 121.782866
DOCKED: USER    NEWDPF quaternion0 0.514942 0.114692 0.781959 0.331995
DOCKED: USER    NEWDPF axisangle0 0.545906 0.121588 0.828977 141.220188
DOCKED: USER    NEWDPF quat0 0.545906 0.121588 0.828977 141.220188
DOCKED: USER    NEWDPF dihe0 0.31 173.73 -154.68 -162.49 147.87 99.91 -109.77 -52.24 73.01 -162.53 41.96 
DOCKED: USER  keepresnum = 1 
DOCKED: USER  
DOCKED: REMARK  Name = 
DOCKED: REMARK  11 active torsions:
DOCKED: REMARK  status: ('A' for Active; 'I' for Inactive)
DOCKED: REMARK    1  A    between atoms: C_2  and  C_5
DOCKED: REMARK    2  A    between atoms: N_3  and  O_4
DOCKED: REMARK    3  A    between atoms: C_6  and  C_7
DOCKED: REMARK    4  A    between atoms: C_10  and  C_11
DOCKED: REMARK    5  A    between atoms: C_11  and  N_12
DOCKED: REMARK    6  A    between atoms: N_12  and  C_13
DOCKED: REMARK    7  A    between atoms: N_12  and  C_16
DOCKED: REMARK    8  A    between atoms: C_13  and  C_14
DOCKED: REMARK    9  A    between atoms: C_14  and  O_15
DOCKED: REMARK   10  A    between atoms: C_16  and  C_17
DOCKED: REMARK   11  A    between atoms: C_17  and  C_18
DOCKED: REMARK                            x       y       z     vdW  Elec       q    Type
DOCKED: REMARK                         _______ _______ _______ _____ _____    ______ ____
DOCKED: USER                              x       y       z     vdW  Elec       q    Type
DOCKED: USER                           _______ _______ _______ _____ _____    ______ ____
DOCKED: ROOT
DOCKED: ATOM      1  N   UNL     1      35.844  16.732 121.157 -0.21 -0.00    +0.000 N 
DOCKED: ATOM      2  H   UNL     1      35.155  15.989 121.278 +0.02 -0.00    +0.000 HD
DOCKED: ENDROOT
DOCKED: BRANCH   1   3
DOCKED: ATOM      3  C   UNL     1      37.120  16.279 121.751 -0.23 -0.00    +0.000 C 
DOCKED: BRANCH   3   7
DOCKED: ATOM      4  C   UNL     1      36.867  12.113 122.895 -0.58 -0.00    +0.000 A 
DOCKED: ATOM      5  C   UNL     1      37.231  12.472 121.586 -0.47 -0.00    +0.000 A 
DOCKED: ATOM      6  C   UNL     1      37.306  13.816 121.210 -0.35 -0.00    +0.000 A 
DOCKED: ATOM      7  C   UNL     1      37.024  14.827 122.140 -0.31 -0.00    +0.000 A 
DOCKED: ATOM      8  C   UNL     1      36.681  14.476 123.453 -0.43 -0.00    +0.000 A 
DOCKED: ATOM      9  C   UNL     1      36.605  13.132 123.831 -0.48 -0.00    +0.000 A 
DOCKED: ATOM     10  CM  UNL     1      36.953  13.473 122.519 +0.00 -0.00    +0.000 AC
DOCKED: BRANCH   4  11
DOCKED: ATOM     11  C   UNL     1      36.024   9.784 122.624 -0.69 -0.00    +0.000 C 
DOCKED: ATOM     12  C   UNL     1      36.814  10.671 123.245 -0.64 -0.00    +0.000 C 
DOCKED: BRANCH  10  13
DOCKED: ATOM     13  O   UNL     1      37.063   7.722 123.090 -2.35 -0.00    +0.000 OA
DOCKED: ATOM     14  C   UNL     1      35.976   8.349 122.978 -0.74 -0.00    +0.000 C 
DOCKED: ATOM     15  N   UNL     1      34.742   7.661 123.223 -0.65 -0.00    +0.000 N 
DOCKED: ATOM     16  H   UNL     1      33.896   8.163 123.240 -0.08 -0.00    +0.000 HD
DOCKED: BRANCH  14  16
DOCKED: ATOM     17  O   UNL     1      34.740   6.323 123.433 -0.84 -0.00    +0.000 OA
DOCKED: ATOM     18  H   UNL     1      35.649   5.988 123.388 -0.04 -0.00    +0.000 HD
DOCKED: ENDBRANCH  14  16
DOCKED: ENDBRANCH  10  13
DOCKED: ENDBRANCH   4  11
DOCKED: ENDBRANCH   3   7
DOCKED: ENDBRANCH   1   3
DOCKED: BRANCH   1  18
DOCKED: ATOM     19  C   UNL     1      35.292  17.900 121.884 -0.30 -0.00    +0.000 C 
DOCKED: BRANCH  18  19
DOCKED: ATOM     20  C   UNL     1      36.395  18.806 122.454 -0.19 -0.00    +0.000 C 
DOCKED: BRANCH  19  20
DOCKED: ATOM     21  O   UNL     1      36.295  20.109 121.943 -0.77 -0.00    +0.000 OA
DOCKED: ATOM     22  H   UNL     1      36.051  20.718 122.657 -0.01 -0.00    +0.000 HD
DOCKED: ENDBRANCH  19  20
DOCKED: ENDBRANCH  18  19
DOCKED: ENDBRANCH   1  18
DOCKED: BRANCH   1  22
DOCKED: ATOM     23  C   UNL     1      35.947  16.915 119.689 -0.17 -0.00    +0.000 C 
DOCKED: BRANCH  22  23
DOCKED: ATOM     24  C   UNL     1      37.292  16.459 119.089 -0.14 -0.00    +0.000 C 
DOCKED: BRANCH  23  24
DOCKED: ATOM     25  C   UNL     1      37.070  15.368 118.087 -0.19 -0.00    +0.000 A 
DOCKED: ATOM     26  C   UNL     1      35.924  14.588 117.947 -0.27 -0.00    +0.000 A 
DOCKED: ATOM     27  N   UNL     1      36.108  13.648 116.992 -0.36 -0.00    +0.000 N 
DOCKED: ATOM     28  C   UNL     1      37.362  13.818 116.539 -0.34 -0.00    +0.000 A 
DOCKED: ATOM     29  C   UNL     1      37.983  14.854 117.187 -0.21 -0.00    +0.000 A 
DOCKED: ATOM     30  C   UNL     1      39.304  15.209 116.912 -0.18 -0.00    +0.000 A 
DOCKED: ATOM     31  C   UNL     1      39.989  14.472 115.929 -0.30 -0.00    +0.000 A 
DOCKED: ATOM     32  C   UNL     1      39.349  13.407 115.256 -0.39 -0.00    +0.000 A 
DOCKED: ATOM     33  C   UNL     1      38.017  13.069 115.562 -0.43 -0.00    +0.000 A 
DOCKED: ATOM     34  H   UNL     1      35.455  12.977 116.690 -0.03 -0.00    +0.000 HD
DOCKED: ATOM     35  CM  UNL     1      36.865  14.429 117.339 +0.00 -0.00    +0.000 AC
DOCKED: ATOM     36  CM  UNL     1      38.667  14.138 116.230 +0.00 -0.00    +0.000 AC
DOCKED: ENDBRANCH  23  24
DOCKED: ENDBRANCH  22  23
DOCKED: ENDBRANCH   1  22
DOCKED: TORSDOF 11DOCKED: TER
DOCKED: ENDMDL
________________________________________________________________________________


	BEGINNING GENETIC ALGORITHM DOCKING 17 of 100
Run: 17 Seed: 1352017646 542906697 [ Run 17 of 100 GA/GALS ]
Beginning LAMARCKIAN GENETIC ALGORITHM (LGA), with a maximum of 2500000 energy evaluations.

Final-Value: -16.683


	FINAL GENETIC ALGORITHM DOCKED STATE
	_______________________________________________


Detailed state:  trans 35.900 18.515 121.471 quatxyzw 0.239761 0.687483 -0.452923 -0.514532 center 0.460 0.128 -0.007 ntor 11 34.8072 6.4975 -75.7597 -78.4506 84.3780 86.7821 -175.7197 82.1634 103.9012 -119.0518 -106.8627
State:	 35.900  18.515 121.471   0.280  0.802 -0.528 -118.068     34.81    6.50  -75.76  -78.45   84.38   86.78 -175.72   82.16  103.90 -119.05 -106.86

DOCKED: MODEL       17
DOCKED: USER    Run = 17
DOCKED: USER    DPF = ligand_dock.biased.dpf
DOCKED: USER  
DOCKED: USER    Estimated Free Energy of Binding    =  -11.22 kcal/mol  [=(1)+(2)+(3)-(4)]
DOCKED: USER    Estimated Inhibition Constant, Ki   =    6.00 nM (nanomolar)  [Temperature = 298.15 K]
DOCKED: USER    
DOCKED: USER    (1) Final Intermolecular Energy     =  -14.50 kcal/mol
DOCKED: USER        vdW + Hbond + desolv Energy     =  -14.50 kcal/mol
DOCKED: USER        Electrostatic Energy            =   +0.00 kcal/mol
DOCKED: USER    (2) Final Total Internal Energy     =   -2.19 kcal/mol
DOCKED: USER    (3) Torsional Free Energy           =   +3.28 kcal/mol
DOCKED: USER    (4) Unbound System's Energy  [=(2)] =   -2.19 kcal/mol
DOCKED: USER    
DOCKED: USER    
DOCKED: USER    NEWDPF move ligand.dum.pdbqt
DOCKED: USER    NEWDPF about 0.460000 0.128000 -0.007000
DOCKED: USER    NEWDPF tran0 35.899900 18.514625 121.470949
DOCKED: USER    NEWDPF quaternion0 0.239761 0.687483 -0.452923 -0.514532
DOCKED: USER    NEWDPF axisangle0 0.279614 0.801756 -0.528208 -118.067594
DOCKED: USER    NEWDPF quat0 0.279614 0.801756 -0.528208 -118.067594
DOCKED: USER    NEWDPF dihe0 34.81 6.50 -75.76 -78.45 84.38 86.78 -175.72 82.16 103.90 -119.05 -106.86 
DOCKED: USER  keepresnum = 1 
DOCKED: USER  
DOCKED: REMARK  Name = 
DOCKED: REMARK  11 active torsions:
DOCKED: REMARK  status: ('A' for Active; 'I' for Inactive)
DOCKED: REMARK    1  A    between atoms: C_2  and  C_5
DOCKED: REMARK    2  A    between atoms: N_3  and  O_4
DOCKED: REMARK    3  A    between atoms: C_6  and  C_7
DOCKED: REMARK    4  A    between atoms: C_10  and  C_11
DOCKED: REMARK    5  A    between atoms: C_11  and  N_12
DOCKED: REMARK    6  A    between atoms: N_12  and  C_13
DOCKED: REMARK    7  A    between atoms: N_12  and  C_16
DOCKED: REMARK    8  A    between atoms: C_13  and  C_14
DOCKED: REMARK    9  A    between atoms: C_14  and  O_15
DOCKED: REMARK   10  A    between atoms: C_16  and  C_17
DOCKED: REMARK   11  A    between atoms: C_17  and  C_18
DOCKED: REMARK                            x       y       z     vdW  Elec       q    Type
DOCKED: REMARK                         _______ _______ _______ _____ _____    ______ ____
DOCKED: USER                              x       y       z     vdW  Elec       q    Type
DOCKED: USER                           _______ _______ _______ _____ _____    ______ ____
DOCKED: ROOT
DOCKED: ATOM      1  N   UNL     1      35.237  18.059 122.804 -0.28 -0.00    +0.000 N 
DOCKED: ATOM      2  H   UNL     1      34.703  18.755 122.284 -0.02 -0.00    +0.000 HD
DOCKED: ENDROOT
DOCKED: BRANCH   1   3
DOCKED: ATOM      3  C   UNL     1      36.411  17.675 121.991 -0.21 -0.00    +0.000 C 
DOCKED: BRANCH   3   7
DOCKED: ATOM      4  C   UNL     1      37.154  13.426 122.343 -0.46 -0.00    +0.000 A 
DOCKED: ATOM      5  C   UNL     1      37.085  14.036 121.079 -0.29 -0.00    +0.000 A 
DOCKED: ATOM      6  C   UNL     1      36.837  15.406 120.961 -0.15 -0.00    +0.000 A 
DOCKED: ATOM      7  C   UNL     1      36.660  16.195 122.106 -0.23 -0.00    +0.000 A 
DOCKED: ATOM      8  C   UNL     1      36.748  15.597 123.371 -0.34 -0.00    +0.000 A 
DOCKED: ATOM      9  C   UNL     1      36.996  14.226 123.492 -0.42 -0.00    +0.000 A 
DOCKED: ATOM     10  CM  UNL     1      36.913  14.815 122.225 +0.00 -0.00    +0.000 AC
DOCKED: BRANCH   4  11
DOCKED: ATOM     11  C   UNL     1      36.542  11.026 122.071 -0.63 -0.00    +0.000 C 
DOCKED: ATOM     12  C   UNL     1      37.431  11.970 122.414 -0.45 -0.00    +0.000 C 
DOCKED: BRANCH  10  13
DOCKED: ATOM     13  O   UNL     1      36.900   8.926 121.068 -2.67 -0.00    +0.000 OA
DOCKED: ATOM     14  C   UNL     1      36.824   9.577 122.143 -0.67 -0.00    +0.000 C 
DOCKED: ATOM     15  N   UNL     1      37.042   8.900 123.389 -0.61 -0.00    +0.000 N 
DOCKED: ATOM     16  H   UNL     1      37.088   9.415 124.226 -0.57 -0.00    +0.000 HD
DOCKED: BRANCH  14  16
DOCKED: ATOM     17  O   UNL     1      37.185   7.554 123.415 -2.18 -0.00    +0.000 OA
DOCKED: ATOM     18  H   UNL     1      37.648   7.263 122.614 -0.29 -0.00    +0.000 HD
DOCKED: ENDBRANCH  14  16
DOCKED: ENDBRANCH  10  13
DOCKED: ENDBRANCH   4  11
DOCKED: ENDBRANCH   3   7
DOCKED: ENDBRANCH   1   3
DOCKED: BRANCH   1  18
DOCKED: ATOM     19  C   UNL     1      34.312  16.916 122.993 -0.41 -0.00    +0.000 C 
DOCKED: BRANCH  18  19
DOCKED: ATOM     20  C   UNL     1      34.187  16.505 124.469 -0.49 -0.00    +0.000 C 
DOCKED: BRANCH  19  20
DOCKED: ATOM     21  O   UNL     1      33.695  15.197 124.591 -0.66 -0.00    +0.000 OA
DOCKED: ATOM     22  H   UNL     1      32.861  15.118 124.103 -0.31 -0.00    +0.000 HD
DOCKED: ENDBRANCH  19  20
DOCKED: ENDBRANCH  18  19
DOCKED: ENDBRANCH   1  18
DOCKED: BRANCH   1  22
DOCKED: ATOM     23  C   UNL     1      35.629  18.745 124.059 -0.25 -0.00    +0.000 C 
DOCKED: BRANCH  22  23
DOCKED: ATOM     24  C   UNL     1      36.847  19.680 123.913 -0.15 -0.00    +0.000 C 
DOCKED: BRANCH  23  24
DOCKED: ATOM     25  C   UNL     1      38.055  19.062 124.549 -0.13 -0.00    +0.000 A 
DOCKED: ATOM     26  C   UNL     1      38.392  19.095 125.900 -0.15 -0.00    +0.000 A 
DOCKED: ATOM     27  N   UNL     1      39.590  18.502 126.101 -0.25 -0.00    +0.000 N 
DOCKED: ATOM     28  C   UNL     1      40.019  18.108 124.889 -0.25 -0.00    +0.000 A 
DOCKED: ATOM     29  C   UNL     1      39.111  18.438 123.916 -0.16 -0.00    +0.000 A 
DOCKED: ATOM     30  C   UNL     1      39.342  18.159 122.568 -0.10 -0.00    +0.000 A 
DOCKED: ATOM     31  C   UNL     1      40.545  17.510 122.231 -0.15 -0.00    +0.000 A 
DOCKED: ATOM     32  C   UNL     1      41.478  17.165 123.233 -0.31 -0.00    +0.000 A 
DOCKED: ATOM     33  C   UNL     1      41.219  17.467 124.583 -0.25 -0.00    +0.000 A 
DOCKED: ATOM     34  H   UNL     1      40.055  18.383 126.961 -0.02 -0.00    +0.000 HD
DOCKED: ATOM     35  CM  UNL     1      39.052  18.637 125.104 +0.00 -0.00    +0.000 AC
DOCKED: ATOM     36  CM  UNL     1      40.286  17.807 123.570 +0.00 -0.00    +0.000 AC
DOCKED: ENDBRANCH  23  24
DOCKED: ENDBRANCH  22  23
DOCKED: ENDBRANCH   1  22
DOCKED: TORSDOF 11DOCKED: TER
DOCKED: ENDMDL
________________________________________________________________________________


	BEGINNING GENETIC ALGORITHM DOCKING 18 of 100
Run: 18 Seed: 1984963012 62304214 [ Run 18 of 100 GA/GALS ]
Beginning LAMARCKIAN GENETIC ALGORITHM (LGA), with a maximum of 2500000 energy evaluations.

Final-Value: -15.814


	FINAL GENETIC ALGORITHM DOCKED STATE
	_______________________________________________


Detailed state:  trans 36.428 15.211 121.940 quatxyzw -0.250349 0.070683 -0.751893 -0.605794 center 0.460 0.128 -0.007 ntor 11 106.8127 82.5127 -54.8902 -178.2944 -164.9870 -139.0712 -126.2199 128.2286 172.0423 28.7518 6.0917
State:	 36.428  15.211 121.940  -0.315  0.089 -0.945 -105.428    106.81   82.51  -54.89 -178.29 -164.99 -139.07 -126.22  128.23  172.04   28.75    6.09

DOCKED: MODEL       18
DOCKED: USER    Run = 18
DOCKED: USER    DPF = ligand_dock.biased.dpf
DOCKED: USER  
DOCKED: USER    Estimated Free Energy of Binding    =  -10.46 kcal/mol  [=(1)+(2)+(3)-(4)]
DOCKED: USER    Estimated Inhibition Constant, Ki   =   21.47 nM (nanomolar)  [Temperature = 298.15 K]
DOCKED: USER    
DOCKED: USER    (1) Final Intermolecular Energy     =  -13.74 kcal/mol
DOCKED: USER        vdW + Hbond + desolv Energy     =  -13.74 kcal/mol
DOCKED: USER        Electrostatic Energy            =   +0.00 kcal/mol
DOCKED: USER    (2) Final Total Internal Energy     =   -2.07 kcal/mol
DOCKED: USER    (3) Torsional Free Energy           =   +3.28 kcal/mol
DOCKED: USER    (4) Unbound System's Energy  [=(2)] =   -2.07 kcal/mol
DOCKED: USER    
DOCKED: USER    
DOCKED: USER    NEWDPF move ligand.dum.pdbqt
DOCKED: USER    NEWDPF about 0.460000 0.128000 -0.007000
DOCKED: USER    NEWDPF tran0 36.427806 15.211075 121.940422
DOCKED: USER    NEWDPF quaternion0 -0.250349 0.070683 -0.751893 -0.605794
DOCKED: USER    NEWDPF axisangle0 -0.314658 0.088840 -0.945038 -105.428003
DOCKED: USER    NEWDPF quat0 -0.314658 0.088840 -0.945038 -105.428003
DOCKED: USER    NEWDPF dihe0 106.81 82.51 -54.89 -178.29 -164.99 -139.07 -126.22 128.23 172.04 28.75 6.09 
DOCKED: USER  keepresnum = 1 
DOCKED: USER  
DOCKED: REMARK  Name = 
DOCKED: REMARK  11 active torsions:
DOCKED: REMARK  status: ('A' for Active; 'I' for Inactive)
DOCKED: REMARK    1  A    between atoms: C_2  and  C_5
DOCKED: REMARK    2  A    between atoms: N_3  and  O_4
DOCKED: REMARK    3  A    between atoms: C_6  and  C_7
DOCKED: REMARK    4  A    between atoms: C_10  and  C_11
DOCKED: REMARK    5  A    between atoms: C_11  and  N_12
DOCKED: REMARK    6  A    between atoms: N_12  and  C_13
DOCKED: REMARK    7  A    between atoms: N_12  and  C_16
DOCKED: REMARK    8  A    between atoms: C_13  and  C_14
DOCKED: REMARK    9  A    between atoms: C_14  and  O_15
DOCKED: REMARK   10  A    between atoms: C_16  and  C_17
DOCKED: REMARK   11  A    between atoms: C_17  and  C_18
DOCKED: REMARK                            x       y       z     vdW  Elec       q    Type
DOCKED: REMARK                         _______ _______ _______ _____ _____    ______ ____
DOCKED: USER                              x       y       z     vdW  Elec       q    Type
DOCKED: USER                           _______ _______ _______ _____ _____    ______ ____
DOCKED: ROOT
DOCKED: ATOM      1  N   UNL     1      35.465  16.413 122.171 -0.26 -0.00    +0.000 N 
DOCKED: ATOM      2  H   UNL     1      35.086  15.677 121.574 +0.12 -0.00    +0.000 HD
DOCKED: ENDROOT
DOCKED: BRANCH   1   3
DOCKED: ATOM      3  C   UNL     1      36.780  15.965 122.678 -0.32 -0.00    +0.000 C 
DOCKED: BRANCH   3   7
DOCKED: ATOM      4  C   UNL     1      36.887  11.641 122.844 -0.58 -0.00    +0.000 A 
DOCKED: ATOM      5  C   UNL     1      36.300  12.380 123.884 -0.58 -0.00    +0.000 A 
DOCKED: ATOM      6  C   UNL     1      36.271  13.777 123.839 -0.48 -0.00    +0.000 A 
DOCKED: ATOM      7  C   UNL     1      36.823  14.461 122.746 -0.40 -0.00    +0.000 A 
DOCKED: ATOM      8  C   UNL     1      37.392  13.729 121.695 -0.39 -0.00    +0.000 A 
DOCKED: ATOM      9  C   UNL     1      37.423  12.332 121.739 -0.45 -0.00    +0.000 A 
DOCKED: ATOM     10  CM  UNL     1      36.849  13.054 122.791 +0.00 -0.00    +0.000 AC
DOCKED: BRANCH   4  11
DOCKED: ATOM     11  C   UNL     1      35.765   9.420 122.974 -0.67 -0.00    +0.000 C 
DOCKED: ATOM     12  C   UNL     1      36.883  10.160 122.936 -0.63 -0.00    +0.000 C 
DOCKED: BRANCH  10  13
DOCKED: ATOM     13  O   UNL     1      36.876   7.347 123.074 -2.09 -0.00    +0.000 OA
DOCKED: ATOM     14  C   UNL     1      35.768   7.945 123.065 -0.75 -0.00    +0.000 C 
DOCKED: ATOM     15  N   UNL     1      34.559   7.181 123.170 -0.68 -0.00    +0.000 N 
DOCKED: ATOM     16  H   UNL     1      33.695   7.642 123.268 -0.08 -0.00    +0.000 HD
DOCKED: BRANCH  14  16
DOCKED: ATOM     17  O   UNL     1      34.604   5.828 123.137 -0.84 -0.00    +0.000 OA
DOCKED: ATOM     18  H   UNL     1      34.440   5.478 124.027 -0.60 -0.00    +0.000 HD
DOCKED: ENDBRANCH  14  16
DOCKED: ENDBRANCH  10  13
DOCKED: ENDBRANCH   4  11
DOCKED: ENDBRANCH   3   7
DOCKED: ENDBRANCH   1   3
DOCKED: BRANCH   1  18
DOCKED: ATOM     19  C   UNL     1      34.484  16.569 123.271 -0.47 -0.00    +0.000 C 
DOCKED: BRANCH  18  19
DOCKED: ATOM     20  C   UNL     1      35.160  16.633 124.650 -0.42 -0.00    +0.000 C 
DOCKED: BRANCH  19  20
DOCKED: ATOM     21  O   UNL     1      34.435  15.903 125.604 -0.58 -0.00    +0.000 OA
DOCKED: ATOM     22  H   UNL     1      33.877  15.250 125.156 -0.07 -0.00    +0.000 HD
DOCKED: ENDBRANCH  19  20
DOCKED: ENDBRANCH  18  19
DOCKED: ENDBRANCH   1  18
DOCKED: BRANCH   1  22
DOCKED: ATOM     23  C   UNL     1      35.585  17.594 121.283 -0.26 -0.00    +0.000 C 
DOCKED: BRANCH  22  23
DOCKED: ATOM     24  C   UNL     1      35.406  17.278 119.784 -0.13 -0.00    +0.000 C 
DOCKED: BRANCH  23  24
DOCKED: ATOM     25  C   UNL     1      36.447  16.300 119.332 -0.15 -0.00    +0.000 A 
DOCKED: ATOM     26  C   UNL     1      37.754  16.202 119.800 -0.14 -0.00    +0.000 A 
DOCKED: ATOM     27  N   UNL     1      38.432  15.257 119.110 -0.18 -0.00    +0.000 N 
DOCKED: ATOM     28  C   UNL     1      37.570  14.769 118.201 -0.23 -0.00    +0.000 A 
DOCKED: ATOM     29  C   UNL     1      36.349  15.385 118.302 -0.20 -0.00    +0.000 A 
DOCKED: ATOM     30  C   UNL     1      35.292  15.071 117.447 -0.22 -0.00    +0.000 A 
DOCKED: ATOM     31  C   UNL     1      35.513  14.082 116.470 -0.31 -0.00    +0.000 A 
DOCKED: ATOM     32  C   UNL     1      36.768  13.443 116.368 -0.30 -0.00    +0.000 A 
DOCKED: ATOM     33  C   UNL     1      37.817  13.788 117.242 -0.32 -0.00    +0.000 A 
DOCKED: ATOM     34  H   UNL     1      39.368  14.983 119.245 -0.07 -0.00    +0.000 HD
DOCKED: ATOM     35  CM  UNL     1      37.346  15.572 118.954 +0.00 -0.00    +0.000 AC
DOCKED: ATOM     36  CM  UNL     1      36.552  14.422 117.339 +0.00 -0.00    +0.000 AC
DOCKED: ENDBRANCH  23  24
DOCKED: ENDBRANCH  22  23
DOCKED: ENDBRANCH   1  22
DOCKED: TORSDOF 11DOCKED: TER
DOCKED: ENDMDL
________________________________________________________________________________


	BEGINNING GENETIC ALGORITHM DOCKING 19 of 100
Run: 19 Seed: 1055371576 595411929 [ Run 19 of 100 GA/GALS ]
Beginning LAMARCKIAN GENETIC ALGORITHM (LGA), with a maximum of 2500000 energy evaluations.

Final-Value: -17.968


	FINAL GENETIC ALGORITHM DOCKED STATE
	_______________________________________________


Detailed state:  trans 37.231 16.854 123.587 quatxyzw -0.362555 0.116536 0.765710 0.518326 center 0.460 0.128 -0.007 ntor 11 16.9767 156.4408 66.5439 66.4367 -179.7491 -82.1012 -173.6787 113.7555 179.5813 -179.0146 2.8357
State:	 37.231  16.854 123.587  -0.424  0.136  0.895 117.560     16.98  156.44   66.54   66.44 -179.75  -82.10 -173.68  113.76  179.58 -179.01    2.84

DOCKED: MODEL       19
DOCKED: USER    Run = 19
DOCKED: USER    DPF = ligand_dock.biased.dpf
DOCKED: USER  
DOCKED: USER    Estimated Free Energy of Binding    =  -10.87 kcal/mol  [=(1)+(2)+(3)-(4)]
DOCKED: USER    Estimated Inhibition Constant, Ki   =   10.69 nM (nanomolar)  [Temperature = 298.15 K]
DOCKED: USER    
DOCKED: USER    (1) Final Intermolecular Energy     =  -14.16 kcal/mol
DOCKED: USER        vdW + Hbond + desolv Energy     =  -14.16 kcal/mol
DOCKED: USER        Electrostatic Energy            =   +0.00 kcal/mol
DOCKED: USER    (2) Final Total Internal Energy     =   -3.81 kcal/mol
DOCKED: USER    (3) Torsional Free Energy           =   +3.28 kcal/mol
DOCKED: USER    (4) Unbound System's Energy  [=(2)] =   -3.81 kcal/mol
DOCKED: USER    
DOCKED: USER    
DOCKED: USER    NEWDPF move ligand.dum.pdbqt
DOCKED: USER    NEWDPF about 0.460000 0.128000 -0.007000
DOCKED: USER    NEWDPF tran0 37.231076 16.853973 123.587135
DOCKED: USER    NEWDPF quaternion0 -0.362555 0.116536 0.765710 0.518326
DOCKED: USER    NEWDPF axisangle0 -0.423950 0.136270 0.895376 117.559947
DOCKED: USER    NEWDPF quat0 -0.423950 0.136270 0.895376 117.559947
DOCKED: USER    NEWDPF dihe0 16.98 156.44 66.54 66.44 -179.75 -82.10 -173.68 113.76 179.58 -179.01 2.84 
DOCKED: USER  keepresnum = 1 
DOCKED: USER  
DOCKED: REMARK  Name = 
DOCKED: REMARK  11 active torsions:
DOCKED: REMARK  status: ('A' for Active; 'I' for Inactive)
DOCKED: REMARK    1  A    between atoms: C_2  and  C_5
DOCKED: REMARK    2  A    between atoms: N_3  and  O_4
DOCKED: REMARK    3  A    between atoms: C_6  and  C_7
DOCKED: REMARK    4  A    between atoms: C_10  and  C_11
DOCKED: REMARK    5  A    between atoms: C_11  and  N_12
DOCKED: REMARK    6  A    between atoms: N_12  and  C_13
DOCKED: REMARK    7  A    between atoms: N_12  and  C_16
DOCKED: REMARK    8  A    between atoms: C_13  and  C_14
DOCKED: REMARK    9  A    between atoms: C_14  and  O_15
DOCKED: REMARK   10  A    between atoms: C_16  and  C_17
DOCKED: REMARK   11  A    between atoms: C_17  and  C_18
DOCKED: REMARK                            x       y       z     vdW  Elec       q    Type
DOCKED: REMARK                         _______ _______ _______ _____ _____    ______ ____
DOCKED: USER                              x       y       z     vdW  Elec       q    Type
DOCKED: USER                           _______ _______ _______ _____ _____    ______ ____
DOCKED: ROOT
DOCKED: ATOM      1  N   UNL     1      36.541  18.219 123.297 -0.17 -0.00    +0.000 N 
DOCKED: ATOM      2  H   UNL     1      37.063  17.834 122.509 +0.00 -0.00    +0.000 HD
DOCKED: ENDROOT
DOCKED: BRANCH   1   3
DOCKED: ATOM      3  C   UNL     1      36.566  17.229 124.395 -0.21 -0.00    +0.000 C 
DOCKED: BRANCH   3   7
DOCKED: ATOM      4  C   UNL     1      36.730  13.205 122.812 -0.51 -0.00    +0.000 A 
DOCKED: ATOM      5  C   UNL     1      37.837  14.062 122.696 -0.43 -0.00    +0.000 A 
DOCKED: ATOM      6  C   UNL     1      37.785  15.365 123.198 -0.31 -0.00    +0.000 A 
DOCKED: ATOM      7  C   UNL     1      36.626  15.834 123.833 -0.31 -0.00    +0.000 A 
DOCKED: ATOM      8  C   UNL     1      35.526  14.977 123.971 -0.48 -0.00    +0.000 A 
DOCKED: ATOM      9  C   UNL     1      35.575  13.673 123.468 -0.43 -0.00    +0.000 A 
DOCKED: ATOM     10  CM  UNL     1      36.680  14.519 123.330 +0.00 -0.00    +0.000 AC
DOCKED: BRANCH   4  11
DOCKED: ATOM     11  C   UNL     1      36.725  10.722 123.021 -0.68 -0.00    +0.000 C 
DOCKED: ATOM     12  C   UNL     1      36.841  11.827 122.271 -0.61 -0.00    +0.000 C 
DOCKED: BRANCH  10  13
DOCKED: ATOM     13  O   UNL     1      36.733   9.193 121.231 -2.62 -0.00    +0.000 OA
DOCKED: ATOM     14  C   UNL     1      36.836   9.353 122.476 -0.69 -0.00    +0.000 C 
DOCKED: ATOM     15  N   UNL     1      37.083   8.213 123.310 -0.73 -0.00    +0.000 N 
DOCKED: ATOM     16  H   UNL     1      37.268   8.338 124.268 -0.44 -0.00    +0.000 HD
DOCKED: BRANCH  14  16
DOCKED: ATOM     17  O   UNL     1      37.064   6.966 122.781 -1.68 -0.00    +0.000 OA
DOCKED: ATOM     18  H   UNL     1      37.138   7.024 121.816 -0.15 -0.00    +0.000 HD
DOCKED: ENDBRANCH  14  16
DOCKED: ENDBRANCH  10  13
DOCKED: ENDBRANCH   4  11
DOCKED: ENDBRANCH   3   7
DOCKED: ENDBRANCH   1   3
DOCKED: BRANCH   1  18
DOCKED: ATOM     19  C   UNL     1      35.164  18.430 122.789 -0.27 -0.00    +0.000 C 
DOCKED: BRANCH  18  19
DOCKED: ATOM     20  C   UNL     1      34.882  17.620 121.514 -0.32 -0.00    +0.000 C 
DOCKED: BRANCH  19  20
DOCKED: ATOM     21  O   UNL     1      36.074  17.201 120.906 -0.21 -0.00    +0.000 OA
DOCKED: ATOM     22  H   UNL     1      36.283  16.298 121.191 -0.01 -0.00    +0.000 HD
DOCKED: ENDBRANCH  19  20
DOCKED: ENDBRANCH  18  19
DOCKED: ENDBRANCH   1  18
DOCKED: BRANCH   1  22
DOCKED: ATOM     23  C   UNL     1      37.261  19.465 123.653 -0.13 -0.00    +0.000 C 
DOCKED: BRANCH  22  23
DOCKED: ATOM     24  C   UNL     1      38.551  19.703 122.842 -0.07 -0.00    +0.000 C 
DOCKED: BRANCH  23  24
DOCKED: ATOM     25  C   UNL     1      39.638  18.788 123.316 -0.11 -0.00    +0.000 A 
DOCKED: ATOM     26  C   UNL     1      40.452  18.971 124.431 -0.18 -0.00    +0.000 A 
DOCKED: ATOM     27  N   UNL     1      41.376  17.986 124.507 -0.32 -0.00    +0.000 N 
DOCKED: ATOM     28  C   UNL     1      41.162  17.191 123.444 -0.31 -0.00    +0.000 A 
DOCKED: ATOM     29  C   UNL     1      40.113  17.652 122.690 -0.16 -0.00    +0.000 A 
DOCKED: ATOM     30  C   UNL     1      39.714  17.013 121.515 -0.13 -0.00    +0.000 A 
DOCKED: ATOM     31  C   UNL     1      40.419  15.859 121.126 -0.22 -0.00    +0.000 A 
DOCKED: ATOM     32  C   UNL     1      41.496  15.380 121.905 -0.37 -0.00    +0.000 A 
DOCKED: ATOM     33  C   UNL     1      41.879  16.053 123.081 -0.39 -0.00    +0.000 A 
DOCKED: ATOM     34  H   UNL     1      42.065  17.873 125.201 -0.51 -0.00    +0.000 HD
DOCKED: ATOM     35  CM  UNL     1      40.575  18.113 123.704 +0.00 -0.00    +0.000 AC
DOCKED: ATOM     36  CM  UNL     1      40.797  16.524 122.294 +0.00 -0.00    +0.000 AC
DOCKED: ENDBRANCH  23  24
DOCKED: ENDBRANCH  22  23
DOCKED: ENDBRANCH   1  22
DOCKED: TORSDOF 11DOCKED: TER
DOCKED: ENDMDL
________________________________________________________________________________


	BEGINNING GENETIC ALGORITHM DOCKING 20 of 100
Run: 20 Seed: 1171641285 535123633 [ Run 20 of 100 GA/GALS ]
Beginning LAMARCKIAN GENETIC ALGORITHM (LGA), with a maximum of 2500000 energy evaluations.

Final-Value: -16.375


	FINAL GENETIC ALGORITHM DOCKED STATE
	_______________________________________________


Detailed state:  trans 37.513 14.431 121.401 quatxyzw -0.431522 0.151803 -0.837239 -0.299626 center 0.460 0.128 -0.007 ntor 11 18.0182 163.3729 129.0093 36.8261 19.6855 -153.5194 2.9711 104.8412 -177.2680 -149.5995 15.4342
State:	 37.513  14.431 121.401  -0.452  0.159 -0.878 -145.130     18.02  163.37  129.01   36.83   19.69 -153.52    2.97  104.84 -177.27 -149.60   15.43

DOCKED: MODEL       20
DOCKED: USER    Run = 20
DOCKED: USER    DPF = ligand_dock.biased.dpf
DOCKED: USER  
DOCKED: USER    Estimated Free Energy of Binding    =   -9.79 kcal/mol  [=(1)+(2)+(3)-(4)]
DOCKED: USER    Estimated Inhibition Constant, Ki   =   67.10 nM (nanomolar)  [Temperature = 298.15 K]
DOCKED: USER    
DOCKED: USER    (1) Final Intermolecular Energy     =  -13.07 kcal/mol
DOCKED: USER        vdW + Hbond + desolv Energy     =  -13.07 kcal/mol
DOCKED: USER        Electrostatic Energy            =   +0.00 kcal/mol
DOCKED: USER    (2) Final Total Internal Energy     =   -3.31 kcal/mol
DOCKED: USER    (3) Torsional Free Energy           =   +3.28 kcal/mol
DOCKED: USER    (4) Unbound System's Energy  [=(2)] =   -3.31 kcal/mol
DOCKED: USER    
DOCKED: USER    
DOCKED: USER    NEWDPF move ligand.dum.pdbqt
DOCKED: USER    NEWDPF about 0.460000 0.128000 -0.007000
DOCKED: USER    NEWDPF tran0 37.513462 14.431204 121.400911
DOCKED: USER    NEWDPF quaternion0 -0.431522 0.151803 -0.837239 -0.299626
DOCKED: USER    NEWDPF axisangle0 -0.452302 0.159113 -0.877557 -145.129735
DOCKED: USER    NEWDPF quat0 -0.452302 0.159113 -0.877557 -145.129735
DOCKED: USER    NEWDPF dihe0 18.02 163.37 129.01 36.83 19.69 -153.52 2.97 104.84 -177.27 -149.60 15.43 
DOCKED: USER  keepresnum = 1 
DOCKED: USER  
DOCKED: REMARK  Name = 
DOCKED: REMARK  11 active torsions:
DOCKED: REMARK  status: ('A' for Active; 'I' for Inactive)
DOCKED: REMARK    1  A    between atoms: C_2  and  C_5
DOCKED: REMARK    2  A    between atoms: N_3  and  O_4
DOCKED: REMARK    3  A    between atoms: C_6  and  C_7
DOCKED: REMARK    4  A    between atoms: C_10  and  C_11
DOCKED: REMARK    5  A    between atoms: C_11  and  N_12
DOCKED: REMARK    6  A    between atoms: N_12  and  C_13
DOCKED: REMARK    7  A    between atoms: N_12  and  C_16
DOCKED: REMARK    8  A    between atoms: C_13  and  C_14
DOCKED: REMARK    9  A    between atoms: C_14  and  O_15
DOCKED: REMARK   10  A    between atoms: C_16  and  C_17
DOCKED: REMARK   11  A    between atoms: C_17  and  C_18
DOCKED: REMARK                            x       y       z     vdW  Elec       q    Type
DOCKED: REMARK                         _______ _______ _______ _____ _____    ______ ____
DOCKED: USER                              x       y       z     vdW  Elec       q    Type
DOCKED: USER                           _______ _______ _______ _____ _____    ______ ____
DOCKED: ROOT
DOCKED: ATOM      1  N   UNL     1      37.464  15.987 121.444 -0.19 -0.00    +0.000 N 
DOCKED: ATOM      2  H   UNL     1      36.563  15.541 121.269 -0.01 -0.00    +0.000 HD
DOCKED: ENDROOT
DOCKED: BRANCH   1   3
DOCKED: ATOM      3  C   UNL     1      38.462  14.927 121.703 -0.36 -0.00    +0.000 C 
DOCKED: BRANCH   3   7
DOCKED: ATOM      4  C   UNL     1      36.493  11.222 122.764 -0.61 -0.00    +0.000 A 
DOCKED: ATOM      5  C   UNL     1      36.959  11.432 121.456 -0.47 -0.00    +0.000 A 
DOCKED: ATOM      6  C   UNL     1      37.588  12.630 121.106 -0.45 -0.00    +0.000 A 
DOCKED: ATOM      7  C   UNL     1      37.769  13.640 122.063 -0.42 -0.00    +0.000 A 
DOCKED: ATOM      8  C   UNL     1      37.324  13.428 123.376 -0.48 -0.00    +0.000 A 
DOCKED: ATOM      9  C   UNL     1      36.694  12.231 123.727 -0.60 -0.00    +0.000 A 
DOCKED: ATOM     10  CM  UNL     1      37.138  12.431 122.415 +0.00 -0.00    +0.000 AC
DOCKED: BRANCH   4  11
DOCKED: ATOM     11  C   UNL     1      36.350   8.734 122.744 -0.75 -0.00    +0.000 C 
DOCKED: ATOM     12  C   UNL     1      35.842   9.927 123.085 -0.67 -0.00    +0.000 C 
DOCKED: BRANCH  10  13
DOCKED: ATOM     13  O   UNL     1      36.283   6.381 122.751 -1.16 -0.00    +0.000 OA
DOCKED: ATOM     14  C   UNL     1      35.696   7.449 123.068 -0.76 -0.00    +0.000 C 
DOCKED: ATOM     15  N   UNL     1      34.437   7.380 123.752 -0.69 -0.00    +0.000 N 
DOCKED: ATOM     16  H   UNL     1      34.020   8.202 124.096 -0.17 -0.00    +0.000 HD
DOCKED: BRANCH  14  16
DOCKED: ATOM     17  O   UNL     1      33.823   6.186 123.927 -0.88 -0.00    +0.000 OA
DOCKED: ATOM     18  H   UNL     1      34.465   5.470 123.799 -0.55 -0.00    +0.000 HD
DOCKED: ENDBRANCH  14  16
DOCKED: ENDBRANCH  10  13
DOCKED: ENDBRANCH   4  11
DOCKED: ENDBRANCH   3   7
DOCKED: ENDBRANCH   1   3
DOCKED: BRANCH   1  18
DOCKED: ATOM     19  C   UNL     1      37.255  16.838 122.639 -0.23 -0.00    +0.000 C 
DOCKED: BRANCH  18  19
DOCKED: ATOM     20  C   UNL     1      35.768  16.968 123.010 -0.33 -0.00    +0.000 C 
DOCKED: BRANCH  19  20
DOCKED: ATOM     21  O   UNL     1      35.121  15.726 122.951 -0.41 -0.00    +0.000 OA
DOCKED: ATOM     22  H   UNL     1      35.002  15.380 123.849 -0.03 -0.00    +0.000 HD
DOCKED: ENDBRANCH  19  20
DOCKED: ENDBRANCH  18  19
DOCKED: ENDBRANCH   1  18
DOCKED: BRANCH   1  22
DOCKED: ATOM     23  C   UNL     1      37.759  16.738 120.199 -0.13 -0.00    +0.000 C 
DOCKED: BRANCH  22  23
DOCKED: ATOM     24  C   UNL     1      36.688  16.584 119.100 -0.15 -0.00    +0.000 C 
DOCKED: BRANCH  23  24
DOCKED: ATOM     25  C   UNL     1      36.925  15.329 118.317 -0.20 -0.00    +0.000 A 
DOCKED: ATOM     26  C   UNL     1      36.321  14.092 118.526 -0.30 -0.00    +0.000 A 
DOCKED: ATOM     27  N   UNL     1      36.834  13.168 117.682 -0.37 -0.00    +0.000 N 
DOCKED: ATOM     28  C   UNL     1      37.765  13.807 116.952 -0.34 -0.00    +0.000 A 
DOCKED: ATOM     29  C   UNL     1      37.854  15.126 117.315 -0.19 -0.00    +0.000 A 
DOCKED: ATOM     30  C   UNL     1      38.771  15.994 116.721 -0.13 -0.00    +0.000 A 
DOCKED: ATOM     31  C   UNL     1      39.607  15.473 115.715 -0.24 -0.00    +0.000 A 
DOCKED: ATOM     32  C   UNL     1      39.513  14.116 115.337 -0.36 -0.00    +0.000 A 
DOCKED: ATOM     33  C   UNL     1      38.582  13.264 115.961 -0.45 -0.00    +0.000 A 
DOCKED: ATOM     34  H   UNL     1      36.577  12.221 117.615 +0.02 -0.00    +0.000 HD
DOCKED: ATOM     35  CM  UNL     1      37.130  14.268 117.756 +0.00 -0.00    +0.000 AC
DOCKED: ATOM     36  CM  UNL     1      38.682  14.630 116.333 +0.00 -0.00    +0.000 AC
DOCKED: ENDBRANCH  23  24
DOCKED: ENDBRANCH  22  23
DOCKED: ENDBRANCH   1  22
DOCKED: TORSDOF 11DOCKED: TER
DOCKED: ENDMDL
________________________________________________________________________________


	BEGINNING GENETIC ALGORITHM DOCKING 21 of 100
Run: 21 Seed: 373415107 126242136 [ Run 21 of 100 GA/GALS ]
Beginning LAMARCKIAN GENETIC ALGORITHM (LGA), with a maximum of 2500000 energy evaluations.

Final-Value: -16.703


	FINAL GENETIC ALGORITHM DOCKED STATE
	_______________________________________________


Detailed state:  trans 37.522 17.615 122.629 quatxyzw 0.333022 0.092349 -0.509658 -0.787919 center 0.460 0.128 -0.007 ntor 11 26.5695 -113.3154 139.8112 -35.2765 -14.8997 119.9712 -119.1429 120.3977 52.4457 -147.6550 -56.2308
State:	 37.522  17.615 122.629   0.541  0.150 -0.828 -76.017     26.57 -113.32  139.81  -35.28  -14.90  119.97 -119.14  120.40   52.45 -147.65  -56.23

DOCKED: MODEL       21
DOCKED: USER    Run = 21
DOCKED: USER    DPF = ligand_dock.biased.dpf
DOCKED: USER  
DOCKED: USER    Estimated Free Energy of Binding    =  -11.21 kcal/mol  [=(1)+(2)+(3)-(4)]
DOCKED: USER    Estimated Inhibition Constant, Ki   =    6.07 nM (nanomolar)  [Temperature = 298.15 K]
DOCKED: USER    
DOCKED: USER    (1) Final Intermolecular Energy     =  -14.49 kcal/mol
DOCKED: USER        vdW + Hbond + desolv Energy     =  -14.49 kcal/mol
DOCKED: USER        Electrostatic Energy            =   +0.00 kcal/mol
DOCKED: USER    (2) Final Total Internal Energy     =   -2.21 kcal/mol
DOCKED: USER    (3) Torsional Free Energy           =   +3.28 kcal/mol
DOCKED: USER    (4) Unbound System's Energy  [=(2)] =   -2.21 kcal/mol
DOCKED: USER    
DOCKED: USER    
DOCKED: USER    NEWDPF move ligand.dum.pdbqt
DOCKED: USER    NEWDPF about 0.460000 0.128000 -0.007000
DOCKED: USER    NEWDPF tran0 37.522292 17.615204 122.629136
DOCKED: USER    NEWDPF quaternion0 0.333022 0.092349 -0.509658 -0.787919
DOCKED: USER    NEWDPF axisangle0 0.540815 0.149971 -0.827664 -76.016991
DOCKED: USER    NEWDPF quat0 0.540815 0.149971 -0.827664 -76.016991
DOCKED: USER    NEWDPF dihe0 26.57 -113.32 139.81 -35.28 -14.90 119.97 -119.14 120.40 52.45 -147.65 -56.23 
DOCKED: USER  keepresnum = 1 
DOCKED: USER  
DOCKED: REMARK  Name = 
DOCKED: REMARK  11 active torsions:
DOCKED: REMARK  status: ('A' for Active; 'I' for Inactive)
DOCKED: REMARK    1  A    between atoms: C_2  and  C_5
DOCKED: REMARK    2  A    between atoms: N_3  and  O_4
DOCKED: REMARK    3  A    between atoms: C_6  and  C_7
DOCKED: REMARK    4  A    between atoms: C_10  and  C_11
DOCKED: REMARK    5  A    between atoms: C_11  and  N_12
DOCKED: REMARK    6  A    between atoms: N_12  and  C_13
DOCKED: REMARK    7  A    between atoms: N_12  and  C_16
DOCKED: REMARK    8  A    between atoms: C_13  and  C_14
DOCKED: REMARK    9  A    between atoms: C_14  and  O_15
DOCKED: REMARK   10  A    between atoms: C_16  and  C_17
DOCKED: REMARK   11  A    between atoms: C_17  and  C_18
DOCKED: REMARK                            x       y       z     vdW  Elec       q    Type
DOCKED: REMARK                         _______ _______ _______ _____ _____    ______ ____
DOCKED: USER                              x       y       z     vdW  Elec       q    Type
DOCKED: USER                           _______ _______ _______ _____ _____    ______ ____
DOCKED: ROOT
DOCKED: ATOM      1  N   UNL     1      36.014  17.992 122.540 -0.20 -0.00    +0.000 N 
DOCKED: ATOM      2  H   UNL     1      36.531  18.108 121.667 +0.00 -0.00    +0.000 HD
DOCKED: ENDROOT
DOCKED: BRANCH   1   3
DOCKED: ATOM      3  C   UNL     1      36.923  17.386 123.537 -0.25 -0.00    +0.000 C 
DOCKED: BRANCH   3   7
DOCKED: ATOM      4  C   UNL     1      36.667  13.068 123.386 -0.55 -0.00    +0.000 A 
DOCKED: ATOM      5  C   UNL     1      37.740  13.741 122.778 -0.46 -0.00    +0.000 A 
DOCKED: ATOM      6  C   UNL     1      37.822  15.135 122.816 -0.35 -0.00    +0.000 A 
DOCKED: ATOM      7  C   UNL     1      36.834  15.884 123.472 -0.32 -0.00    +0.000 A 
DOCKED: ATOM      8  C   UNL     1      35.772  15.218 124.099 -0.42 -0.00    +0.000 A 
DOCKED: ATOM      9  C   UNL     1      35.688  13.823 124.061 -0.38 -0.00    +0.000 A 
DOCKED: ATOM     10  CM  UNL     1      36.754  14.479 123.436 +0.00 -0.00    +0.000 AC
DOCKED: BRANCH   4  11
DOCKED: ATOM     11  C   UNL     1      36.996  10.877 122.246 -0.57 -0.00    +0.000 C 
DOCKED: ATOM     12  C   UNL     1      36.634  11.585 123.325 -0.70 -0.00    +0.000 C 
DOCKED: BRANCH  10  13
DOCKED: ATOM     13  O   UNL     1      36.719   8.846 121.088 -2.62 -0.00    +0.000 OA
DOCKED: ATOM     14  C   UNL     1      36.961   9.400 122.193 -0.65 -0.00    +0.000 C 
DOCKED: ATOM     15  N   UNL     1      37.218   8.585 123.344 -0.64 -0.00    +0.000 N 
DOCKED: ATOM     16  H   UNL     1      37.509   9.003 124.186 -0.59 -0.00    +0.000 HD
DOCKED: BRANCH  14  16
DOCKED: ATOM     17  O   UNL     1      37.063   7.241 123.275 -2.03 -0.00    +0.000 OA
DOCKED: ATOM     18  H   UNL     1      37.192   6.949 122.359 -0.17 -0.00    +0.000 HD
DOCKED: ENDBRANCH  14  16
DOCKED: ENDBRANCH  10  13
DOCKED: ENDBRANCH   4  11
DOCKED: ENDBRANCH   3   7
DOCKED: ENDBRANCH   1   3
DOCKED: BRANCH   1  18
DOCKED: ATOM     19  C   UNL     1      34.888  17.086 122.210 -0.35 -0.00    +0.000 C 
DOCKED: BRANCH  18  19
DOCKED: ATOM     20  C   UNL     1      33.696  17.836 121.595 -0.37 -0.00    +0.000 C 
DOCKED: BRANCH  19  20
DOCKED: ATOM     21  O   UNL     1      34.088  18.570 120.466 -0.35 -0.00    +0.000 OA
DOCKED: ATOM     22  H   UNL     1      33.343  19.105 120.152 -0.03 -0.00    +0.000 HD
DOCKED: ENDBRANCH  19  20
DOCKED: ENDBRANCH  18  19
DOCKED: ENDBRANCH   1  18
DOCKED: BRANCH   1  22
DOCKED: ATOM     23  C   UNL     1      35.605  19.365 122.921 -0.15 -0.00    +0.000 C 
DOCKED: BRANCH  22  23
DOCKED: ATOM     24  C   UNL     1      35.905  19.728 124.390 -0.20 -0.00    +0.000 C 
DOCKED: BRANCH  23  24
DOCKED: ATOM     25  C   UNL     1      35.037  18.925 125.310 -0.23 -0.00    +0.000 A 
DOCKED: ATOM     26  C   UNL     1      33.788  18.385 125.015 -0.29 -0.00    +0.000 A 
DOCKED: ATOM     27  N   UNL     1      33.262  17.790 126.109 -0.34 -0.00    +0.000 N 
DOCKED: ATOM     28  C   UNL     1      34.159  17.962 127.095 -0.25 -0.00    +0.000 A 
DOCKED: ATOM     29  C   UNL     1      35.254  18.656 126.647 -0.18 -0.00    +0.000 A 
DOCKED: ATOM     30  C   UNL     1      36.313  18.986 127.493 -0.13 -0.00    +0.000 A 
DOCKED: ATOM     31  C   UNL     1      36.233  18.572 128.836 -0.11 -0.00    +0.000 A 
DOCKED: ATOM     32  C   UNL     1      35.108  17.853 129.297 -0.13 -0.00    +0.000 A 
DOCKED: ATOM     33  C   UNL     1      34.052  17.542 128.420 -0.22 -0.00    +0.000 A 
DOCKED: ATOM     34  H   UNL     1      32.396  17.325 126.171 -0.13 -0.00    +0.000 HD
DOCKED: ATOM     35  CM  UNL     1      34.267  18.326 126.038 -0.15 -0.00    +0.000 AC
DOCKED: ATOM     36  CM  UNL     1      35.187  18.261 127.965 +0.00 -0.00    +0.000 AC
DOCKED: ENDBRANCH  23  24
DOCKED: ENDBRANCH  22  23
DOCKED: ENDBRANCH   1  22
DOCKED: TORSDOF 11DOCKED: TER
DOCKED: ENDMDL
________________________________________________________________________________


	BEGINNING GENETIC ALGORITHM DOCKING 22 of 100
Run: 22 Seed: 857591741 2133817811 [ Run 22 of 100 GA/GALS ]
Beginning LAMARCKIAN GENETIC ALGORITHM (LGA), with a maximum of 2500000 energy evaluations.

Final-Value: -17.089


	FINAL GENETIC ALGORITHM DOCKED STATE
	_______________________________________________


Detailed state:  trans 36.063 17.768 122.829 quatxyzw 0.271096 0.088541 0.884445 -0.369357 center 0.460 0.128 -0.007 ntor 11 10.3678 36.6132 52.6063 86.6963 -14.1508 96.8876 -40.7847 34.5363 -169.7271 179.9475 136.0774
State:	 36.063  17.768 122.829   0.292  0.095  0.952 -136.648     10.37   36.61   52.61   86.70  -14.15   96.89  -40.78   34.54 -169.73  179.95  136.08

DOCKED: MODEL       22
DOCKED: USER    Run = 22
DOCKED: USER    DPF = ligand_dock.biased.dpf
DOCKED: USER  
DOCKED: USER    Estimated Free Energy of Binding    =  -11.04 kcal/mol  [=(1)+(2)+(3)-(4)]
DOCKED: USER    Estimated Inhibition Constant, Ki   =    8.08 nM (nanomolar)  [Temperature = 298.15 K]
DOCKED: USER    
DOCKED: USER    (1) Final Intermolecular Energy     =  -14.32 kcal/mol
DOCKED: USER        vdW + Hbond + desolv Energy     =  -14.32 kcal/mol
DOCKED: USER        Electrostatic Energy            =   +0.00 kcal/mol
DOCKED: USER    (2) Final Total Internal Energy     =   -2.77 kcal/mol
DOCKED: USER    (3) Torsional Free Energy           =   +3.28 kcal/mol
DOCKED: USER    (4) Unbound System's Energy  [=(2)] =   -2.77 kcal/mol
DOCKED: USER    
DOCKED: USER    
DOCKED: USER    NEWDPF move ligand.dum.pdbqt
DOCKED: USER    NEWDPF about 0.460000 0.128000 -0.007000
DOCKED: USER    NEWDPF tran0 36.063068 17.768015 122.828789
DOCKED: USER    NEWDPF quaternion0 0.271096 0.088541 0.884445 -0.369357
DOCKED: USER    NEWDPF axisangle0 0.291724 0.095278 0.951745 -136.648024
DOCKED: USER    NEWDPF quat0 0.291724 0.095278 0.951745 -136.648024
DOCKED: USER    NEWDPF dihe0 10.37 36.61 52.61 86.70 -14.15 96.89 -40.78 34.54 -169.73 179.95 136.08 
DOCKED: USER  keepresnum = 1 
DOCKED: USER  
DOCKED: REMARK  Name = 
DOCKED: REMARK  11 active torsions:
DOCKED: REMARK  status: ('A' for Active; 'I' for Inactive)
DOCKED: REMARK    1  A    between atoms: C_2  and  C_5
DOCKED: REMARK    2  A    between atoms: N_3  and  O_4
DOCKED: REMARK    3  A    between atoms: C_6  and  C_7
DOCKED: REMARK    4  A    between atoms: C_10  and  C_11
DOCKED: REMARK    5  A    between atoms: C_11  and  N_12
DOCKED: REMARK    6  A    between atoms: N_12  and  C_13
DOCKED: REMARK    7  A    between atoms: N_12  and  C_16
DOCKED: REMARK    8  A    between atoms: C_13  and  C_14
DOCKED: REMARK    9  A    between atoms: C_14  and  O_15
DOCKED: REMARK   10  A    between atoms: C_16  and  C_17
DOCKED: REMARK   11  A    between atoms: C_17  and  C_18
DOCKED: REMARK                            x       y       z     vdW  Elec       q    Type
DOCKED: REMARK                         _______ _______ _______ _____ _____    ______ ____
DOCKED: USER                              x       y       z     vdW  Elec       q    Type
DOCKED: USER                           _______ _______ _______ _____ _____    ______ ____
DOCKED: ROOT
DOCKED: ATOM      1  N   UNL     1      37.354  17.998 121.990 -0.11 -0.00    +0.000 N 
DOCKED: ATOM      2  H   UNL     1      36.503  18.367 121.564 +0.00 -0.00    +0.000 HD
DOCKED: ENDROOT
DOCKED: BRANCH   1   3
DOCKED: ATOM      3  C   UNL     1      37.011  17.475 123.330 -0.23 -0.00    +0.000 C 
DOCKED: BRANCH   3   7
DOCKED: ATOM      4  C   UNL     1      36.729  13.157 123.250 -0.54 -0.00    +0.000 A 
DOCKED: ATOM      5  C   UNL     1      37.971  13.794 123.087 -0.45 -0.00    +0.000 A 
DOCKED: ATOM      6  C   UNL     1      38.065  15.188 123.104 -0.32 -0.00    +0.000 A 
DOCKED: ATOM      7  C   UNL     1      36.918  15.973 123.291 -0.30 -0.00    +0.000 A 
DOCKED: ATOM      8  C   UNL     1      35.679  15.344 123.474 -0.43 -0.00    +0.000 A 
DOCKED: ATOM      9  C   UNL     1      35.582  13.949 123.457 -0.43 -0.00    +0.000 A 
DOCKED: ATOM     10  CM  UNL     1      36.824  14.568 123.277 +0.00 -0.00    +0.000 AC
DOCKED: BRANCH   4  11
DOCKED: ATOM     11  C   UNL     1      37.044  10.930 122.179 -0.56 -0.00    +0.000 C 
DOCKED: ATOM     12  C   UNL     1      36.685  11.674 123.235 -0.70 -0.00    +0.000 C 
DOCKED: BRANCH  10  13
DOCKED: ATOM     13  O   UNL     1      36.768   8.865 121.082 -2.63 -0.00    +0.000 OA
DOCKED: ATOM     14  C   UNL     1      36.998   9.452 122.171 -0.64 -0.00    +0.000 C 
DOCKED: ATOM     15  N   UNL     1      37.234   8.672 123.352 -0.62 -0.00    +0.000 N 
DOCKED: ATOM     16  H   UNL     1      37.515   9.115 124.184 -0.61 -0.00    +0.000 HD
DOCKED: BRANCH  14  16
DOCKED: ATOM     17  O   UNL     1      37.070   7.328 123.322 -2.11 -0.00    +0.000 OA
DOCKED: ATOM     18  H   UNL     1      36.953   7.037 122.404 -0.09 -0.00    +0.000 HD
DOCKED: ENDBRANCH  14  16
DOCKED: ENDBRANCH  10  13
DOCKED: ENDBRANCH   4  11
DOCKED: ENDBRANCH   3   7
DOCKED: ENDBRANCH   1   3
DOCKED: BRANCH   1  18
DOCKED: ATOM     19  C   UNL     1      38.280  19.153 122.079 -0.07 -0.00    +0.000 C 
DOCKED: BRANCH  18  19
DOCKED: ATOM     20  C   UNL     1      37.555  20.453 122.462 -0.10 -0.00    +0.000 C 
DOCKED: BRANCH  19  20
DOCKED: ATOM     21  O   UNL     1      36.245  20.469 121.962 -0.71 -0.00    +0.000 OA
DOCKED: ATOM     22  H   UNL     1      36.185  19.882 121.193 -0.01 -0.00    +0.000 HD
DOCKED: ENDBRANCH  19  20
DOCKED: ENDBRANCH  18  19
DOCKED: ENDBRANCH   1  18
DOCKED: BRANCH   1  22
DOCKED: ATOM     23  C   UNL     1      37.800  16.924 121.070 -0.14 -0.00    +0.000 C 
DOCKED: BRANCH  22  23
DOCKED: ATOM     24  C   UNL     1      36.979  16.826 119.769 -0.15 -0.00    +0.000 C 
DOCKED: BRANCH  23  24
DOCKED: ATOM     25  C   UNL     1      37.033  15.430 119.226 -0.19 -0.00    +0.000 A 
DOCKED: ATOM     26  C   UNL     1      36.746  14.257 119.919 -0.09 -0.00    +0.000 A 
DOCKED: ATOM     27  N   UNL     1      36.977  13.179 119.135 -0.42 -0.00    +0.000 N 
DOCKED: ATOM     28  C   UNL     1      37.419  13.660 117.961 -0.36 -0.00    +0.000 A 
DOCKED: ATOM     29  C   UNL     1      37.473  15.030 117.980 -0.21 -0.00    +0.000 A 
DOCKED: ATOM     30  C   UNL     1      37.929  15.765 116.884 -0.13 -0.00    +0.000 A 
DOCKED: ATOM     31  C   UNL     1      38.328  15.052 115.738 -0.22 -0.00    +0.000 A 
DOCKED: ATOM     32  C   UNL     1      38.268  13.641 115.716 -0.41 -0.00    +0.000 A 
DOCKED: ATOM     33  C   UNL     1      37.810  12.928 116.840 -0.30 -0.00    +0.000 A 
DOCKED: ATOM     34  H   UNL     1      36.846  12.234 119.377 -0.04 -0.00    +0.000 HD
DOCKED: ATOM     35  CM  UNL     1      37.125  14.275 118.853 +0.00 -0.00    +0.000 AC
DOCKED: ATOM     36  CM  UNL     1      37.871  14.346 116.853 +0.00 -0.00    +0.000 AC
DOCKED: ENDBRANCH  23  24
DOCKED: ENDBRANCH  22  23
DOCKED: ENDBRANCH   1  22
DOCKED: TORSDOF 11DOCKED: TER
DOCKED: ENDMDL
________________________________________________________________________________


	BEGINNING GENETIC ALGORITHM DOCKING 23 of 100
Run: 23 Seed: 40132040 587526917 [ Run 23 of 100 GA/GALS ]
Beginning LAMARCKIAN GENETIC ALGORITHM (LGA), with a maximum of 2500000 energy evaluations.

Final-Value: -15.701


	FINAL GENETIC ALGORITHM DOCKED STATE
	_______________________________________________


Detailed state:  trans 37.180 15.422 121.459 quatxyzw 0.092377 0.324115 0.886822 0.316169 center 0.460 0.128 -0.007 ntor 11 8.0198 18.4227 -161.5744 171.6239 85.8818 135.9760 180.0000 179.9002 -155.5698 164.5415 30.4892
State:	 37.180  15.422 121.459   0.097  0.342  0.935 143.137      8.02   18.42 -161.57  171.62   85.88  135.98  180.00  179.90 -155.57  164.54   30.49

DOCKED: MODEL       23
DOCKED: USER    Run = 23
DOCKED: USER    DPF = ligand_dock.biased.dpf
DOCKED: USER  
DOCKED: USER    Estimated Free Energy of Binding    =   -9.80 kcal/mol  [=(1)+(2)+(3)-(4)]
DOCKED: USER    Estimated Inhibition Constant, Ki   =   65.79 nM (nanomolar)  [Temperature = 298.15 K]
DOCKED: USER    
DOCKED: USER    (1) Final Intermolecular Energy     =  -13.08 kcal/mol
DOCKED: USER        vdW + Hbond + desolv Energy     =  -13.08 kcal/mol
DOCKED: USER        Electrostatic Energy            =   +0.00 kcal/mol
DOCKED: USER    (2) Final Total Internal Energy     =   -2.62 kcal/mol
DOCKED: USER    (3) Torsional Free Energy           =   +3.28 kcal/mol
DOCKED: USER    (4) Unbound System's Energy  [=(2)] =   -2.62 kcal/mol
DOCKED: USER    
DOCKED: USER    
DOCKED: USER    NEWDPF move ligand.dum.pdbqt
DOCKED: USER    NEWDPF about 0.460000 0.128000 -0.007000
DOCKED: USER    NEWDPF tran0 37.180120 15.421877 121.459148
DOCKED: USER    NEWDPF quaternion0 0.092377 0.324115 0.886822 0.316169
DOCKED: USER    NEWDPF axisangle0 0.097372 0.341640 0.934773 143.137206
DOCKED: USER    NEWDPF quat0 0.097372 0.341640 0.934773 143.137206
DOCKED: USER    NEWDPF dihe0 8.02 18.42 -161.57 171.62 85.88 135.98 180.00 179.90 -155.57 164.54 30.49 
DOCKED: USER  keepresnum = 1 
DOCKED: USER  
DOCKED: REMARK  Name = 
DOCKED: REMARK  11 active torsions:
DOCKED: REMARK  status: ('A' for Active; 'I' for Inactive)
DOCKED: REMARK    1  A    between atoms: C_2  and  C_5
DOCKED: REMARK    2  A    between atoms: N_3  and  O_4
DOCKED: REMARK    3  A    between atoms: C_6  and  C_7
DOCKED: REMARK    4  A    between atoms: C_10  and  C_11
DOCKED: REMARK    5  A    between atoms: C_11  and  N_12
DOCKED: REMARK    6  A    between atoms: N_12  and  C_13
DOCKED: REMARK    7  A    between atoms: N_12  and  C_16
DOCKED: REMARK    8  A    between atoms: C_13  and  C_14
DOCKED: REMARK    9  A    between atoms: C_14  and  O_15
DOCKED: REMARK   10  A    between atoms: C_16  and  C_17
DOCKED: REMARK   11  A    between atoms: C_17  and  C_18
DOCKED: REMARK                            x       y       z     vdW  Elec       q    Type
DOCKED: REMARK                         _______ _______ _______ _____ _____    ______ ____
DOCKED: USER                              x       y       z     vdW  Elec       q    Type
DOCKED: USER                           _______ _______ _______ _____ _____    ______ ____
DOCKED: ROOT
DOCKED: ATOM      1  N   UNL     1      37.140  16.619 120.464 -0.15 -0.00    +0.000 N 
DOCKED: ATOM      2  H   UNL     1      36.786  15.742 120.083 -0.01 -0.00    +0.000 HD
DOCKED: ENDROOT
DOCKED: BRANCH   1   3
DOCKED: ATOM      3  C   UNL     1      37.454  16.408 121.894 -0.22 -0.00    +0.000 C 
DOCKED: BRANCH   3   7
DOCKED: ATOM      4  C   UNL     1      36.371  12.399 123.113 -0.59 -0.00    +0.000 A 
DOCKED: ATOM      5  C   UNL     1      37.205  12.605 122.001 -0.48 -0.00    +0.000 A 
DOCKED: ATOM      6  C   UNL     1      37.550  13.898 121.599 -0.38 -0.00    +0.000 A 
DOCKED: ATOM      7  C   UNL     1      37.073  15.011 122.307 -0.32 -0.00    +0.000 A 
DOCKED: ATOM      8  C   UNL     1      36.257  14.811 123.429 -0.43 -0.00    +0.000 A 
DOCKED: ATOM      9  C   UNL     1      35.910  13.519 123.833 -0.51 -0.00    +0.000 A 
DOCKED: ATOM     10  CM  UNL     1      36.728  13.707 122.714 +0.00 -0.00    +0.000 AC
DOCKED: BRANCH   4  11
DOCKED: ATOM     11  C   UNL     1      36.099   9.963 122.662 -0.69 -0.00    +0.000 C 
DOCKED: ATOM     12  C   UNL     1      36.043  11.005 123.504 -0.65 -0.00    +0.000 C 
DOCKED: BRANCH  10  13
DOCKED: ATOM     13  O   UNL     1      36.704   7.733 123.114 -2.18 -0.00    +0.000 OA
DOCKED: ATOM     14  C   UNL     1      35.771   8.578 123.059 -0.71 -0.00    +0.000 C 
DOCKED: ATOM     15  N   UNL     1      34.440   8.175 123.409 -0.64 -0.00    +0.000 N 
DOCKED: ATOM     16  H   UNL     1      33.724   8.847 123.471 -0.54 -0.00    +0.000 HD
DOCKED: BRANCH  14  16
DOCKED: ATOM     17  O   UNL     1      34.167   6.871 123.656 -0.81 -0.00    +0.000 OA
DOCKED: ATOM     18  H   UNL     1      34.995   6.367 123.678 -0.04 -0.00    +0.000 HD
DOCKED: ENDBRANCH  14  16
DOCKED: ENDBRANCH  10  13
DOCKED: ENDBRANCH   4  11
DOCKED: ENDBRANCH   3   7
DOCKED: ENDBRANCH   1   3
DOCKED: BRANCH   1  18
DOCKED: ATOM     19  C   UNL     1      36.038  17.595 120.290 -0.18 -0.00    +0.000 C 
DOCKED: BRANCH  18  19
DOCKED: ATOM     20  C   UNL     1      35.623  18.250 121.618 -0.26 -0.00    +0.000 C 
DOCKED: BRANCH  19  20
DOCKED: ATOM     21  O   UNL     1      35.917  19.621 121.621 -0.70 -0.00    +0.000 OA
DOCKED: ATOM     22  H   UNL     1      36.793  19.765 121.230 -0.00 -0.00    +0.000 HD
DOCKED: ENDBRANCH  19  20
DOCKED: ENDBRANCH  18  19
DOCKED: ENDBRANCH   1  18
DOCKED: BRANCH   1  22
DOCKED: ATOM     23  C   UNL     1      38.353  16.915 119.665 -0.10 -0.00    +0.000 C 
DOCKED: BRANCH  22  23
DOCKED: ATOM     24  C   UNL     1      38.407  16.189 118.306 -0.13 -0.00    +0.000 C 
DOCKED: BRANCH  23  24
DOCKED: ATOM     25  C   UNL     1      37.298  15.186 118.209 -0.20 -0.00    +0.000 A 
DOCKED: ATOM     26  C   UNL     1      37.331  13.865 118.647 -0.34 -0.00    +0.000 A 
DOCKED: ATOM     27  N   UNL     1      36.180  13.233 118.325 -0.33 -0.00    +0.000 N 
DOCKED: ATOM     28  C   UNL     1      35.428  14.137 117.675 -0.29 -0.00    +0.000 A 
DOCKED: ATOM     29  C   UNL     1      36.079  15.340 117.579 -0.21 -0.00    +0.000 A 
DOCKED: ATOM     30  C   UNL     1      35.514  16.433 116.921 -0.12 -0.00    +0.000 A 
DOCKED: ATOM     31  C   UNL     1      34.234  16.269 116.359 -0.14 -0.00    +0.000 A 
DOCKED: ATOM     32  C   UNL     1      33.560  15.032 116.462 -0.24 -0.00    +0.000 A 
DOCKED: ATOM     33  C   UNL     1      34.161  13.946 117.126 -0.23 -0.00    +0.000 A 
DOCKED: ATOM     34  H   UNL     1      35.942  12.299 118.526 -0.26 -0.00    +0.000 HD
DOCKED: ATOM     35  CM  UNL     1      36.454  14.316 118.094 +0.00 -0.00    +0.000 AC
DOCKED: ATOM     36  CM  UNL     1      34.829  15.193 117.021 +0.00 -0.00    +0.000 AC
DOCKED: ENDBRANCH  23  24
DOCKED: ENDBRANCH  22  23
DOCKED: ENDBRANCH   1  22
DOCKED: TORSDOF 11DOCKED: TER
DOCKED: ENDMDL
________________________________________________________________________________


	BEGINNING GENETIC ALGORITHM DOCKING 24 of 100
Run: 24 Seed: 1502816578 250122619 [ Run 24 of 100 GA/GALS ]
Beginning LAMARCKIAN GENETIC ALGORITHM (LGA), with a maximum of 2500000 energy evaluations.

Final-Value: -16.654


	FINAL GENETIC ALGORITHM DOCKED STATE
	_______________________________________________


Detailed state:  trans 36.333 18.282 122.078 quatxyzw 0.549393 0.469206 -0.678020 0.135288 center 0.460 0.128 -0.007 ntor 11 24.1592 -180.0000 -1.4460 -98.9084 31.5917 -77.3475 164.8836 98.9885 177.3454 -174.5441 160.3006
State:	 36.333  18.282 122.078   0.554  0.474 -0.684 164.450     24.16 -180.00   -1.45  -98.91   31.59  -77.35  164.88   98.99  177.35 -174.54  160.30

DOCKED: MODEL       24
DOCKED: USER    Run = 24
DOCKED: USER    DPF = ligand_dock.biased.dpf
DOCKED: USER  
DOCKED: USER    Estimated Free Energy of Binding    =  -10.35 kcal/mol  [=(1)+(2)+(3)-(4)]
DOCKED: USER    Estimated Inhibition Constant, Ki   =   25.69 nM (nanomolar)  [Temperature = 298.15 K]
DOCKED: USER    
DOCKED: USER    (1) Final Intermolecular Energy     =  -13.64 kcal/mol
DOCKED: USER        vdW + Hbond + desolv Energy     =  -13.64 kcal/mol
DOCKED: USER        Electrostatic Energy            =   +0.00 kcal/mol
DOCKED: USER    (2) Final Total Internal Energy     =   -3.02 kcal/mol
DOCKED: USER    (3) Torsional Free Energy           =   +3.28 kcal/mol
DOCKED: USER    (4) Unbound System's Energy  [=(2)] =   -3.02 kcal/mol
DOCKED: USER    
DOCKED: USER    
DOCKED: USER    NEWDPF move ligand.dum.pdbqt
DOCKED: USER    NEWDPF about 0.460000 0.128000 -0.007000
DOCKED: USER    NEWDPF tran0 36.333408 18.282459 122.078000
DOCKED: USER    NEWDPF quaternion0 0.549393 0.469206 -0.678020 0.135288
DOCKED: USER    NEWDPF axisangle0 0.554491 0.473559 -0.684311 164.449504
DOCKED: USER    NEWDPF quat0 0.554491 0.473559 -0.684311 164.449504
DOCKED: USER    NEWDPF dihe0 24.16 -180.00 -1.45 -98.91 31.59 -77.35 164.88 98.99 177.35 -174.54 160.30 
DOCKED: USER  keepresnum = 1 
DOCKED: USER  
DOCKED: REMARK  Name = 
DOCKED: REMARK  11 active torsions:
DOCKED: REMARK  status: ('A' for Active; 'I' for Inactive)
DOCKED: REMARK    1  A    between atoms: C_2  and  C_5
DOCKED: REMARK    2  A    between atoms: N_3  and  O_4
DOCKED: REMARK    3  A    between atoms: C_6  and  C_7
DOCKED: REMARK    4  A    between atoms: C_10  and  C_11
DOCKED: REMARK    5  A    between atoms: C_11  and  N_12
DOCKED: REMARK    6  A    between atoms: N_12  and  C_13
DOCKED: REMARK    7  A    between atoms: N_12  and  C_16
DOCKED: REMARK    8  A    between atoms: C_13  and  C_14
DOCKED: REMARK    9  A    between atoms: C_14  and  O_15
DOCKED: REMARK   10  A    between atoms: C_16  and  C_17
DOCKED: REMARK   11  A    between atoms: C_17  and  C_18
DOCKED: REMARK                            x       y       z     vdW  Elec       q    Type
DOCKED: REMARK                         _______ _______ _______ _____ _____    ______ ____
DOCKED: USER                              x       y       z     vdW  Elec       q    Type
DOCKED: USER                           _______ _______ _______ _____ _____    ______ ____
DOCKED: ROOT
DOCKED: ATOM      1  N   UNL     1      36.264  18.285 123.633 -0.19 -0.00    +0.000 N 
DOCKED: ATOM      2  H   UNL     1      36.819  19.042 123.235 +0.00 -0.00    +0.000 HD
DOCKED: ENDROOT
DOCKED: BRANCH   1   3
DOCKED: ATOM      3  C   UNL     1      35.641  17.534 122.522 -0.29 -0.00    +0.000 C 
DOCKED: BRANCH   3   7
DOCKED: ATOM      4  C   UNL     1      36.551  13.315 122.837 -0.49 -0.00    +0.000 A 
DOCKED: ATOM      5  C   UNL     1      35.616  13.909 123.700 -0.46 -0.00    +0.000 A 
DOCKED: ATOM      6  C   UNL     1      35.326  15.273 123.608 -0.46 -0.00    +0.000 A 
DOCKED: ATOM      7  C   UNL     1      35.961  16.068 122.643 -0.29 -0.00    +0.000 A 
DOCKED: ATOM      8  C   UNL     1      36.880  15.478 121.764 -0.23 -0.00    +0.000 A 
DOCKED: ATOM      9  C   UNL     1      37.173  14.114 121.856 -0.35 -0.00    +0.000 A 
DOCKED: ATOM     10  CM  UNL     1      36.251  14.693 122.734 +0.00 -0.00    +0.000 AC
DOCKED: BRANCH   4  11
DOCKED: ATOM     11  C   UNL     1      36.679  10.985 121.964 -0.62 -0.00    +0.000 C 
DOCKED: ATOM     12  C   UNL     1      36.816  11.861 122.970 -0.67 -0.00    +0.000 C 
DOCKED: BRANCH  10  13
DOCKED: ATOM     13  O   UNL     1      37.064   8.846 121.059 -2.70 -0.00    +0.000 OA
DOCKED: ATOM     14  C   UNL     1      36.944   9.537 122.104 -0.64 -0.00    +0.000 C 
DOCKED: ATOM     15  N   UNL     1      37.097   8.906 123.383 -0.61 -0.00    +0.000 N 
DOCKED: ATOM     16  H   UNL     1      37.109   9.452 124.201 -0.58 -0.00    +0.000 HD
DOCKED: BRANCH  14  16
DOCKED: ATOM     17  O   UNL     1      37.226   7.560 123.466 -2.15 -0.00    +0.000 OA
DOCKED: ATOM     18  H   UNL     1      37.571   7.217 122.627 -0.27 -0.00    +0.000 HD
DOCKED: ENDBRANCH  14  16
DOCKED: ENDBRANCH  10  13
DOCKED: ENDBRANCH   4  11
DOCKED: ENDBRANCH   3   7
DOCKED: ENDBRANCH   1   3
DOCKED: BRANCH   1  18
DOCKED: ATOM     19  C   UNL     1      35.243  18.949 124.478 -0.26 -0.00    +0.000 C 
DOCKED: BRANCH  18  19
DOCKED: ATOM     20  C   UNL     1      34.877  18.115 125.716 -0.31 -0.00    +0.000 C 
DOCKED: BRANCH  19  20
DOCKED: ATOM     21  O   UNL     1      33.872  17.183 125.421 -0.48 -0.00    +0.000 OA
DOCKED: ATOM     22  H   UNL     1      34.206  16.286 125.576 -0.03 -0.00    +0.000 HD
DOCKED: ENDBRANCH  19  20
DOCKED: ENDBRANCH  18  19
DOCKED: ENDBRANCH   1  18
DOCKED: BRANCH   1  22
DOCKED: ATOM     23  C   UNL     1      37.239  17.458 124.385 -0.15 -0.00    +0.000 C 
DOCKED: BRANCH  22  23
DOCKED: ATOM     24  C   UNL     1      38.708  17.885 124.194 -0.23 -0.00    +0.000 C 
DOCKED: BRANCH  23  24
DOCKED: ATOM     25  C   UNL     1      39.309  17.169 123.023 -0.20 -0.00    +0.000 A 
DOCKED: ATOM     26  C   UNL     1      40.169  16.076 123.069 -0.21 -0.00    +0.000 A 
DOCKED: ATOM     27  N   UNL     1      40.574  15.742 121.823 -0.29 -0.00    +0.000 N 
DOCKED: ATOM     28  C   UNL     1      39.989  16.623 120.993 -0.14 -0.00    +0.000 A 
DOCKED: ATOM     29  C   UNL     1      39.214  17.514 121.689 -0.10 -0.00    +0.000 A 
DOCKED: ATOM     30  C   UNL     1      38.525  18.546 121.052 -0.04 -0.00    +0.000 A 
DOCKED: ATOM     31  C   UNL     1      38.640  18.643 119.652 -0.02 -0.00    +0.000 A 
DOCKED: ATOM     32  C   UNL     1      39.434  17.723 118.933 -0.04 -0.00    +0.000 A 
DOCKED: ATOM     33  C   UNL     1      40.123  16.697 119.607 -0.11 -0.00    +0.000 A 
DOCKED: ATOM     34  H   UNL     1      41.175  15.003 121.574 -0.01 -0.00    +0.000 HD
DOCKED: ATOM     35  CM  UNL     1      39.874  16.597 122.109 +0.00 -0.00    +0.000 AC
DOCKED: ATOM     36  CM  UNL     1      39.320  17.624 120.321 +0.00 -0.00    +0.000 AC
DOCKED: ENDBRANCH  23  24
DOCKED: ENDBRANCH  22  23
DOCKED: ENDBRANCH   1  22
DOCKED: TORSDOF 11DOCKED: TER
DOCKED: ENDMDL
________________________________________________________________________________


	BEGINNING GENETIC ALGORITHM DOCKING 25 of 100
Run: 25 Seed: 2083700824 998674949 [ Run 25 of 100 GA/GALS ]
Beginning LAMARCKIAN GENETIC ALGORITHM (LGA), with a maximum of 2500000 energy evaluations.

Final-Value: -16.569


	FINAL GENETIC ALGORITHM DOCKED STATE
	_______________________________________________


Detailed state:  trans 38.497 16.605 123.107 quatxyzw 0.608522 -0.432576 -0.660197 -0.081966 center 0.460 0.128 -0.007 ntor 11 6.6567 -164.9408 55.5049 66.0278 -179.3002 -88.7141 161.0356 -133.7812 178.9055 112.0110 24.6434
State:	 38.497  16.605 123.107   0.611 -0.434 -0.662 -170.597      6.66 -164.94   55.50   66.03 -179.30  -88.71  161.04 -133.78  178.91  112.01   24.64

DOCKED: MODEL       25
DOCKED: USER    Run = 25
DOCKED: USER    DPF = ligand_dock.biased.dpf
DOCKED: USER  
DOCKED: USER    Estimated Free Energy of Binding    =   -9.69 kcal/mol  [=(1)+(2)+(3)-(4)]
DOCKED: USER    Estimated Inhibition Constant, Ki   =   78.86 nM (nanomolar)  [Temperature = 298.15 K]
DOCKED: USER    
DOCKED: USER    (1) Final Intermolecular Energy     =  -12.97 kcal/mol
DOCKED: USER        vdW + Hbond + desolv Energy     =  -12.97 kcal/mol
DOCKED: USER        Electrostatic Energy            =   +0.00 kcal/mol
DOCKED: USER    (2) Final Total Internal Energy     =   -3.60 kcal/mol
DOCKED: USER    (3) Torsional Free Energy           =   +3.28 kcal/mol
DOCKED: USER    (4) Unbound System's Energy  [=(2)] =   -3.60 kcal/mol
DOCKED: USER    
DOCKED: USER    
DOCKED: USER    NEWDPF move ligand.dum.pdbqt
DOCKED: USER    NEWDPF about 0.460000 0.128000 -0.007000
DOCKED: USER    NEWDPF tran0 38.496957 16.605387 123.106591
DOCKED: USER    NEWDPF quaternion0 0.608522 -0.432576 -0.660197 -0.081966
DOCKED: USER    NEWDPF axisangle0 0.610577 -0.434036 -0.662426 -170.596862
DOCKED: USER    NEWDPF quat0 0.610577 -0.434036 -0.662426 -170.596862
DOCKED: USER    NEWDPF dihe0 6.66 -164.94 55.50 66.03 -179.30 -88.71 161.04 -133.78 178.91 112.01 24.64 
DOCKED: USER  keepresnum = 1 
DOCKED: USER  
DOCKED: REMARK  Name = 
DOCKED: REMARK  11 active torsions:
DOCKED: REMARK  status: ('A' for Active; 'I' for Inactive)
DOCKED: REMARK    1  A    between atoms: C_2  and  C_5
DOCKED: REMARK    2  A    between atoms: N_3  and  O_4
DOCKED: REMARK    3  A    between atoms: C_6  and  C_7
DOCKED: REMARK    4  A    between atoms: C_10  and  C_11
DOCKED: REMARK    5  A    between atoms: C_11  and  N_12
DOCKED: REMARK    6  A    between atoms: N_12  and  C_13
DOCKED: REMARK    7  A    between atoms: N_12  and  C_16
DOCKED: REMARK    8  A    between atoms: C_13  and  C_14
DOCKED: REMARK    9  A    between atoms: C_14  and  O_15
DOCKED: REMARK   10  A    between atoms: C_16  and  C_17
DOCKED: REMARK   11  A    between atoms: C_17  and  C_18
DOCKED: REMARK                            x       y       z     vdW  Elec       q    Type
DOCKED: REMARK                         _______ _______ _______ _____ _____    ______ ____
DOCKED: USER                              x       y       z     vdW  Elec       q    Type
DOCKED: USER                           _______ _______ _______ _____ _____    ______ ____
DOCKED: ROOT
DOCKED: ATOM      1  N   UNL     1      39.256  17.957 122.957 -0.14 -0.00    +0.000 N 
DOCKED: ATOM      2  H   UNL     1      39.803  17.135 122.699 +0.00 -0.00    +0.000 HD
DOCKED: ENDROOT
DOCKED: BRANCH   1   3
DOCKED: ATOM      3  C   UNL     1      37.880  17.515 123.274 -0.21 -0.00    +0.000 C 
DOCKED: BRANCH   3   7
DOCKED: ATOM      4  C   UNL     1      37.357  13.349 122.223 -0.45 -0.00    +0.000 A 
DOCKED: ATOM      5  C   UNL     1      38.594  13.985 122.025 -0.35 -0.00    +0.000 A 
DOCKED: ATOM      6  C   UNL     1      38.765  15.332 122.354 -0.32 -0.00    +0.000 A 
DOCKED: ATOM      7  C   UNL     1      37.702  16.068 122.897 -0.27 -0.00    +0.000 A 
DOCKED: ATOM      8  C   UNL     1      36.471  15.435 123.117 -0.36 -0.00    +0.000 A 
DOCKED: ATOM      9  C   UNL     1      36.297  14.087 122.787 -0.36 -0.00    +0.000 A 
DOCKED: ATOM     10  CM  UNL     1      37.531  14.710 122.568 +0.00 -0.00    +0.000 AC
DOCKED: BRANCH   4  11
DOCKED: ATOM     11  C   UNL     1      37.054  10.937 122.767 -0.61 -0.00    +0.000 C 
DOCKED: ATOM     12  C   UNL     1      37.232  11.914 121.866 -0.51 -0.00    +0.000 C 
DOCKED: BRANCH  10  13
DOCKED: ATOM     13  O   UNL     1      36.684   9.214 121.204 -2.62 -0.00    +0.000 OA
DOCKED: ATOM     14  C   UNL     1      36.929   9.509 122.404 -0.65 -0.00    +0.000 C 
DOCKED: ATOM     15  N   UNL     1      37.106   8.457 123.362 -0.69 -0.00    +0.000 N 
DOCKED: ATOM     16  H   UNL     1      37.399   8.670 124.276 -0.55 -0.00    +0.000 HD
DOCKED: BRANCH  14  16
DOCKED: ATOM     17  O   UNL     1      36.871   7.170 123.010 -1.90 -0.00    +0.000 OA
DOCKED: ATOM     18  H   UNL     1      36.694   7.123 122.057 -0.07 -0.00    +0.000 HD
DOCKED: ENDBRANCH  14  16
DOCKED: ENDBRANCH  10  13
DOCKED: ENDBRANCH   4  11
DOCKED: ENDBRANCH   3   7
DOCKED: ENDBRANCH   1   3
DOCKED: BRANCH   1  18
DOCKED: ATOM     19  C   UNL     1      39.281  18.836 121.764 -0.06 -0.00    +0.000 C 
DOCKED: BRANCH  18  19
DOCKED: ATOM     20  C   UNL     1      39.683  18.077 120.489 -0.05 -0.00    +0.000 C 
DOCKED: BRANCH  19  20
DOCKED: ATOM     21  O   UNL     1      40.525  16.996 120.787 -0.13 -0.00    +0.000 OA
DOCKED: ATOM     22  H   UNL     1      40.228  16.211 120.303 +0.00 -0.00    +0.000 HD
DOCKED: ENDBRANCH  19  20
DOCKED: ENDBRANCH  18  19
DOCKED: ENDBRANCH   1  18
DOCKED: BRANCH   1  22
DOCKED: ATOM     23  C   UNL     1      39.948  18.513 124.144 -0.21 -0.00    +0.000 C 
DOCKED: BRANCH  22  23
DOCKED: ATOM     24  C   UNL     1      41.122  17.651 124.652 -0.31 -0.00    +0.000 C 
DOCKED: BRANCH  23  24
DOCKED: ATOM     25  C   UNL     1      41.867  17.056 123.496 -0.33 -0.00    +0.000 A 
DOCKED: ATOM     26  C   UNL     1      41.833  15.727 123.081 -0.39 +0.00    +0.000 A 
DOCKED: ATOM     27  N   UNL     1      42.690  15.533 122.054 -0.40 -0.00    +0.000 N 
DOCKED: ATOM     28  C   UNL     1      43.275  16.721 121.827 -0.29 -0.00    +0.000 A 
DOCKED: ATOM     29  C   UNL     1      42.803  17.675 122.692 -0.26 -0.00    +0.000 A 
DOCKED: ATOM     30  C   UNL     1      43.279  18.986 122.673 -0.14 -0.00    +0.000 A 
DOCKED: ATOM     31  C   UNL     1      44.264  19.312 121.722 -0.09 -0.00    +0.000 A 
DOCKED: ATOM     32  C   UNL     1      44.747  18.333 120.828 -0.08 -0.00    +0.000 A 
DOCKED: ATOM     33  C   UNL     1      44.252  17.016 120.876 -0.18 -0.00    +0.000 A 
DOCKED: ATOM     34  H   UNL     1      42.853  14.691 121.571 -0.02 -0.00    +0.000 HD
DOCKED: ATOM     35  CM  UNL     1      42.500  16.510 122.611 +0.00 -0.00    +0.000 AC
DOCKED: ATOM     36  CM  UNL     1      43.770  18.007 121.769 +0.00 -0.00    +0.000 AC
DOCKED: ENDBRANCH  23  24
DOCKED: ENDBRANCH  22  23
DOCKED: ENDBRANCH   1  22
DOCKED: TORSDOF 11DOCKED: TER
DOCKED: ENDMDL
________________________________________________________________________________


	BEGINNING GENETIC ALGORITHM DOCKING 26 of 100
Run: 26 Seed: 763329314 1822229064 [ Run 26 of 100 GA/GALS ]
Beginning LAMARCKIAN GENETIC ALGORITHM (LGA), with a maximum of 2500000 energy evaluations.

Final-Value: -18.183


	FINAL GENETIC ALGORITHM DOCKED STATE
	_______________________________________________


Detailed state:  trans 35.968 16.853 124.184 quatxyzw 0.947311 0.024047 -0.194046 0.253712 center 0.460 0.128 -0.007 ntor 11 -0.4826 -22.1682 62.2057 29.4859 73.0166 -136.7892 165.0139 32.3036 -66.2419 -175.6379 71.1552
State:	 35.968  16.853 124.184   0.979  0.025 -0.201 150.605     -0.48  -22.17   62.21   29.49   73.02 -136.79  165.01   32.30  -66.24 -175.64   71.16

DOCKED: MODEL       26
DOCKED: USER    Run = 26
DOCKED: USER    DPF = ligand_dock.biased.dpf
DOCKED: USER  
DOCKED: USER    Estimated Free Energy of Binding    =  -12.12 kcal/mol  [=(1)+(2)+(3)-(4)]
DOCKED: USER    Estimated Inhibition Constant, Ki   =    1.30 nM (nanomolar)  [Temperature = 298.15 K]
DOCKED: USER    
DOCKED: USER    (1) Final Intermolecular Energy     =  -15.40 kcal/mol
DOCKED: USER        vdW + Hbond + desolv Energy     =  -15.40 kcal/mol
DOCKED: USER        Electrostatic Energy            =   +0.00 kcal/mol
DOCKED: USER    (2) Final Total Internal Energy     =   -2.78 kcal/mol
DOCKED: USER    (3) Torsional Free Energy           =   +3.28 kcal/mol
DOCKED: USER    (4) Unbound System's Energy  [=(2)] =   -2.78 kcal/mol
DOCKED: USER    
DOCKED: USER    
DOCKED: USER    NEWDPF move ligand.dum.pdbqt
DOCKED: USER    NEWDPF about 0.460000 0.128000 -0.007000
DOCKED: USER    NEWDPF tran0 35.967713 16.853387 124.184415
DOCKED: USER    NEWDPF quaternion0 0.947311 0.024047 -0.194046 0.253712
DOCKED: USER    NEWDPF axisangle0 0.979356 0.024860 -0.200610 150.605404
DOCKED: USER    NEWDPF quat0 0.979356 0.024860 -0.200610 150.605404
DOCKED: USER    NEWDPF dihe0 -0.48 -22.17 62.21 29.49 73.02 -136.79 165.01 32.30 -66.24 -175.64 71.16 
DOCKED: USER  keepresnum = 1 
DOCKED: USER  
DOCKED: REMARK  Name = 
DOCKED: REMARK  11 active torsions:
DOCKED: REMARK  status: ('A' for Active; 'I' for Inactive)
DOCKED: REMARK    1  A    between atoms: C_2  and  C_5
DOCKED: REMARK    2  A    between atoms: N_3  and  O_4
DOCKED: REMARK    3  A    between atoms: C_6  and  C_7
DOCKED: REMARK    4  A    between atoms: C_10  and  C_11
DOCKED: REMARK    5  A    between atoms: C_11  and  N_12
DOCKED: REMARK    6  A    between atoms: N_12  and  C_13
DOCKED: REMARK    7  A    between atoms: N_12  and  C_16
DOCKED: REMARK    8  A    between atoms: C_13  and  C_14
DOCKED: REMARK    9  A    between atoms: C_14  and  O_15
DOCKED: REMARK   10  A    between atoms: C_16  and  C_17
DOCKED: REMARK   11  A    between atoms: C_17  and  C_18
DOCKED: REMARK                            x       y       z     vdW  Elec       q    Type
DOCKED: REMARK                         _______ _______ _______ _____ _____    ______ ____
DOCKED: USER                              x       y       z     vdW  Elec       q    Type
DOCKED: USER                           _______ _______ _______ _____ _____    ______ ____
DOCKED: ROOT
DOCKED: ATOM      1  N   UNL     1      35.173  17.798 125.134 -0.29 -0.00    +0.000 N 
DOCKED: ATOM      2  H   UNL     1      36.018  17.399 125.545 -0.02 -0.00    +0.000 HD
DOCKED: ENDROOT
DOCKED: BRANCH   1   3
DOCKED: ATOM      3  C   UNL     1      35.111  17.384 123.715 -0.38 -0.00    +0.000 C 
DOCKED: BRANCH   3   7
DOCKED: ATOM      4  C   UNL     1      36.550  13.329 123.249 -0.53 -0.00    +0.000 A 
DOCKED: ATOM      5  C   UNL     1      35.297  13.579 123.833 -0.13 -0.00    +0.000 A 
DOCKED: ATOM      6  C   UNL     1      34.832  14.887 123.994 -0.49 -0.00    +0.000 A 
DOCKED: ATOM      7  C   UNL     1      35.610  15.972 123.565 -0.40 -0.00    +0.000 A 
DOCKED: ATOM      8  C   UNL     1      36.853  15.729 122.962 -0.32 -0.00    +0.000 A 
DOCKED: ATOM      9  C   UNL     1      37.320  14.422 122.802 -0.41 -0.00    +0.000 A 
DOCKED: ATOM     10  CM  UNL     1      36.077  14.653 123.401 +0.00 -0.00    +0.000 AC
DOCKED: BRANCH   4  11
DOCKED: ATOM     11  C   UNL     1      36.369  11.029 122.310 -0.66 -0.00    +0.000 C 
DOCKED: ATOM     12  C   UNL     1      36.992  11.921 123.092 -0.66 -0.00    +0.000 C 
DOCKED: BRANCH  10  13
DOCKED: ATOM     13  O   UNL     1      37.065   9.200 121.000 -2.74 -0.00    +0.000 OA
DOCKED: ATOM     14  C   UNL     1      36.815   9.628 122.158 -0.66 -0.00    +0.000 C 
DOCKED: ATOM     15  N   UNL     1      36.998   8.756 123.282 -0.66 -0.00    +0.000 N 
DOCKED: ATOM     16  H   UNL     1      36.905   9.108 124.196 -0.52 -0.00    +0.000 HD
DOCKED: BRANCH  14  16
DOCKED: ATOM     17  O   UNL     1      37.298   7.449 123.087 -2.08 -0.00    +0.000 OA
DOCKED: ATOM     18  H   UNL     1      37.343   7.267 122.136 -0.13 -0.00    +0.000 HD
DOCKED: ENDBRANCH  14  16
DOCKED: ENDBRANCH  10  13
DOCKED: ENDBRANCH   4  11
DOCKED: ENDBRANCH   3   7
DOCKED: ENDBRANCH   1   3
DOCKED: BRANCH   1  18
DOCKED: ATOM     19  C   UNL     1      35.330  19.266 125.264 -0.23 -0.00    +0.000 C 
DOCKED: BRANCH  18  19
DOCKED: ATOM     20  C   UNL     1      36.387  19.649 126.313 -0.14 -0.00    +0.000 C 
DOCKED: BRANCH  19  20
DOCKED: ATOM     21  O   UNL     1      36.588  18.610 127.233 -0.19 -0.00    +0.000 OA
DOCKED: ATOM     22  H   UNL     1      35.908  18.651 127.922 -0.01 -0.00    +0.000 HD
DOCKED: ENDBRANCH  19  20
DOCKED: ENDBRANCH  18  19
DOCKED: ENDBRANCH   1  18
DOCKED: BRANCH   1  22
DOCKED: ATOM     23  C   UNL     1      34.061  17.226 125.930 -0.42 -0.00    +0.000 C 
DOCKED: BRANCH  22  23
DOCKED: ATOM     24  C   UNL     1      33.348  18.246 126.841 -0.32 -0.00    +0.000 C 
DOCKED: BRANCH  23  24
DOCKED: ATOM     25  C   UNL     1      32.681  17.543 127.984 -0.30 -0.00    +0.000 A 
DOCKED: ATOM     26  C   UNL     1      31.323  17.256 128.105 -0.27 -0.00    +0.000 A 
DOCKED: ATOM     27  N   UNL     1      31.068  16.684 129.304 -0.46 -0.00    +0.000 N 
DOCKED: ATOM     28  C   UNL     1      32.247  16.621 129.945 -0.29 -0.00    +0.000 A 
DOCKED: ATOM     29  C   UNL     1      33.255  17.141 129.174 -0.26 -0.00    +0.000 A 
DOCKED: ATOM     30  C   UNL     1      34.571  17.214 129.632 -0.18 -0.00    +0.000 A 
DOCKED: ATOM     31  C   UNL     1      34.843  16.722 130.922 -0.19 -0.00    +0.000 A 
DOCKED: ATOM     32  C   UNL     1      33.807  16.181 131.716 -0.23 -0.00    +0.000 A 
DOCKED: ATOM     33  C   UNL     1      32.488  16.128 131.227 -0.21 -0.00    +0.000 A 
DOCKED: ATOM     34  H   UNL     1      30.195  16.377 129.638 -0.61 -0.00    +0.000 HD
DOCKED: ATOM     35  CM  UNL     1      32.081  17.038 128.915 +0.00 -0.00    +0.000 AC
DOCKED: ATOM     36  CM  UNL     1      33.535  16.667 130.436 +0.00 -0.00    +0.000 AC
DOCKED: ENDBRANCH  23  24
DOCKED: ENDBRANCH  22  23
DOCKED: ENDBRANCH   1  22
DOCKED: TORSDOF 11DOCKED: TER
DOCKED: ENDMDL
________________________________________________________________________________


	BEGINNING GENETIC ALGORITHM DOCKING 27 of 100
Run: 27 Seed: 2121667313 1314682467 [ Run 27 of 100 GA/GALS ]
Beginning LAMARCKIAN GENETIC ALGORITHM (LGA), with a maximum of 2500000 energy evaluations.

Final-Value: -16.446


	FINAL GENETIC ALGORITHM DOCKED STATE
	_______________________________________________


Detailed state:  trans 36.958 15.947 122.001 quatxyzw 0.689875 -0.693126 0.177024 -0.110951 center 0.460 0.128 -0.007 ntor 11 -3.7328 34.4073 -155.7313 59.1340 148.6337 74.9116 -126.1088 133.0783 177.9287 0.3361 -10.0730
State:	 36.958  15.947 122.001   0.694 -0.697  0.178 -167.260     -3.73   34.41 -155.73   59.13  148.63   74.91 -126.11  133.08  177.93    0.34  -10.07

DOCKED: MODEL       27
DOCKED: USER    Run = 27
DOCKED: USER    DPF = ligand_dock.biased.dpf
DOCKED: USER  
DOCKED: USER    Estimated Free Energy of Binding    =  -10.42 kcal/mol  [=(1)+(2)+(3)-(4)]
DOCKED: USER    Estimated Inhibition Constant, Ki   =   22.88 nM (nanomolar)  [Temperature = 298.15 K]
DOCKED: USER    
DOCKED: USER    (1) Final Intermolecular Energy     =  -13.70 kcal/mol
DOCKED: USER        vdW + Hbond + desolv Energy     =  -13.70 kcal/mol
DOCKED: USER        Electrostatic Energy            =   +0.00 kcal/mol
DOCKED: USER    (2) Final Total Internal Energy     =   -2.74 kcal/mol
DOCKED: USER    (3) Torsional Free Energy           =   +3.28 kcal/mol
DOCKED: USER    (4) Unbound System's Energy  [=(2)] =   -2.74 kcal/mol
DOCKED: USER    
DOCKED: USER    
DOCKED: USER    NEWDPF move ligand.dum.pdbqt
DOCKED: USER    NEWDPF about 0.460000 0.128000 -0.007000
DOCKED: USER    NEWDPF tran0 36.957595 15.947094 122.001045
DOCKED: USER    NEWDPF quaternion0 0.689875 -0.693126 0.177024 -0.110951
DOCKED: USER    NEWDPF axisangle0 0.694161 -0.697432 0.178124 -167.259734
DOCKED: USER    NEWDPF quat0 0.694161 -0.697432 0.178124 -167.259734
DOCKED: USER    NEWDPF dihe0 -3.73 34.41 -155.73 59.13 148.63 74.91 -126.11 133.08 177.93 0.34 -10.07 
DOCKED: USER  keepresnum = 1 
DOCKED: USER  
DOCKED: REMARK  Name = 
DOCKED: REMARK  11 active torsions:
DOCKED: REMARK  status: ('A' for Active; 'I' for Inactive)
DOCKED: REMARK    1  A    between atoms: C_2  and  C_5
DOCKED: REMARK    2  A    between atoms: N_3  and  O_4
DOCKED: REMARK    3  A    between atoms: C_6  and  C_7
DOCKED: REMARK    4  A    between atoms: C_10  and  C_11
DOCKED: REMARK    5  A    between atoms: C_11  and  N_12
DOCKED: REMARK    6  A    between atoms: N_12  and  C_13
DOCKED: REMARK    7  A    between atoms: N_12  and  C_16
DOCKED: REMARK    8  A    between atoms: C_13  and  C_14
DOCKED: REMARK    9  A    between atoms: C_14  and  O_15
DOCKED: REMARK   10  A    between atoms: C_16  and  C_17
DOCKED: REMARK   11  A    between atoms: C_17  and  C_18
DOCKED: REMARK                            x       y       z     vdW  Elec       q    Type
DOCKED: REMARK                         _______ _______ _______ _____ _____    ______ ____
DOCKED: USER                              x       y       z     vdW  Elec       q    Type
DOCKED: USER                           _______ _______ _______ _____ _____    ______ ____
DOCKED: ROOT
DOCKED: ATOM      1  N   UNL     1      38.218  16.826 121.752 -0.14 -0.00    +0.000 N 
DOCKED: ATOM      2  H   UNL     1      38.029  16.630 122.735 +0.00 -0.00    +0.000 HD
DOCKED: ENDROOT
DOCKED: BRANCH   1   3
DOCKED: ATOM      3  C   UNL     1      37.242  16.074 120.934 -0.21 -0.00    +0.000 C 
DOCKED: BRANCH   3   7
DOCKED: ATOM      4  C   UNL     1      36.834  12.054 122.485 -0.55 -0.00    +0.000 A 
DOCKED: ATOM      5  C   UNL     1      37.449  12.280 121.242 -0.46 -0.00    +0.000 A 
DOCKED: ATOM      6  C   UNL     1      37.576  13.576 120.734 -0.38 -0.00    +0.000 A 
DOCKED: ATOM      7  C   UNL     1      37.094  14.672 121.463 -0.27 -0.00    +0.000 A 
DOCKED: ATOM      8  C   UNL     1      36.498  14.456 122.713 -0.37 -0.00    +0.000 A 
DOCKED: ATOM      9  C   UNL     1      36.369  13.161 123.224 -0.54 -0.00    +0.000 A 
DOCKED: ATOM     10  CM  UNL     1      36.970  13.367 121.977 +0.00 -0.00    +0.000 AC
DOCKED: BRANCH   4  11
DOCKED: ATOM     11  C   UNL     1      35.756   9.813 122.634 -0.68 -0.00    +0.000 C 
DOCKED: ATOM     12  C   UNL     1      36.735  10.660 122.984 -0.68 -0.00    +0.000 C 
DOCKED: BRANCH  10  13
DOCKED: ATOM     13  O   UNL     1      36.695   7.703 123.096 -2.18 -0.00    +0.000 OA
DOCKED: ATOM     14  C   UNL     1      35.664   8.425 123.135 -0.68 -0.00    +0.000 C 
DOCKED: ATOM     15  N   UNL     1      34.454   7.888 123.686 -0.63 -0.00    +0.000 N 
DOCKED: ATOM     16  H   UNL     1      33.673   8.472 123.817 -0.37 -0.00    +0.000 HD
DOCKED: BRANCH  14  16
DOCKED: ATOM     17  O   UNL     1      34.384   6.579 124.027 -0.81 -0.00    +0.000 OA
DOCKED: ATOM     18  H   UNL     1      35.212   6.137 123.781 -0.05 -0.00    +0.000 HD
DOCKED: ENDBRANCH  14  16
DOCKED: ENDBRANCH  10  13
DOCKED: ENDBRANCH   4  11
DOCKED: ENDBRANCH   3   7
DOCKED: ENDBRANCH   1   3
DOCKED: BRANCH   1  18
DOCKED: ATOM     19  C   UNL     1      39.603  16.351 121.517 -0.21 -0.00    +0.000 C 
DOCKED: BRANCH  18  19
DOCKED: ATOM     20  C   UNL     1      40.138  15.512 122.689 -0.38 -0.00    +0.000 C 
DOCKED: BRANCH  19  20
DOCKED: ATOM     21  O   UNL     1      40.472  14.215 122.273 -1.05 +0.00    +0.000 OA
DOCKED: ATOM     22  H   UNL     1      39.942  13.977 121.498 -0.04 -0.00    +0.000 HD
DOCKED: ENDBRANCH  19  20
DOCKED: ENDBRANCH  18  19
DOCKED: ENDBRANCH   1  18
DOCKED: BRANCH   1  22
DOCKED: ATOM     23  C   UNL     1      38.042  18.293 121.620 -0.09 -0.00    +0.000 C 
DOCKED: BRANCH  22  23
DOCKED: ATOM     24  C   UNL     1      37.512  18.982 122.893 -0.12 -0.00    +0.000 C 
DOCKED: BRANCH  23  24
DOCKED: ATOM     25  C   UNL     1      36.229  18.345 123.332 -0.19 -0.00    +0.000 A 
DOCKED: ATOM     26  C   UNL     1      35.248  17.797 122.509 -0.29 -0.00    +0.000 A 
DOCKED: ATOM     27  N   UNL     1      34.192  17.383 123.245 -0.40 -0.00    +0.000 N 
DOCKED: ATOM     28  C   UNL     1      34.490  17.678 124.522 -0.36 -0.00    +0.000 A 
DOCKED: ATOM     29  C   UNL     1      35.722  18.272 124.615 -0.23 -0.00    +0.000 A 
DOCKED: ATOM     30  C   UNL     1      36.245  18.698 125.837 -0.17 -0.00    +0.000 A 
DOCKED: ATOM     31  C   UNL     1      35.466  18.489 126.990 -0.12 -0.00    +0.000 A 
DOCKED: ATOM     32  C   UNL     1      34.199  17.873 126.897 -0.26 -0.00    +0.000 A 
DOCKED: ATOM     33  C   UNL     1      33.697  17.461 125.648 -0.34 -0.00    +0.000 A 
DOCKED: ATOM     34  H   UNL     1      33.372  16.953 122.913 -0.02 -0.00    +0.000 HD
DOCKED: ATOM     35  CM  UNL     1      35.145  17.879 123.632 -0.12 -0.00    +0.000 AC
DOCKED: ATOM     36  CM  UNL     1      34.970  18.078 125.752 -0.31 -0.00    +0.000 AC
DOCKED: ENDBRANCH  23  24
DOCKED: ENDBRANCH  22  23
DOCKED: ENDBRANCH   1  22
DOCKED: TORSDOF 11DOCKED: TER
DOCKED: ENDMDL
________________________________________________________________________________


	BEGINNING GENETIC ALGORITHM DOCKING 28 of 100
Run: 28 Seed: 2071288584 2115909018 [ Run 28 of 100 GA/GALS ]
Beginning LAMARCKIAN GENETIC ALGORITHM (LGA), with a maximum of 2500000 energy evaluations.

Final-Value: -16.687


	FINAL GENETIC ALGORITHM DOCKED STATE
	_______________________________________________


Detailed state:  trans 37.085 18.533 122.255 quatxyzw -0.769577 -0.355509 -0.272120 0.455319 center 0.460 0.128 -0.007 ntor 11 13.9802 140.6030 2.6044 -68.4272 2.4749 170.7128 171.4423 108.4296 179.1615 -178.4316 165.9993
State:	 37.085  18.533 122.255  -0.864 -0.399 -0.306 125.829     13.98  140.60    2.60  -68.43    2.47  170.71  171.44  108.43  179.16 -178.43  166.00

DOCKED: MODEL       28
DOCKED: USER    Run = 28
DOCKED: USER    DPF = ligand_dock.biased.dpf
DOCKED: USER  
DOCKED: USER    Estimated Free Energy of Binding    =  -10.39 kcal/mol  [=(1)+(2)+(3)-(4)]
DOCKED: USER    Estimated Inhibition Constant, Ki   =   24.24 nM (nanomolar)  [Temperature = 298.15 K]
DOCKED: USER    
DOCKED: USER    (1) Final Intermolecular Energy     =  -13.67 kcal/mol
DOCKED: USER        vdW + Hbond + desolv Energy     =  -13.67 kcal/mol
DOCKED: USER        Electrostatic Energy            =   +0.00 kcal/mol
DOCKED: USER    (2) Final Total Internal Energy     =   -3.02 kcal/mol
DOCKED: USER    (3) Torsional Free Energy           =   +3.28 kcal/mol
DOCKED: USER    (4) Unbound System's Energy  [=(2)] =   -3.02 kcal/mol
DOCKED: USER    
DOCKED: USER    
DOCKED: USER    NEWDPF move ligand.dum.pdbqt
DOCKED: USER    NEWDPF about 0.460000 0.128000 -0.007000
DOCKED: USER    NEWDPF tran0 37.084764 18.533463 122.255211
DOCKED: USER    NEWDPF quaternion0 -0.769577 -0.355509 -0.272120 0.455319
DOCKED: USER    NEWDPF axisangle0 -0.864374 -0.399301 -0.305640 125.829023
DOCKED: USER    NEWDPF quat0 -0.864374 -0.399301 -0.305640 125.829023
DOCKED: USER    NEWDPF dihe0 13.98 140.60 2.60 -68.43 2.47 170.71 171.44 108.43 179.16 -178.43 166.00 
DOCKED: USER  keepresnum = 1 
DOCKED: USER  
DOCKED: REMARK  Name = 
DOCKED: REMARK  11 active torsions:
DOCKED: REMARK  status: ('A' for Active; 'I' for Inactive)
DOCKED: REMARK    1  A    between atoms: C_2  and  C_5
DOCKED: REMARK    2  A    between atoms: N_3  and  O_4
DOCKED: REMARK    3  A    between atoms: C_6  and  C_7
DOCKED: REMARK    4  A    between atoms: C_10  and  C_11
DOCKED: REMARK    5  A    between atoms: C_11  and  N_12
DOCKED: REMARK    6  A    between atoms: N_12  and  C_13
DOCKED: REMARK    7  A    between atoms: N_12  and  C_16
DOCKED: REMARK    8  A    between atoms: C_13  and  C_14
DOCKED: REMARK    9  A    between atoms: C_14  and  O_15
DOCKED: REMARK   10  A    between atoms: C_16  and  C_17
DOCKED: REMARK   11  A    between atoms: C_17  and  C_18
DOCKED: REMARK                            x       y       z     vdW  Elec       q    Type
DOCKED: REMARK                         _______ _______ _______ _____ _____    ______ ____
DOCKED: USER                              x       y       z     vdW  Elec       q    Type
DOCKED: USER                           _______ _______ _______ _____ _____    ______ ____
DOCKED: ROOT
DOCKED: ATOM      1  N   UNL     1      36.145  18.209 121.057 -0.17 -0.00    +0.000 N 
DOCKED: ATOM      2  H   UNL     1      35.900  19.057 121.567 -0.01 -0.00    +0.000 HD
DOCKED: ENDROOT
DOCKED: BRANCH   1   3
DOCKED: ATOM      3  C   UNL     1      37.405  17.679 121.621 -0.13 -0.00    +0.000 C 
DOCKED: BRANCH   3   7
DOCKED: ATOM      4  C   UNL     1      37.057  13.435 122.395 -0.46 -0.00    +0.000 A 
DOCKED: ATOM      5  C   UNL     1      37.111  13.917 121.077 -0.31 -0.00    +0.000 A 
DOCKED: ATOM      6  C   UNL     1      37.214  15.287 120.822 -0.21 -0.00    +0.000 A 
DOCKED: ATOM      7  C   UNL     1      37.274  16.202 121.884 -0.20 -0.00    +0.000 A 
DOCKED: ATOM      8  C   UNL     1      37.242  15.726 123.202 -0.31 -0.00    +0.000 A 
DOCKED: ATOM      9  C   UNL     1      37.137  14.355 123.459 -0.41 -0.00    +0.000 A 
DOCKED: ATOM     10  CM  UNL     1      37.173  14.821 122.140 +0.00 -0.00    +0.000 AC
DOCKED: BRANCH   4  11
DOCKED: ATOM     11  C   UNL     1      37.140  11.061 121.642 -0.44 -0.00    +0.000 C 
DOCKED: ATOM     12  C   UNL     1      36.957  11.969 122.611 -0.63 -0.00    +0.000 C 
DOCKED: BRANCH  10  13
DOCKED: ATOM     13  O   UNL     1      36.955   8.848 120.860 -2.69 -0.00    +0.000 OA
DOCKED: ATOM     14  C   UNL     1      37.040   9.603 121.864 -0.60 -0.00    +0.000 C 
DOCKED: ATOM     15  N   UNL     1      37.065   9.024 123.176 -0.65 -0.00    +0.000 N 
DOCKED: ATOM     16  H   UNL     1      37.235   9.594 123.960 -0.51 -0.00    +0.000 HD
DOCKED: BRANCH  14  16
DOCKED: ATOM     17  O   UNL     1      36.857   7.696 123.337 -2.21 -0.00    +0.000 OA
DOCKED: ATOM     18  H   UNL     1      36.926   7.252 122.478 -0.07 -0.00    +0.000 HD
DOCKED: ENDBRANCH  14  16
DOCKED: ENDBRANCH  10  13
DOCKED: ENDBRANCH   4  11
DOCKED: ENDBRANCH   3   7
DOCKED: ENDBRANCH   1   3
DOCKED: BRANCH   1  18
DOCKED: ATOM     19  C   UNL     1      36.320  18.636 119.648 -0.13 -0.00    +0.000 C 
DOCKED: BRANCH  18  19
DOCKED: ATOM     20  C   UNL     1      35.290  17.986 118.710 -0.16 -0.00    +0.000 C 
DOCKED: BRANCH  19  20
DOCKED: ATOM     21  O   UNL     1      35.684  16.690 118.344 -0.17 -0.00    +0.000 OA
DOCKED: ATOM     22  H   UNL     1      35.472  16.073 119.061 -0.01 -0.00    +0.000 HD
DOCKED: ENDBRANCH  19  20
DOCKED: ENDBRANCH  18  19
DOCKED: ENDBRANCH   1  18
DOCKED: BRANCH   1  22
DOCKED: ATOM     23  C   UNL     1      35.004  17.290 121.283 -0.22 -0.00    +0.000 C 
DOCKED: BRANCH  22  23
DOCKED: ATOM     24  C   UNL     1      33.939  17.833 122.256 -0.34 -0.00    +0.000 C 
DOCKED: BRANCH  23  24
DOCKED: ATOM     25  C   UNL     1      34.386  17.643 123.674 -0.36 -0.00    +0.000 A 
DOCKED: ATOM     26  C   UNL     1      34.049  16.587 124.517 -0.40 -0.00    +0.000 A 
DOCKED: ATOM     27  N   UNL     1      34.569  16.785 125.750 -0.34 -0.00    +0.000 N 
DOCKED: ATOM     28  C   UNL     1      35.218  17.961 125.696 -0.24 -0.00    +0.000 A 
DOCKED: ATOM     29  C   UNL     1      35.123  18.518 124.447 -0.26 -0.00    +0.000 A 
DOCKED: ATOM     30  C   UNL     1      35.692  19.756 124.147 -0.16 -0.00    +0.000 A 
DOCKED: ATOM     31  C   UNL     1      36.386  20.423 125.174 -0.11 -0.00    +0.000 A 
DOCKED: ATOM     32  C   UNL     1      36.489  19.848 126.460 -0.11 -0.00    +0.000 A 
DOCKED: ATOM     33  C   UNL     1      35.897  18.600 126.732 -0.13 -0.00    +0.000 A 
DOCKED: ATOM     34  H   UNL     1      34.489  16.188 126.528 -0.02 -0.00    +0.000 HD
DOCKED: ATOM     35  CM  UNL     1      34.666  17.476 124.847 -0.42 -0.00    +0.000 AC
DOCKED: ATOM     36  CM  UNL     1      35.801  19.184 125.443 -0.06 -0.00    +0.000 AC
DOCKED: ENDBRANCH  23  24
DOCKED: ENDBRANCH  22  23
DOCKED: ENDBRANCH   1  22
DOCKED: TORSDOF 11DOCKED: TER
DOCKED: ENDMDL
________________________________________________________________________________


	BEGINNING GENETIC ALGORITHM DOCKING 29 of 100
Run: 29 Seed: 1123639840 41073039 [ Run 29 of 100 GA/GALS ]
Beginning LAMARCKIAN GENETIC ALGORITHM (LGA), with a maximum of 2500000 energy evaluations.

Final-Value: -17.278


	FINAL GENETIC ALGORITHM DOCKED STATE
	_______________________________________________


Detailed state:  trans 36.591 16.502 123.415 quatxyzw -0.303134 0.152249 0.876827 0.340742 center 0.460 0.128 -0.007 ntor 11 24.5917 -20.8854 112.0510 59.7753 -175.9031 104.1889 179.7895 66.1868 -161.8352 -26.2714 33.2861
State:	 36.591  16.502 123.415  -0.322  0.162  0.933 140.156     24.59  -20.89  112.05   59.78 -175.90  104.19  179.79   66.19 -161.84  -26.27   33.29

DOCKED: MODEL       29
DOCKED: USER    Run = 29
DOCKED: USER    DPF = ligand_dock.biased.dpf
DOCKED: USER  
DOCKED: USER    Estimated Free Energy of Binding    =  -10.95 kcal/mol  [=(1)+(2)+(3)-(4)]
DOCKED: USER    Estimated Inhibition Constant, Ki   =    9.33 nM (nanomolar)  [Temperature = 298.15 K]
DOCKED: USER    
DOCKED: USER    (1) Final Intermolecular Energy     =  -14.24 kcal/mol
DOCKED: USER        vdW + Hbond + desolv Energy     =  -14.24 kcal/mol
DOCKED: USER        Electrostatic Energy            =   +0.00 kcal/mol
DOCKED: USER    (2) Final Total Internal Energy     =   -3.04 kcal/mol
DOCKED: USER    (3) Torsional Free Energy           =   +3.28 kcal/mol
DOCKED: USER    (4) Unbound System's Energy  [=(2)] =   -3.04 kcal/mol
DOCKED: USER    
DOCKED: USER    
DOCKED: USER    NEWDPF move ligand.dum.pdbqt
DOCKED: USER    NEWDPF about 0.460000 0.128000 -0.007000
DOCKED: USER    NEWDPF tran0 36.591336 16.502320 123.415398
DOCKED: USER    NEWDPF quaternion0 -0.303134 0.152249 0.876827 0.340742
DOCKED: USER    NEWDPF axisangle0 -0.322430 0.161940 0.932639 140.155859
DOCKED: USER    NEWDPF quat0 -0.322430 0.161940 0.932639 140.155859
DOCKED: USER    NEWDPF dihe0 24.59 -20.89 112.05 59.78 -175.90 104.19 179.79 66.19 -161.84 -26.27 33.29 
DOCKED: USER  keepresnum = 1 
DOCKED: USER  
DOCKED: REMARK  Name = 
DOCKED: REMARK  11 active torsions:
DOCKED: REMARK  status: ('A' for Active; 'I' for Inactive)
DOCKED: REMARK    1  A    between atoms: C_2  and  C_5
DOCKED: REMARK    2  A    between atoms: N_3  and  O_4
DOCKED: REMARK    3  A    between atoms: C_6  and  C_7
DOCKED: REMARK    4  A    between atoms: C_10  and  C_11
DOCKED: REMARK    5  A    between atoms: C_11  and  N_12
DOCKED: REMARK    6  A    between atoms: N_12  and  C_13
DOCKED: REMARK    7  A    between atoms: N_12  and  C_16
DOCKED: REMARK    8  A    between atoms: C_13  and  C_14
DOCKED: REMARK    9  A    between atoms: C_14  and  O_15
DOCKED: REMARK   10  A    between atoms: C_16  and  C_17
DOCKED: REMARK   11  A    between atoms: C_17  and  C_18
DOCKED: REMARK                            x       y       z     vdW  Elec       q    Type
DOCKED: REMARK                         _______ _______ _______ _____ _____    ______ ____
DOCKED: USER                              x       y       z     vdW  Elec       q    Type
DOCKED: USER                           _______ _______ _______ _____ _____    ______ ____
DOCKED: ROOT
DOCKED: ATOM      1  N   UNL     1      36.514  18.045 123.219 -0.18 -0.00    +0.000 N 
DOCKED: ATOM      2  H   UNL     1      36.760  17.524 122.377 +0.00 -0.00    +0.000 HD
DOCKED: ENDROOT
DOCKED: BRANCH   1   3
DOCKED: ATOM      3  C   UNL     1      36.214  17.073 124.292 -0.29 -0.00    +0.000 C 
DOCKED: BRANCH   3   7
DOCKED: ATOM      4  C   UNL     1      36.641  13.044 122.768 -0.51 -0.00    +0.000 A 
DOCKED: ATOM      5  C   UNL     1      35.558  13.382 123.597 -0.39 -0.00    +0.000 A 
DOCKED: ATOM      6  C   UNL     1      35.421  14.679 124.098 -0.47 -0.00    +0.000 A 
DOCKED: ATOM      7  C   UNL     1      36.363  15.667 123.773 -0.36 -0.00    +0.000 A 
DOCKED: ATOM      8  C   UNL     1      37.434  15.342 122.930 -0.34 -0.00    +0.000 A 
DOCKED: ATOM      9  C   UNL     1      37.574  14.045 122.428 -0.42 -0.00    +0.000 A 
DOCKED: ATOM     10  CM  UNL     1      36.499  14.360 123.266 +0.00 -0.00    +0.000 AC
DOCKED: BRANCH   4  11
DOCKED: ATOM     11  C   UNL     1      36.727  10.569 123.040 -0.68 -0.00    +0.000 C 
DOCKED: ATOM     12  C   UNL     1      36.734  11.655 122.254 -0.62 -0.00    +0.000 C 
DOCKED: BRANCH  10  13
DOCKED: ATOM     13  O   UNL     1      36.666   9.000 121.285 -2.52 -0.00    +0.000 OA
DOCKED: ATOM     14  C   UNL     1      36.819   9.188 122.521 -0.71 -0.00    +0.000 C 
DOCKED: ATOM     15  N   UNL     1      37.105   8.068 123.369 -0.74 -0.00    +0.000 N 
DOCKED: ATOM     16  H   UNL     1      37.328   8.214 124.316 -0.40 -0.00    +0.000 HD
DOCKED: BRANCH  14  16
DOCKED: ATOM     17  O   UNL     1      37.068   6.809 122.870 -1.55 -0.00    +0.000 OA
DOCKED: ATOM     18  H   UNL     1      37.222   6.837 121.913 -0.26 -0.00    +0.000 HD
DOCKED: ENDBRANCH  14  16
DOCKED: ENDBRANCH  10  13
DOCKED: ENDBRANCH   4  11
DOCKED: ENDBRANCH   3   7
DOCKED: ENDBRANCH   1   3
DOCKED: BRANCH   1  18
DOCKED: ATOM     19  C   UNL     1      35.315  18.837 122.854 -0.18 -0.00    +0.000 C 
DOCKED: BRANCH  18  19
DOCKED: ATOM     20  C   UNL     1      34.710  18.395 121.512 -0.29 -0.00    +0.000 C 
DOCKED: BRANCH  19  20
DOCKED: ATOM     21  O   UNL     1      34.986  17.045 121.252 -0.28 -0.00    +0.000 OA
DOCKED: ATOM     22  H   UNL     1      35.879  16.961 120.884 -0.01 -0.00    +0.000 HD
DOCKED: ENDBRANCH  19  20
DOCKED: ENDBRANCH  18  19
DOCKED: ENDBRANCH   1  18
DOCKED: BRANCH   1  22
DOCKED: ATOM     23  C   UNL     1      37.716  18.857 123.524 -0.14 -0.00    +0.000 C 
DOCKED: BRANCH  22  23
DOCKED: ATOM     24  C   UNL     1      38.735  18.936 122.369 -0.08 -0.00    +0.000 C 
DOCKED: BRANCH  23  24
DOCKED: ATOM     25  C   UNL     1      40.070  18.427 122.818 -0.11 -0.00    +0.000 A 
DOCKED: ATOM     26  C   UNL     1      41.077  19.165 123.435 -0.12 -0.00    +0.000 A 
DOCKED: ATOM     27  N   UNL     1      42.174  18.397 123.627 -0.21 -0.00    +0.000 N 
DOCKED: ATOM     28  C   UNL     1      41.874  17.187 123.125 -0.32 -0.00    +0.000 A 
DOCKED: ATOM     29  C   UNL     1      40.601  17.168 122.617 -0.21 -0.00    +0.000 A 
DOCKED: ATOM     30  C   UNL     1      40.066  16.029 122.013 -0.26 -0.00    +0.000 A 
DOCKED: ATOM     31  C   UNL     1      40.876  14.880 121.949 -0.36 -0.00    +0.000 A 
DOCKED: ATOM     32  C   UNL     1      42.186  14.897 122.477 -0.31 -0.00    +0.000 A 
DOCKED: ATOM     33  C   UNL     1      42.699  16.065 123.073 -0.37 -0.00    +0.000 A 
DOCKED: ATOM     34  H   UNL     1      43.020  18.670 124.050 -0.55 -0.00    +0.000 HD
DOCKED: ATOM     35  CM  UNL     1      41.192  18.079 123.140 +0.00 -0.00    +0.000 AC
DOCKED: ATOM     36  CM  UNL     1      41.384  16.037 122.543 +0.00 -0.00    +0.000 AC
DOCKED: ENDBRANCH  23  24
DOCKED: ENDBRANCH  22  23
DOCKED: ENDBRANCH   1  22
DOCKED: TORSDOF 11DOCKED: TER
DOCKED: ENDMDL
________________________________________________________________________________


	BEGINNING GENETIC ALGORITHM DOCKING 30 of 100
Run: 30 Seed: 2118598365 1083006140 [ Run 30 of 100 GA/GALS ]
Beginning LAMARCKIAN GENETIC ALGORITHM (LGA), with a maximum of 2500000 energy evaluations.

Final-Value: -16.754


	FINAL GENETIC ALGORITHM DOCKED STATE
	_______________________________________________


Detailed state:  trans 36.417 16.719 122.790 quatxyzw 0.094917 -0.014351 0.764761 0.637123 center 0.460 0.128 -0.007 ntor 11 25.5009 62.9665 -23.0511 163.9319 116.9147 152.0227 -172.1177 118.0077 -179.7845 60.5140 16.1360
State:	 36.417  16.719 122.790   0.123 -0.019  0.992 100.845     25.50   62.97  -23.05  163.93  116.91  152.02 -172.12  118.01 -179.78   60.51   16.14

DOCKED: MODEL       30
DOCKED: USER    Run = 30
DOCKED: USER    DPF = ligand_dock.biased.dpf
DOCKED: USER  
DOCKED: USER    Estimated Free Energy of Binding    =  -10.16 kcal/mol  [=(1)+(2)+(3)-(4)]
DOCKED: USER    Estimated Inhibition Constant, Ki   =   35.43 nM (nanomolar)  [Temperature = 298.15 K]
DOCKED: USER    
DOCKED: USER    (1) Final Intermolecular Energy     =  -13.45 kcal/mol
DOCKED: USER        vdW + Hbond + desolv Energy     =  -13.45 kcal/mol
DOCKED: USER        Electrostatic Energy            =   +0.00 kcal/mol
DOCKED: USER    (2) Final Total Internal Energy     =   -3.31 kcal/mol
DOCKED: USER    (3) Torsional Free Energy           =   +3.28 kcal/mol
DOCKED: USER    (4) Unbound System's Energy  [=(2)] =   -3.31 kcal/mol
DOCKED: USER    
DOCKED: USER    
DOCKED: USER    NEWDPF move ligand.dum.pdbqt
DOCKED: USER    NEWDPF about 0.460000 0.128000 -0.007000
DOCKED: USER    NEWDPF tran0 36.417040 16.718631 122.790402
DOCKED: USER    NEWDPF quaternion0 0.094917 -0.014351 0.764761 0.637123
DOCKED: USER    NEWDPF axisangle0 0.123147 -0.018619 0.992214 100.844830
DOCKED: USER    NEWDPF quat0 0.123147 -0.018619 0.992214 100.844830
DOCKED: USER    NEWDPF dihe0 25.50 62.97 -23.05 163.93 116.91 152.02 -172.12 118.01 -179.78 60.51 16.14 
DOCKED: USER  keepresnum = 1 
DOCKED: USER  
DOCKED: REMARK  Name = 
DOCKED: REMARK  11 active torsions:
DOCKED: REMARK  status: ('A' for Active; 'I' for Inactive)
DOCKED: REMARK    1  A    between atoms: C_2  and  C_5
DOCKED: REMARK    2  A    between atoms: N_3  and  O_4
DOCKED: REMARK    3  A    between atoms: C_6  and  C_7
DOCKED: REMARK    4  A    between atoms: C_10  and  C_11
DOCKED: REMARK    5  A    between atoms: C_11  and  N_12
DOCKED: REMARK    6  A    between atoms: N_12  and  C_13
DOCKED: REMARK    7  A    between atoms: N_12  and  C_16
DOCKED: REMARK    8  A    between atoms: C_13  and  C_14
DOCKED: REMARK    9  A    between atoms: C_14  and  O_15
DOCKED: REMARK   10  A    between atoms: C_16  and  C_17
DOCKED: REMARK   11  A    between atoms: C_17  and  C_18
DOCKED: REMARK                            x       y       z     vdW  Elec       q    Type
DOCKED: REMARK                         _______ _______ _______ _____ _____    ______ ____
DOCKED: USER                              x       y       z     vdW  Elec       q    Type
DOCKED: USER                           _______ _______ _______ _____ _____    ______ ____
DOCKED: ROOT
DOCKED: ATOM      1  N   UNL     1      35.365  17.865 122.841 -0.27 -0.00    +0.000 N 
DOCKED: ATOM      2  H   UNL     1      35.228  17.201 122.079 -0.01 -0.00    +0.000 HD
DOCKED: ENDROOT
DOCKED: BRANCH   1   3
DOCKED: ATOM      3  C   UNL     1      36.484  17.383 123.679 -0.27 -0.00    +0.000 C 
DOCKED: BRANCH   3   7
DOCKED: ATOM      4  C   UNL     1      37.249  13.203 122.862 -0.51 -0.00    +0.000 A 
DOCKED: ATOM      5  C   UNL     1      35.948  13.645 123.155 -0.42 -0.00    +0.000 A 
DOCKED: ATOM      6  C   UNL     1      35.698  14.993 123.428 -0.43 -0.00    +0.000 A 
DOCKED: ATOM      7  C   UNL     1      36.745  15.926 123.406 -0.32 -0.00    +0.000 A 
DOCKED: ATOM      8  C   UNL     1      38.042  15.494 123.093 -0.30 -0.00    +0.000 A 
DOCKED: ATOM      9  C   UNL     1      38.295  14.146 122.821 -0.41 -0.00    +0.000 A 
DOCKED: ATOM     10  CM  UNL     1      36.996  14.568 123.127 +0.00 -0.00    +0.000 AC
DOCKED: BRANCH   4  11
DOCKED: ATOM     11  C   UNL     1      36.504  10.831 122.699 -0.68 -0.00    +0.000 C 
DOCKED: ATOM     12  C   UNL     1      37.459  11.763 122.569 -0.34 -0.00    +0.000 C 
DOCKED: BRANCH  10  13
DOCKED: ATOM     13  O   UNL     1      36.689   9.021 121.204 -2.62 -0.00    +0.000 OA
DOCKED: ATOM     14  C   UNL     1      36.720   9.398 122.405 -0.72 -0.00    +0.000 C 
DOCKED: ATOM     15  N   UNL     1      36.990   8.437 123.434 -0.68 -0.00    +0.000 N 
DOCKED: ATOM     16  H   UNL     1      37.120   8.735 124.363 -0.52 -0.00    +0.000 HD
DOCKED: BRANCH  14  16
DOCKED: ATOM     17  O   UNL     1      37.069   7.119 123.130 -1.93 -0.00    +0.000 OA
DOCKED: ATOM     18  H   UNL     1      37.321   7.017 122.199 -0.19 -0.00    +0.000 HD
DOCKED: ENDBRANCH  14  16
DOCKED: ENDBRANCH  10  13
DOCKED: ENDBRANCH   4  11
DOCKED: ENDBRANCH   3   7
DOCKED: ENDBRANCH   1   3
DOCKED: BRANCH   1  18
DOCKED: ATOM     19  C   UNL     1      34.087  17.868 123.592 -0.37 -0.00    +0.000 C 
DOCKED: BRANCH  18  19
DOCKED: ATOM     20  C   UNL     1      34.254  17.347 125.029 -0.44 -0.00    +0.000 C 
DOCKED: BRANCH  19  20
DOCKED: ATOM     21  O   UNL     1      33.691  16.071 125.174 -0.63 -0.00    +0.000 OA
DOCKED: ATOM     22  H   UNL     1      33.343  15.772 124.320 -0.07 -0.00    +0.000 HD
DOCKED: ENDBRANCH  19  20
DOCKED: ENDBRANCH  18  19
DOCKED: ENDBRANCH   1  18
DOCKED: BRANCH   1  22
DOCKED: ATOM     23  C   UNL     1      35.685  19.148 122.169 -0.19 -0.00    +0.000 C 
DOCKED: BRANCH  22  23
DOCKED: ATOM     24  C   UNL     1      35.796  19.046 120.635 -0.19 -0.00    +0.000 C 
DOCKED: BRANCH  23  24
DOCKED: ATOM     25  C   UNL     1      37.030  18.287 120.252 -0.09 -0.00    +0.000 A 
DOCKED: ATOM     26  C   UNL     1      38.332  18.780 120.220 -0.04 -0.00    +0.000 A 
DOCKED: ATOM     27  N   UNL     1      39.180  17.836 119.751 -0.04 -0.00    +0.000 N 
DOCKED: ATOM     28  C   UNL     1      38.424  16.760 119.475 -0.09 -0.00    +0.000 A 
DOCKED: ATOM     29  C   UNL     1      37.105  16.999 119.762 -0.12 -0.00    +0.000 A 
DOCKED: ATOM     30  C   UNL     1      36.116  16.041 119.533 -0.01 -0.00    +0.000 A 
DOCKED: ATOM     31  C   UNL     1      36.517  14.800 119.002 -0.18 -0.00    +0.000 A 
DOCKED: ATOM     32  C   UNL     1      37.876  14.551 118.711 -0.24 -0.00    +0.000 A 
DOCKED: ATOM     33  C   UNL     1      38.849  15.541 118.947 -0.15 -0.00    +0.000 A 
DOCKED: ATOM     34  H   UNL     1      40.154  17.922 119.636 +0.00 -0.00    +0.000 HD
DOCKED: ATOM     35  CM  UNL     1      38.052  17.735 119.887 +0.00 -0.00    +0.000 AC
DOCKED: ATOM     36  CM  UNL     1      37.481  15.782 119.239 +0.00 -0.00    +0.000 AC
DOCKED: ENDBRANCH  23  24
DOCKED: ENDBRANCH  22  23
DOCKED: ENDBRANCH   1  22
DOCKED: TORSDOF 11DOCKED: TER
DOCKED: ENDMDL
________________________________________________________________________________


	BEGINNING GENETIC ALGORITHM DOCKING 31 of 100
Run: 31 Seed: 1772054244 1527517545 [ Run 31 of 100 GA/GALS ]
Beginning LAMARCKIAN GENETIC ALGORITHM (LGA), with a maximum of 2500000 energy evaluations.

Final-Value: -16.537


	FINAL GENETIC ALGORITHM DOCKED STATE
	_______________________________________________


Detailed state:  trans 36.606 16.944 120.820 quatxyzw 0.042527 0.128430 0.725540 0.674751 center 0.460 0.128 -0.007 ntor 11 25.6524 173.0432 -112.1803 -58.7935 61.0104 98.3134 -15.1401 -151.2538 -168.3631 168.8918 1.7261
State:	 36.606  16.944 120.820   0.058  0.174  0.983 95.130     25.65  173.04 -112.18  -58.79   61.01   98.31  -15.14 -151.25 -168.36  168.89    1.73

DOCKED: MODEL       31
DOCKED: USER    Run = 31
DOCKED: USER    DPF = ligand_dock.biased.dpf
DOCKED: USER  
DOCKED: USER    Estimated Free Energy of Binding    =  -10.35 kcal/mol  [=(1)+(2)+(3)-(4)]
DOCKED: USER    Estimated Inhibition Constant, Ki   =   26.05 nM (nanomolar)  [Temperature = 298.15 K]
DOCKED: USER    
DOCKED: USER    (1) Final Intermolecular Energy     =  -13.63 kcal/mol
DOCKED: USER        vdW + Hbond + desolv Energy     =  -13.63 kcal/mol
DOCKED: USER        Electrostatic Energy            =   +0.00 kcal/mol
DOCKED: USER    (2) Final Total Internal Energy     =   -2.91 kcal/mol
DOCKED: USER    (3) Torsional Free Energy           =   +3.28 kcal/mol
DOCKED: USER    (4) Unbound System's Energy  [=(2)] =   -2.91 kcal/mol
DOCKED: USER    
DOCKED: USER    
DOCKED: USER    NEWDPF move ligand.dum.pdbqt
DOCKED: USER    NEWDPF about 0.460000 0.128000 -0.007000
DOCKED: USER    NEWDPF tran0 36.605933 16.943736 120.820276
DOCKED: USER    NEWDPF quaternion0 0.042527 0.128430 0.725540 0.674751
DOCKED: USER    NEWDPF axisangle0 0.057621 0.174013 0.983056 95.130300
DOCKED: USER    NEWDPF quat0 0.057621 0.174013 0.983056 95.130300
DOCKED: USER    NEWDPF dihe0 25.65 173.04 -112.18 -58.79 61.01 98.31 -15.14 -151.25 -168.36 168.89 1.73 
DOCKED: USER  keepresnum = 1 
DOCKED: USER  
DOCKED: REMARK  Name = 
DOCKED: REMARK  11 active torsions:
DOCKED: REMARK  status: ('A' for Active; 'I' for Inactive)
DOCKED: REMARK    1  A    between atoms: C_2  and  C_5
DOCKED: REMARK    2  A    between atoms: N_3  and  O_4
DOCKED: REMARK    3  A    between atoms: C_6  and  C_7
DOCKED: REMARK    4  A    between atoms: C_10  and  C_11
DOCKED: REMARK    5  A    between atoms: C_11  and  N_12
DOCKED: REMARK    6  A    between atoms: N_12  and  C_13
DOCKED: REMARK    7  A    between atoms: N_12  and  C_16
DOCKED: REMARK    8  A    between atoms: C_13  and  C_14
DOCKED: REMARK    9  A    between atoms: C_14  and  O_15
DOCKED: REMARK   10  A    between atoms: C_16  and  C_17
DOCKED: REMARK   11  A    between atoms: C_17  and  C_18
DOCKED: REMARK                            x       y       z     vdW  Elec       q    Type
DOCKED: REMARK                         _______ _______ _______ _____ _____    ______ ____
DOCKED: USER                              x       y       z     vdW  Elec       q    Type
DOCKED: USER                           _______ _______ _______ _____ _____    ______ ____
DOCKED: ROOT
DOCKED: ATOM      1  N   UNL     1      35.455  17.917 120.431 -0.21 -0.00    +0.000 N 
DOCKED: ATOM      2  H   UNL     1      35.598  17.150 119.774 -0.01 -0.00    +0.000 HD
DOCKED: ENDROOT
DOCKED: BRANCH   1   3
DOCKED: ATOM      3  C   UNL     1      36.362  17.716 121.582 -0.20 -0.00    +0.000 C 
DOCKED: BRANCH   3   7
DOCKED: ATOM      4  C   UNL     1      36.978  13.495 122.314 -0.44 -0.00    +0.000 A 
DOCKED: ATOM      5  C   UNL     1      37.291  14.055 121.065 -0.32 -0.00    +0.000 A 
DOCKED: ATOM      6  C   UNL     1      37.086  15.416 120.821 -0.20 -0.00    +0.000 A 
DOCKED: ATOM      7  C   UNL     1      36.569  16.245 121.827 -0.21 -0.00    +0.000 A 
DOCKED: ATOM      8  C   UNL     1      36.273  15.697 123.083 -0.35 -0.00    +0.000 A 
DOCKED: ATOM      9  C   UNL     1      36.477  14.336 123.329 -0.45 -0.00    +0.000 A 
DOCKED: ATOM     10  CM  UNL     1      36.779  14.874 122.073 +0.00 -0.00    +0.000 AC
DOCKED: BRANCH   4  11
DOCKED: ATOM     11  C   UNL     1      36.637  11.080 121.805 -0.58 -0.00    +0.000 C 
DOCKED: ATOM     12  C   UNL     1      37.225  12.047 122.524 -0.55 -0.00    +0.000 C 
DOCKED: BRANCH  10  13
DOCKED: ATOM     13  O   UNL     1      37.065   8.905 121.012 -2.71 -0.00    +0.000 OA
DOCKED: ATOM     14  C   UNL     1      36.889   9.640 122.020 -0.64 -0.00    +0.000 C 
DOCKED: ATOM     15  N   UNL     1      36.965   9.062 123.330 -0.60 -0.00    +0.000 N 
DOCKED: ATOM     16  H   UNL     1      36.932   9.641 124.124 -0.52 -0.00    +0.000 HD
DOCKED: BRANCH  14  16
DOCKED: ATOM     17  O   UNL     1      37.084   7.720 123.476 -2.27 -0.00    +0.000 OA
DOCKED: ATOM     18  H   UNL     1      37.497   7.345 122.683 -0.21 -0.00    +0.000 HD
DOCKED: ENDBRANCH  14  16
DOCKED: ENDBRANCH  10  13
DOCKED: ENDBRANCH   4  11
DOCKED: ENDBRANCH   3   7
DOCKED: ENDBRANCH   1   3
DOCKED: BRANCH   1  18
DOCKED: ATOM     19  C   UNL     1      34.032  17.822 120.840 -0.25 -0.00    +0.000 C 
DOCKED: BRANCH  18  19
DOCKED: ATOM     20  C   UNL     1      33.170  18.928 120.211 -0.25 -0.00    +0.000 C 
DOCKED: BRANCH  19  20
DOCKED: ATOM     21  O   UNL     1      31.805  18.615 120.293 -0.58 -0.00    +0.000 OA
DOCKED: ATOM     22  H   UNL     1      31.368  19.230 120.901 -0.08 -0.00    +0.000 HD
DOCKED: ENDBRANCH  19  20
DOCKED: ENDBRANCH  18  19
DOCKED: ENDBRANCH   1  18
DOCKED: BRANCH   1  22
DOCKED: ATOM     23  C   UNL     1      35.792  19.139 119.663 -0.16 -0.00    +0.000 C 
DOCKED: BRANCH  22  23
DOCKED: ATOM     24  C   UNL     1      36.044  18.892 118.162 -0.08 -0.00    +0.000 C 
DOCKED: BRANCH  23  24
DOCKED: ATOM     25  C   UNL     1      35.422  17.597 117.738 -0.10 -0.00    +0.000 A 
DOCKED: ATOM     26  C   UNL     1      34.072  17.366 117.484 -0.13 -0.00    +0.000 A 
DOCKED: ATOM     27  N   UNL     1      33.863  16.061 117.201 -0.14 -0.00    +0.000 N 
DOCKED: ATOM     28  C   UNL     1      35.064  15.463 117.287 -0.18 -0.00    +0.000 A 
DOCKED: ATOM     29  C   UNL     1      36.039  16.367 117.620 -0.13 -0.00    +0.000 A 
DOCKED: ATOM     30  C   UNL     1      37.369  15.984 117.797 -0.13 -0.00    +0.000 A 
DOCKED: ATOM     31  C   UNL     1      37.689  14.626 117.613 -0.24 -0.00    +0.000 A 
DOCKED: ATOM     32  C   UNL     1      36.686  13.694 117.266 -0.35 -0.00    +0.000 A 
DOCKED: ATOM     33  C   UNL     1      35.352  14.112 117.101 -0.33 -0.00    +0.000 A 
DOCKED: ATOM     34  H   UNL     1      33.004  15.635 116.976 -0.01 -0.00    +0.000 HD
DOCKED: ATOM     35  CM  UNL     1      34.859  16.554 117.457 +0.00 -0.00    +0.000 AC
DOCKED: ATOM     36  CM  UNL     1      36.367  15.041 117.447 +0.00 -0.00    +0.000 AC
DOCKED: ENDBRANCH  23  24
DOCKED: ENDBRANCH  22  23
DOCKED: ENDBRANCH   1  22
DOCKED: TORSDOF 11DOCKED: TER
DOCKED: ENDMDL
________________________________________________________________________________


	BEGINNING GENETIC ALGORITHM DOCKING 32 of 100
Run: 32 Seed: 1481258413 750202330 [ Run 32 of 100 GA/GALS ]
Beginning LAMARCKIAN GENETIC ALGORITHM (LGA), with a maximum of 2500000 energy evaluations.

Final-Value: -16.811


	FINAL GENETIC ALGORITHM DOCKED STATE
	_______________________________________________


Detailed state:  trans 36.300 17.305 123.148 quatxyzw 0.873570 0.127775 -0.423705 0.202543 center 0.460 0.128 -0.007 ntor 11 52.1626 94.7308 96.5196 0.5120 130.3429 -165.3227 -173.1574 46.1665 11.8261 -176.9252 90.1730
State:	 36.300  17.305 123.148   0.892  0.130 -0.433 156.629     52.16   94.73   96.52    0.51  130.34 -165.32 -173.16   46.17   11.83 -176.93   90.17

DOCKED: MODEL       32
DOCKED: USER    Run = 32
DOCKED: USER    DPF = ligand_dock.biased.dpf
DOCKED: USER  
DOCKED: USER    Estimated Free Energy of Binding    =  -11.36 kcal/mol  [=(1)+(2)+(3)-(4)]
DOCKED: USER    Estimated Inhibition Constant, Ki   =    4.73 nM (nanomolar)  [Temperature = 298.15 K]
DOCKED: USER    
DOCKED: USER    (1) Final Intermolecular Energy     =  -14.64 kcal/mol
DOCKED: USER        vdW + Hbond + desolv Energy     =  -14.64 kcal/mol
DOCKED: USER        Electrostatic Energy            =   +0.00 kcal/mol
DOCKED: USER    (2) Final Total Internal Energy     =   -2.17 kcal/mol
DOCKED: USER    (3) Torsional Free Energy           =   +3.28 kcal/mol
DOCKED: USER    (4) Unbound System's Energy  [=(2)] =   -2.17 kcal/mol
DOCKED: USER    
DOCKED: USER    
DOCKED: USER    NEWDPF move ligand.dum.pdbqt
DOCKED: USER    NEWDPF about 0.460000 0.128000 -0.007000
DOCKED: USER    NEWDPF tran0 36.299862 17.305453 123.147660
DOCKED: USER    NEWDPF quaternion0 0.873570 0.127775 -0.423705 0.202543
DOCKED: USER    NEWDPF axisangle0 0.892059 0.130480 -0.432672 156.628640
DOCKED: USER    NEWDPF quat0 0.892059 0.130480 -0.432672 156.628640
DOCKED: USER    NEWDPF dihe0 52.16 94.73 96.52 0.51 130.34 -165.32 -173.16 46.17 11.83 -176.93 90.17 
DOCKED: USER  keepresnum = 1 
DOCKED: USER  
DOCKED: REMARK  Name = 
DOCKED: REMARK  11 active torsions:
DOCKED: REMARK  status: ('A' for Active; 'I' for Inactive)
DOCKED: REMARK    1  A    between atoms: C_2  and  C_5
DOCKED: REMARK    2  A    between atoms: N_3  and  O_4
DOCKED: REMARK    3  A    between atoms: C_6  and  C_7
DOCKED: REMARK    4  A    between atoms: C_10  and  C_11
DOCKED: REMARK    5  A    between atoms: C_11  and  N_12
DOCKED: REMARK    6  A    between atoms: N_12  and  C_13
DOCKED: REMARK    7  A    between atoms: N_12  and  C_16
DOCKED: REMARK    8  A    between atoms: C_13  and  C_14
DOCKED: REMARK    9  A    between atoms: C_14  and  O_15
DOCKED: REMARK   10  A    between atoms: C_16  and  C_17
DOCKED: REMARK   11  A    between atoms: C_17  and  C_18
DOCKED: REMARK                            x       y       z     vdW  Elec       q    Type
DOCKED: REMARK                         _______ _______ _______ _____ _____    ______ ____
DOCKED: USER                              x       y       z     vdW  Elec       q    Type
DOCKED: USER                           _______ _______ _______ _____ _____    ______ ____
DOCKED: ROOT
DOCKED: ATOM      1  N   UNL     1      35.674  18.036 124.372 -0.25 -0.00    +0.000 N 
DOCKED: ATOM      2  H   UNL     1      36.692  17.969 124.396 -0.01 -0.00    +0.000 HD
DOCKED: ENDROOT
DOCKED: BRANCH   1   3
DOCKED: ATOM      3  C   UNL     1      35.205  17.488 123.081 -0.35 -0.00    +0.000 C 
DOCKED: BRANCH   3   7
DOCKED: ATOM      4  C   UNL     1      36.614  13.430 122.552 -0.44 -0.00    +0.000 A 
DOCKED: ATOM      5  C   UNL     1      35.605  13.718 123.486 -0.44 -0.00    +0.000 A 
DOCKED: ATOM      6  C   UNL     1      35.153  15.028 123.666 -0.47 -0.00    +0.000 A 
DOCKED: ATOM      7  C   UNL     1      35.698  16.075 122.909 -0.32 -0.00    +0.000 A 
DOCKED: ATOM      8  C   UNL     1      36.691  15.792 121.961 -0.23 -0.00    +0.000 A 
DOCKED: ATOM      9  C   UNL     1      37.145  14.482 121.780 -0.31 -0.00    +0.000 A 
DOCKED: ATOM     10  CM  UNL     1      36.151  14.754 122.726 +0.00 -0.00    +0.000 AC
DOCKED: BRANCH   4  11
DOCKED: ATOM     11  C   UNL     1      36.222  10.970 122.485 -0.68 -0.00    +0.000 C 
DOCKED: ATOM     12  C   UNL     1      37.051  12.020 122.393 -0.60 -0.00    +0.000 C 
DOCKED: BRANCH  10  13
DOCKED: ATOM     13  O   UNL     1      37.074   9.195 121.194 -2.73 -0.00    +0.000 OA
DOCKED: ATOM     14  C   UNL     1      36.664   9.569 122.324 -0.71 -0.00    +0.000 C 
DOCKED: ATOM     15  N   UNL     1      36.666   8.636 123.414 -0.63 -0.00    +0.000 N 
DOCKED: ATOM     16  H   UNL     1      36.447   8.943 124.323 -0.31 -0.00    +0.000 HD
DOCKED: BRANCH  14  16
DOCKED: ATOM     17  O   UNL     1      36.971   7.335 123.194 -2.10 -0.00    +0.000 OA
DOCKED: ATOM     18  H   UNL     1      37.813   7.277 122.716 -0.42 -0.00    +0.000 HD
DOCKED: ENDBRANCH  14  16
DOCKED: ENDBRANCH  10  13
DOCKED: ENDBRANCH   4  11
DOCKED: ENDBRANCH   3   7
DOCKED: ENDBRANCH   1   3
DOCKED: BRANCH   1  18
DOCKED: ATOM     19  C   UNL     1      35.374  19.484 124.487 -0.20 -0.00    +0.000 C 
DOCKED: BRANCH  18  19
DOCKED: ATOM     20  C   UNL     1      36.168  20.156 125.618 -0.14 -0.00    +0.000 C 
DOCKED: BRANCH  19  20
DOCKED: ATOM     21  O   UNL     1      37.183  19.313 126.095 -0.16 -0.00    +0.000 OA
DOCKED: ATOM     22  H   UNL     1      37.532  18.782 125.364 -0.01 -0.00    +0.000 HD
DOCKED: ENDBRANCH  19  20
DOCKED: ENDBRANCH  18  19
DOCKED: ENDBRANCH   1  18
DOCKED: BRANCH   1  22
DOCKED: ATOM     23  C   UNL     1      35.215  17.221 125.522 -0.11 -0.00    +0.000 C 
DOCKED: BRANCH  22  23
DOCKED: ATOM     24  C   UNL     1      33.689  17.015 125.581 -0.36 -0.00    +0.000 C 
DOCKED: BRANCH  23  24
DOCKED: ATOM     25  C   UNL     1      33.214  17.057 127.002 -0.35 -0.00    +0.000 A 
DOCKED: ATOM     26  C   UNL     1      33.275  16.020 127.930 -0.23 -0.00    +0.000 A 
DOCKED: ATOM     27  N   UNL     1      32.682  16.389 129.088 -0.37 -0.00    +0.000 N 
DOCKED: ATOM     28  C   UNL     1      32.233  17.641 128.894 -0.27 -0.00    +0.000 A 
DOCKED: ATOM     29  C   UNL     1      32.533  18.081 127.631 -0.25 -0.00    +0.000 A 
DOCKED: ATOM     30  C   UNL     1      32.147  19.343 127.179 -0.23 -0.00    +0.000 A 
DOCKED: ATOM     31  C   UNL     1      31.439  20.170 128.072 -0.17 -0.00    +0.000 A 
DOCKED: ATOM     32  C   UNL     1      31.134  19.720 129.375 -0.13 -0.00    +0.000 A 
DOCKED: ATOM     33  C   UNL     1      31.532  18.437 129.798 -0.20 -0.00    +0.000 A 
DOCKED: ATOM     34  H   UNL     1      32.596  15.848 129.906 -0.47 -0.00    +0.000 HD
DOCKED: ATOM     35  CM  UNL     1      32.784  17.017 128.140 +0.00 -0.00    +0.000 AC
DOCKED: ATOM     36  CM  UNL     1      31.837  18.899 128.492 +0.00 -0.00    +0.000 AC
DOCKED: ENDBRANCH  23  24
DOCKED: ENDBRANCH  22  23
DOCKED: ENDBRANCH   1  22
DOCKED: TORSDOF 11DOCKED: TER
DOCKED: ENDMDL
________________________________________________________________________________


	BEGINNING GENETIC ALGORITHM DOCKING 33 of 100
Run: 33 Seed: 2123741659 9758029 [ Run 33 of 100 GA/GALS ]
Beginning LAMARCKIAN GENETIC ALGORITHM (LGA), with a maximum of 2500000 energy evaluations.

Final-Value: -16.866


	FINAL GENETIC ALGORITHM DOCKED STATE
	_______________________________________________


Detailed state:  trans 37.207 17.628 123.543 quatxyzw 0.848697 0.222706 0.459437 -0.137957 center 0.460 0.128 -0.007 ntor 11 14.8492 -179.9997 -180.0000 -95.0391 -26.5769 169.1953 171.0365 131.7831 -160.8166 -143.2380 123.9558
State:	 37.207  17.628 123.543   0.857  0.225  0.464 -164.141     14.85 -180.00 -180.00  -95.04  -26.58  169.20  171.04  131.78 -160.82 -143.24  123.96

DOCKED: MODEL       33
DOCKED: USER    Run = 33
DOCKED: USER    DPF = ligand_dock.biased.dpf
DOCKED: USER  
DOCKED: USER    Estimated Free Energy of Binding    =  -10.78 kcal/mol  [=(1)+(2)+(3)-(4)]
DOCKED: USER    Estimated Inhibition Constant, Ki   =   12.61 nM (nanomolar)  [Temperature = 298.15 K]
DOCKED: USER    
DOCKED: USER    (1) Final Intermolecular Energy     =  -14.06 kcal/mol
DOCKED: USER        vdW + Hbond + desolv Energy     =  -14.06 kcal/mol
DOCKED: USER        Electrostatic Energy            =   +0.00 kcal/mol
DOCKED: USER    (2) Final Total Internal Energy     =   -2.81 kcal/mol
DOCKED: USER    (3) Torsional Free Energy           =   +3.28 kcal/mol
DOCKED: USER    (4) Unbound System's Energy  [=(2)] =   -2.81 kcal/mol
DOCKED: USER    
DOCKED: USER    
DOCKED: USER    NEWDPF move ligand.dum.pdbqt
DOCKED: USER    NEWDPF about 0.460000 0.128000 -0.007000
DOCKED: USER    NEWDPF tran0 37.207245 17.628483 123.543325
DOCKED: USER    NEWDPF quaternion0 0.848697 0.222706 0.459437 -0.137957
DOCKED: USER    NEWDPF axisangle0 0.856891 0.224856 0.463873 -164.140720
DOCKED: USER    NEWDPF quat0 0.856891 0.224856 0.463873 -164.140720
DOCKED: USER    NEWDPF dihe0 14.85 -180.00 -180.00 -95.04 -26.58 169.20 171.04 131.78 -160.82 -143.24 123.96 
DOCKED: USER  keepresnum = 1 
DOCKED: USER  
DOCKED: REMARK  Name = 
DOCKED: REMARK  11 active torsions:
DOCKED: REMARK  status: ('A' for Active; 'I' for Inactive)
DOCKED: REMARK    1  A    between atoms: C_2  and  C_5
DOCKED: REMARK    2  A    between atoms: N_3  and  O_4
DOCKED: REMARK    3  A    between atoms: C_6  and  C_7
DOCKED: REMARK    4  A    between atoms: C_10  and  C_11
DOCKED: REMARK    5  A    between atoms: C_11  and  N_12
DOCKED: REMARK    6  A    between atoms: N_12  and  C_13
DOCKED: REMARK    7  A    between atoms: N_12  and  C_16
DOCKED: REMARK    8  A    between atoms: C_13  and  C_14
DOCKED: REMARK    9  A    between atoms: C_14  and  O_15
DOCKED: REMARK   10  A    between atoms: C_16  and  C_17
DOCKED: REMARK   11  A    between atoms: C_17  and  C_18
DOCKED: REMARK                            x       y       z     vdW  Elec       q    Type
DOCKED: REMARK                         _______ _______ _______ _____ _____    ______ ____
DOCKED: USER                              x       y       z     vdW  Elec       q    Type
DOCKED: USER                           _______ _______ _______ _____ _____    ______ ____
DOCKED: ROOT
DOCKED: ATOM      1  N   UNL     1      36.439  18.231 122.330 -0.16 -0.00    +0.000 N 
DOCKED: ATOM      2  H   UNL     1      36.037  18.459 123.240 +0.00 -0.00    +0.000 HD
DOCKED: ENDROOT
DOCKED: BRANCH   1   3
DOCKED: ATOM      3  C   UNL     1      37.696  17.485 122.555 -0.17 -0.00    +0.000 C 
DOCKED: BRANCH   3   7
DOCKED: ATOM      4  C   UNL     1      36.914  13.233 122.759 -0.50 -0.00    +0.000 A 
DOCKED: ATOM      5  C   UNL     1      37.519  13.793 121.621 -0.39 -0.00    +0.000 A 
DOCKED: ATOM      6  C   UNL     1      37.765  15.167 121.548 -0.26 -0.00    +0.000 A 
DOCKED: ATOM      7  C   UNL     1      37.418  16.007 122.616 -0.26 -0.00    +0.000 A 
DOCKED: ATOM      8  C   UNL     1      36.833  15.451 123.763 -0.29 -0.00    +0.000 A 
DOCKED: ATOM      9  C   UNL     1      36.584  14.078 123.838 -0.40 -0.00    +0.000 A 
DOCKED: ATOM     10  CM  UNL     1      37.172  14.622 122.691 +0.00 -0.00    +0.000 AC
DOCKED: BRANCH   4  11
DOCKED: ATOM     11  C   UNL     1      37.191  10.915 121.888 -0.35 -0.00    +0.000 C 
DOCKED: ATOM     12  C   UNL     1      36.684  11.767 122.791 -0.67 -0.00    +0.000 C 
DOCKED: BRANCH  10  13
DOCKED: ATOM     13  O   UNL     1      36.691   8.863 120.848 -2.61 +0.00    +0.000 OA
DOCKED: ATOM     14  C   UNL     1      36.958   9.456 121.926 -0.64 -0.00    +0.000 C 
DOCKED: ATOM     15  N   UNL     1      37.053   8.696 123.139 -0.69 -0.00    +0.000 N 
DOCKED: ATOM     16  H   UNL     1      37.361   9.130 123.967 -0.50 -0.00    +0.000 HD
DOCKED: BRANCH  14  16
DOCKED: ATOM     17  O   UNL     1      36.721   7.383 123.147 -2.04 -0.00    +0.000 OA
DOCKED: ATOM     18  H   UNL     1      36.668   7.058 122.234 -0.06 -0.00    +0.000 HD
DOCKED: ENDBRANCH  14  16
DOCKED: ENDBRANCH  10  13
DOCKED: ENDBRANCH   4  11
DOCKED: ENDBRANCH   3   7
DOCKED: ENDBRANCH   1   3
DOCKED: BRANCH   1  18
DOCKED: ATOM     19  C   UNL     1      36.694  19.536 121.675 -0.15 -0.00    +0.000 C 
DOCKED: BRANCH  18  19
DOCKED: ATOM     20  C   UNL     1      36.419  19.493 120.163 -0.13 -0.00    +0.000 C 
DOCKED: BRANCH  19  20
DOCKED: ATOM     21  O   UNL     1      35.125  19.949 119.870 -0.14 -0.00    +0.000 OA
DOCKED: ATOM     22  H   UNL     1      35.179  20.729 119.297 -0.22 -0.00    +0.000 HD
DOCKED: ENDBRANCH  19  20
DOCKED: ENDBRANCH  18  19
DOCKED: ENDBRANCH   1  18
DOCKED: BRANCH   1  22
DOCKED: ATOM     23  C   UNL     1      35.410  17.399 121.661 -0.29 -0.00    +0.000 C 
DOCKED: BRANCH  22  23
DOCKED: ATOM     24  C   UNL     1      34.019  17.462 122.323 -0.39 -0.00    +0.000 C 
DOCKED: BRANCH  23  24
DOCKED: ATOM     25  C   UNL     1      34.111  17.067 123.765 -0.36 -0.00    +0.000 A 
DOCKED: ATOM     26  C   UNL     1      33.863  15.805 124.299 -0.27 -0.00    +0.000 A 
DOCKED: ATOM     27  N   UNL     1      33.966  15.835 125.647 -0.50 -0.00    +0.000 N 
DOCKED: ATOM     28  C   UNL     1      34.263  17.105 125.969 -0.33 -0.00    +0.000 A 
DOCKED: ATOM     29  C   UNL     1      34.353  17.889 124.848 -0.35 -0.00    +0.000 A 
DOCKED: ATOM     30  C   UNL     1      34.624  19.256 124.924 -0.16 -0.00    +0.000 A 
DOCKED: ATOM     31  C   UNL     1      34.815  19.815 126.201 -0.16 -0.00    +0.000 A 
DOCKED: ATOM     32  C   UNL     1      34.727  19.008 127.357 -0.15 -0.00    +0.000 A 
DOCKED: ATOM     33  C   UNL     1      34.445  17.633 127.247 -0.14 -0.00    +0.000 A 
DOCKED: ATOM     34  H   UNL     1      33.848  15.079 126.266 -0.03 -0.00    +0.000 HD
DOCKED: ATOM     35  CM  UNL     1      34.107  16.711 124.930 -0.15 -0.00    +0.000 AC
DOCKED: ATOM     36  CM  UNL     1      34.538  18.451 126.091 -0.15 -0.00    +0.000 AC
DOCKED: ENDBRANCH  23  24
DOCKED: ENDBRANCH  22  23
DOCKED: ENDBRANCH   1  22
DOCKED: TORSDOF 11DOCKED: TER
DOCKED: ENDMDL
________________________________________________________________________________


	BEGINNING GENETIC ALGORITHM DOCKING 34 of 100
Run: 34 Seed: 1506221823 1509817532 [ Run 34 of 100 GA/GALS ]
Beginning LAMARCKIAN GENETIC ALGORITHM (LGA), with a maximum of 2500000 energy evaluations.

Final-Value: -16.726


	FINAL GENETIC ALGORITHM DOCKED STATE
	_______________________________________________


Detailed state:  trans 35.833 16.436 122.561 quatxyzw -0.240475 0.012615 -0.783304 -0.573104 center 0.460 0.128 -0.007 ntor 11 30.4240 100.3746 -115.4842 143.9804 145.9755 -1.7012 -1.7024 -44.8631 173.2379 -163.4876 29.6403
State:	 35.833  16.436 122.561  -0.293  0.015 -0.956 -110.066     30.42  100.37 -115.48  143.98  145.98   -1.70   -1.70  -44.86  173.24 -163.49   29.64

DOCKED: MODEL       34
DOCKED: USER    Run = 34
DOCKED: USER    DPF = ligand_dock.biased.dpf
DOCKED: USER  
DOCKED: USER    Estimated Free Energy of Binding    =  -11.49 kcal/mol  [=(1)+(2)+(3)-(4)]
DOCKED: USER    Estimated Inhibition Constant, Ki   =    3.77 nM (nanomolar)  [Temperature = 298.15 K]
DOCKED: USER    
DOCKED: USER    (1) Final Intermolecular Energy     =  -14.77 kcal/mol
DOCKED: USER        vdW + Hbond + desolv Energy     =  -14.77 kcal/mol
DOCKED: USER        Electrostatic Energy            =   +0.00 kcal/mol
DOCKED: USER    (2) Final Total Internal Energy     =   -1.95 kcal/mol
DOCKED: USER    (3) Torsional Free Energy           =   +3.28 kcal/mol
DOCKED: USER    (4) Unbound System's Energy  [=(2)] =   -1.95 kcal/mol
DOCKED: USER    
DOCKED: USER    
DOCKED: USER    NEWDPF move ligand.dum.pdbqt
DOCKED: USER    NEWDPF about 0.460000 0.128000 -0.007000
DOCKED: USER    NEWDPF tran0 35.833306 16.436110 122.560734
DOCKED: USER    NEWDPF quaternion0 -0.240475 0.012615 -0.783304 -0.573104
DOCKED: USER    NEWDPF axisangle0 -0.293447 0.015394 -0.955851 -110.066140
DOCKED: USER    NEWDPF quat0 -0.293447 0.015394 -0.955851 -110.066140
DOCKED: USER    NEWDPF dihe0 30.42 100.37 -115.48 143.98 145.98 -1.70 -1.70 -44.86 173.24 -163.49 29.64 
DOCKED: USER  keepresnum = 1 
DOCKED: USER  
DOCKED: REMARK  Name = 
DOCKED: REMARK  11 active torsions:
DOCKED: REMARK  status: ('A' for Active; 'I' for Inactive)
DOCKED: REMARK    1  A    between atoms: C_2  and  C_5
DOCKED: REMARK    2  A    between atoms: N_3  and  O_4
DOCKED: REMARK    3  A    between atoms: C_6  and  C_7
DOCKED: REMARK    4  A    between atoms: C_10  and  C_11
DOCKED: REMARK    5  A    between atoms: C_11  and  N_12
DOCKED: REMARK    6  A    between atoms: N_12  and  C_13
DOCKED: REMARK    7  A    between atoms: N_12  and  C_16
DOCKED: REMARK    8  A    between atoms: C_13  and  C_14
DOCKED: REMARK    9  A    between atoms: C_14  and  O_15
DOCKED: REMARK   10  A    between atoms: C_16  and  C_17
DOCKED: REMARK   11  A    between atoms: C_17  and  C_18
DOCKED: REMARK                            x       y       z     vdW  Elec       q    Type
DOCKED: REMARK                         _______ _______ _______ _____ _____    ______ ____
DOCKED: USER                              x       y       z     vdW  Elec       q    Type
DOCKED: USER                           _______ _______ _______ _____ _____    ______ ____
DOCKED: ROOT
DOCKED: ATOM      1  N   UNL     1      34.932  17.706 122.582 -0.32 -0.00    +0.000 N 
DOCKED: ATOM      2  H   UNL     1      34.564  16.937 122.022 -0.02 -0.00    +0.000 HD
DOCKED: ENDROOT
DOCKED: BRANCH   1   3
DOCKED: ATOM      3  C   UNL     1      36.162  17.238 123.256 -0.29 -0.00    +0.000 C 
DOCKED: BRANCH   3   7
DOCKED: ATOM      4  C   UNL     1      36.829  13.037 122.457 -0.49 -0.00    +0.000 A 
DOCKED: ATOM      5  C   UNL     1      37.284  14.015 121.557 -0.35 -0.00    +0.000 A 
DOCKED: ATOM      6  C   UNL     1      37.063  15.373 121.807 -0.26 -0.00    +0.000 A 
DOCKED: ATOM      7  C   UNL     1      36.388  15.778 122.968 -0.33 -0.00    +0.000 A 
DOCKED: ATOM      8  C   UNL     1      35.949  14.808 123.880 -0.45 -0.00    +0.000 A 
DOCKED: ATOM      9  C   UNL     1      36.168  13.450 123.631 -0.52 -0.00    +0.000 A 
DOCKED: ATOM     10  CM  UNL     1      36.614  14.411 122.717 +0.00 -0.00    +0.000 AC
DOCKED: BRANCH   4  11
DOCKED: ATOM     11  C   UNL     1      36.422  10.591 122.699 -0.69 -0.00    +0.000 C 
DOCKED: ATOM     12  C   UNL     1      37.098  11.610 122.150 -0.56 -0.00    +0.000 C 
DOCKED: BRANCH  10  13
DOCKED: ATOM     13  O   UNL     1      36.745   8.822 121.179 -2.61 -0.00    +0.000 OA
DOCKED: ATOM     14  C   UNL     1      36.696   9.172 122.387 -0.73 -0.00    +0.000 C 
DOCKED: ATOM     15  N   UNL     1      36.933   8.195 123.410 -0.72 -0.00    +0.000 N 
DOCKED: ATOM     16  H   UNL     1      36.999   8.476 124.351 -0.45 -0.00    +0.000 HD
DOCKED: BRANCH  14  16
DOCKED: ATOM     17  O   UNL     1      37.067   6.887 123.083 -1.70 -0.00    +0.000 OA
DOCKED: ATOM     18  H   UNL     1      37.449   6.814 122.195 -0.32 -0.00    +0.000 HD
DOCKED: ENDBRANCH  14  16
DOCKED: ENDBRANCH  10  13
DOCKED: ENDBRANCH   4  11
DOCKED: ENDBRANCH   3   7
DOCKED: ENDBRANCH   1   3
DOCKED: BRANCH   1  18
DOCKED: ATOM     19  C   UNL     1      33.865  18.024 123.561 -0.14 -0.00    +0.000 C 
DOCKED: BRANCH  18  19
DOCKED: ATOM     20  C   UNL     1      34.088  17.329 124.913 -0.44 -0.00    +0.000 C 
DOCKED: BRANCH  19  20
DOCKED: ATOM     21  O   UNL     1      33.367  17.964 125.935 -0.42 -0.00    +0.000 OA
DOCKED: ATOM     22  H   UNL     1      32.496  18.227 125.600 -0.18 -0.00    +0.000 HD
DOCKED: ENDBRANCH  19  20
DOCKED: ENDBRANCH  18  19
DOCKED: ENDBRANCH   1  18
DOCKED: BRANCH   1  22
DOCKED: ATOM     23  C   UNL     1      35.209  18.785 121.604 -0.24 -0.00    +0.000 C 
DOCKED: BRANCH  22  23
DOCKED: ATOM     24  C   UNL     1      35.123  18.340 120.130 -0.24 -0.00    +0.000 C 
DOCKED: BRANCH  23  24
DOCKED: ATOM     25  C   UNL     1      34.192  19.236 119.371 -0.21 -0.00    +0.000 A 
DOCKED: ATOM     26  C   UNL     1      34.535  20.394 118.678 -0.07 -0.00    +0.000 A 
DOCKED: ATOM     27  N   UNL     1      33.428  20.989 118.180 -0.16 -0.00    +0.000 N 
DOCKED: ATOM     28  C   UNL     1      32.390  20.226 118.563 -0.22 -0.00    +0.000 A 
DOCKED: ATOM     29  C   UNL     1      32.816  19.150 119.298 -0.30 -0.00    +0.000 A 
DOCKED: ATOM     30  C   UNL     1      31.921  18.223 119.834 -0.42 -0.00    +0.000 A 
DOCKED: ATOM     31  C   UNL     1      30.549  18.420 119.589 -0.37 -0.00    +0.000 A 
DOCKED: ATOM     32  C   UNL     1      30.109  19.526 118.829 -0.32 -0.00    +0.000 A 
DOCKED: ATOM     33  C   UNL     1      31.037  20.447 118.307 -0.23 -0.00    +0.000 A 
DOCKED: ATOM     34  H   UNL     1      33.390  21.815 117.644 -0.02 -0.00    +0.000 HD
DOCKED: ATOM     35  CM  UNL     1      33.470  20.031 118.798 +0.00 -0.00    +0.000 AC
DOCKED: ATOM     36  CM  UNL     1      31.470  19.332 119.069 +0.00 -0.00    +0.000 AC
DOCKED: ENDBRANCH  23  24
DOCKED: ENDBRANCH  22  23
DOCKED: ENDBRANCH   1  22
DOCKED: TORSDOF 11DOCKED: TER
DOCKED: ENDMDL
________________________________________________________________________________


	BEGINNING GENETIC ALGORITHM DOCKING 35 of 100
Run: 35 Seed: 1579091081 403205982 [ Run 35 of 100 GA/GALS ]
Beginning LAMARCKIAN GENETIC ALGORITHM (LGA), with a maximum of 2500000 energy evaluations.

Final-Value: -17.906


	FINAL GENETIC ALGORITHM DOCKED STATE
	_______________________________________________


Detailed state:  trans 36.862 16.647 122.876 quatxyzw -0.390297 0.343482 0.744557 0.418717 center 0.460 0.128 -0.007 ntor 11 12.7672 144.7547 125.8169 27.8456 -4.7099 -33.3499 23.2064 -62.0835 86.7161 -62.9170 18.7731
State:	 36.862  16.647 122.876  -0.430  0.378  0.820 130.493     12.77  144.75  125.82   27.85   -4.71  -33.35   23.21  -62.08   86.72  -62.92   18.77

DOCKED: MODEL       35
DOCKED: USER    Run = 35
DOCKED: USER    DPF = ligand_dock.biased.dpf
DOCKED: USER  
DOCKED: USER    Estimated Free Energy of Binding    =  -11.38 kcal/mol  [=(1)+(2)+(3)-(4)]
DOCKED: USER    Estimated Inhibition Constant, Ki   =    4.58 nM (nanomolar)  [Temperature = 298.15 K]
DOCKED: USER    
DOCKED: USER    (1) Final Intermolecular Energy     =  -14.66 kcal/mol
DOCKED: USER        vdW + Hbond + desolv Energy     =  -14.66 kcal/mol
DOCKED: USER        Electrostatic Energy            =   +0.00 kcal/mol
DOCKED: USER    (2) Final Total Internal Energy     =   -3.25 kcal/mol
DOCKED: USER    (3) Torsional Free Energy           =   +3.28 kcal/mol
DOCKED: USER    (4) Unbound System's Energy  [=(2)] =   -3.25 kcal/mol
DOCKED: USER    
DOCKED: USER    
DOCKED: USER    NEWDPF move ligand.dum.pdbqt
DOCKED: USER    NEWDPF about 0.460000 0.128000 -0.007000
DOCKED: USER    NEWDPF tran0 36.862382 16.646757 122.875575
DOCKED: USER    NEWDPF quaternion0 -0.390297 0.343482 0.744557 0.418717
DOCKED: USER    NEWDPF axisangle0 -0.429787 0.378235 0.819891 130.492776
DOCKED: USER    NEWDPF quat0 -0.429787 0.378235 0.819891 130.492776
DOCKED: USER    NEWDPF dihe0 12.77 144.75 125.82 27.85 -4.71 -33.35 23.21 -62.08 86.72 -62.92 18.77 
DOCKED: USER  keepresnum = 1 
DOCKED: USER  
DOCKED: REMARK  Name = 
DOCKED: REMARK  11 active torsions:
DOCKED: REMARK  status: ('A' for Active; 'I' for Inactive)
DOCKED: REMARK    1  A    between atoms: C_2  and  C_5
DOCKED: REMARK    2  A    between atoms: N_3  and  O_4
DOCKED: REMARK    3  A    between atoms: C_6  and  C_7
DOCKED: REMARK    4  A    between atoms: C_10  and  C_11
DOCKED: REMARK    5  A    between atoms: C_11  and  N_12
DOCKED: REMARK    6  A    between atoms: N_12  and  C_13
DOCKED: REMARK    7  A    between atoms: N_12  and  C_16
DOCKED: REMARK    8  A    between atoms: C_13  and  C_14
DOCKED: REMARK    9  A    between atoms: C_14  and  O_15
DOCKED: REMARK   10  A    between atoms: C_16  and  C_17
DOCKED: REMARK   11  A    between atoms: C_17  and  C_18
DOCKED: REMARK                            x       y       z     vdW  Elec       q    Type
DOCKED: REMARK                         _______ _______ _______ _____ _____    ______ ____
DOCKED: USER                              x       y       z     vdW  Elec       q    Type
DOCKED: USER                           _______ _______ _______ _____ _____    ______ ____
DOCKED: ROOT
DOCKED: ATOM      1  N   UNL     1      36.750  17.993 122.102 -0.14 -0.00    +0.000 N 
DOCKED: ATOM      2  H   UNL     1      37.314  17.284 121.634 +0.00 -0.00    +0.000 HD
DOCKED: ENDROOT
DOCKED: BRANCH   1   3
DOCKED: ATOM      3  C   UNL     1      36.160  17.388 123.316 -0.28 -0.00    +0.000 C 
DOCKED: BRANCH   3   7
DOCKED: ATOM      4  C   UNL     1      36.484  13.077 123.110 -0.54 -0.00    +0.000 A 
DOCKED: ATOM      5  C   UNL     1      35.774  13.690 124.156 -0.33 -0.00    +0.000 A 
DOCKED: ATOM      6  C   UNL     1      35.675  15.082 124.231 -0.43 -0.00    +0.000 A 
DOCKED: ATOM      7  C   UNL     1      36.278  15.888 123.255 -0.34 -0.00    +0.000 A 
DOCKED: ATOM      8  C   UNL     1      36.969  15.282 122.197 -0.29 -0.00    +0.000 A 
DOCKED: ATOM      9  C   UNL     1      37.071  13.890 122.120 -0.40 -0.00    +0.000 A 
DOCKED: ATOM     10  CM  UNL     1      36.375  14.485 123.178 +0.00 -0.00    +0.000 AC
DOCKED: BRANCH   4  11
DOCKED: ATOM     11  C   UNL     1      36.983  10.897 122.011 -0.56 -0.00    +0.000 C 
DOCKED: ATOM     12  C   UNL     1      36.550  11.595 123.071 -0.70 -0.00    +0.000 C 
DOCKED: BRANCH  10  13
DOCKED: ATOM     13  O   UNL     1      37.063   8.845 120.860 -2.72 -0.00    +0.000 OA
DOCKED: ATOM     14  C   UNL     1      37.047   9.421 121.979 -0.63 -0.00    +0.000 C 
DOCKED: ATOM     15  N   UNL     1      37.119   8.631 123.174 -0.68 -0.00    +0.000 N 
DOCKED: ATOM     16  H   UNL     1      37.212   9.072 124.049 -0.52 -0.00    +0.000 HD
DOCKED: BRANCH  14  16
DOCKED: ATOM     17  O   UNL     1      37.062   7.280 123.101 -2.10 -0.00    +0.000 OA
DOCKED: ATOM     18  H   UNL     1      37.174   7.002 122.179 -0.15 -0.00    +0.000 HD
DOCKED: ENDBRANCH  14  16
DOCKED: ENDBRANCH  10  13
DOCKED: ENDBRANCH   4  11
DOCKED: ENDBRANCH   3   7
DOCKED: ENDBRANCH   1   3
DOCKED: BRANCH   1  18
DOCKED: ATOM     19  C   UNL     1      35.704  18.373 121.122 -0.24 -0.00    +0.000 C 
DOCKED: BRANCH  18  19
DOCKED: ATOM     20  C   UNL     1      36.091  18.001 119.682 -0.15 -0.00    +0.000 C 
DOCKED: BRANCH  19  20
DOCKED: ATOM     21  O   UNL     1      36.695  16.736 119.631 -0.16 -0.00    +0.000 OA
DOCKED: ATOM     22  H   UNL     1      36.010  16.051 119.595 -0.01 -0.00    +0.000 HD
DOCKED: ENDBRANCH  19  20
DOCKED: ENDBRANCH  18  19
DOCKED: ENDBRANCH   1  18
DOCKED: BRANCH   1  22
DOCKED: ATOM     23  C   UNL     1      37.706  19.078 122.430 -0.10 -0.00    +0.000 C 
DOCKED: BRANCH  22  23
DOCKED: ATOM     24  C   UNL     1      38.245  19.030 123.874 -0.13 -0.00    +0.000 C 
DOCKED: BRANCH  23  24
DOCKED: ATOM     25  C   UNL     1      39.689  18.632 123.876 -0.15 -0.00    +0.000 A 
DOCKED: ATOM     26  C   UNL     1      40.765  19.409 124.298 -0.14 -0.00    +0.000 A 
DOCKED: ATOM     27  N   UNL     1      41.930  18.757 124.083 -0.19 -0.00    +0.000 N 
DOCKED: ATOM     28  C   UNL     1      41.601  17.584 123.517 -0.30 -0.00    +0.000 A 
DOCKED: ATOM     29  C   UNL     1      40.243  17.474 123.368 -0.24 -0.00    +0.000 A 
DOCKED: ATOM     30  C   UNL     1      39.654  16.355 122.776 -0.25 -0.00    +0.000 A 
DOCKED: ATOM     31  C   UNL     1      40.505  15.322 122.340 -0.40 -0.00    +0.000 A 
DOCKED: ATOM     32  C   UNL     1      41.904  15.432 122.497 -0.47 -0.00    +0.000 A 
DOCKED: ATOM     33  C   UNL     1      42.467  16.577 123.091 -0.39 -0.00    +0.000 A 
DOCKED: ATOM     34  H   UNL     1      42.836  19.078 124.299 -0.55 -0.00    +0.000 HD
DOCKED: ATOM     35  CM  UNL     1      40.880  18.383 123.836 +0.00 -0.00    +0.000 AC
DOCKED: ATOM     36  CM  UNL     1      41.063  16.457 122.932 +0.00 -0.00    +0.000 AC
DOCKED: ENDBRANCH  23  24
DOCKED: ENDBRANCH  22  23
DOCKED: ENDBRANCH   1  22
DOCKED: TORSDOF 11DOCKED: TER
DOCKED: ENDMDL
________________________________________________________________________________


	BEGINNING GENETIC ALGORITHM DOCKING 36 of 100
Run: 36 Seed: 824932920 830953479 [ Run 36 of 100 GA/GALS ]
Beginning LAMARCKIAN GENETIC ALGORITHM (LGA), with a maximum of 2500000 energy evaluations.

Final-Value: -17.256


	FINAL GENETIC ALGORITHM DOCKED STATE
	_______________________________________________


Detailed state:  trans 37.036 17.074 124.262 quatxyzw -0.690803 0.706914 0.098592 0.115511 center 0.460 0.128 -0.007 ntor 11 16.0787 -171.5790 -150.2168 4.8540 -177.9987 -42.1695 -51.9233 -89.9871 176.5774 28.7744 -26.5278
State:	 37.036  17.074 124.262  -0.695  0.712  0.099 166.734     16.08 -171.58 -150.22    4.85 -178.00  -42.17  -51.92  -89.99  176.58   28.77  -26.53

DOCKED: MODEL       36
DOCKED: USER    Run = 36
DOCKED: USER    DPF = ligand_dock.biased.dpf
DOCKED: USER  
DOCKED: USER    Estimated Free Energy of Binding    =  -11.79 kcal/mol  [=(1)+(2)+(3)-(4)]
DOCKED: USER    Estimated Inhibition Constant, Ki   =    2.26 nM (nanomolar)  [Temperature = 298.15 K]
DOCKED: USER    
DOCKED: USER    (1) Final Intermolecular Energy     =  -15.08 kcal/mol
DOCKED: USER        vdW + Hbond + desolv Energy     =  -15.08 kcal/mol
DOCKED: USER        Electrostatic Energy            =   +0.00 kcal/mol
DOCKED: USER    (2) Final Total Internal Energy     =   -2.18 kcal/mol
DOCKED: USER    (3) Torsional Free Energy           =   +3.28 kcal/mol
DOCKED: USER    (4) Unbound System's Energy  [=(2)] =   -2.18 kcal/mol
DOCKED: USER    
DOCKED: USER    
DOCKED: USER    NEWDPF move ligand.dum.pdbqt
DOCKED: USER    NEWDPF about 0.460000 0.128000 -0.007000
DOCKED: USER    NEWDPF tran0 37.036368 17.073516 124.261518
DOCKED: USER    NEWDPF quaternion0 -0.690803 0.706914 0.098592 0.115511
DOCKED: USER    NEWDPF axisangle0 -0.695458 0.711678 0.099257 166.733783
DOCKED: USER    NEWDPF quat0 -0.695458 0.711678 0.099257 166.733783
DOCKED: USER    NEWDPF dihe0 16.08 -171.58 -150.22 4.85 -178.00 -42.17 -51.92 -89.99 176.58 28.77 -26.53 
DOCKED: USER  keepresnum = 1 
DOCKED: USER  
DOCKED: REMARK  Name = 
DOCKED: REMARK  11 active torsions:
DOCKED: REMARK  status: ('A' for Active; 'I' for Inactive)
DOCKED: REMARK    1  A    between atoms: C_2  and  C_5
DOCKED: REMARK    2  A    between atoms: N_3  and  O_4
DOCKED: REMARK    3  A    between atoms: C_6  and  C_7
DOCKED: REMARK    4  A    between atoms: C_10  and  C_11
DOCKED: REMARK    5  A    between atoms: C_11  and  N_12
DOCKED: REMARK    6  A    between atoms: N_12  and  C_13
DOCKED: REMARK    7  A    between atoms: N_12  and  C_16
DOCKED: REMARK    8  A    between atoms: C_13  and  C_14
DOCKED: REMARK    9  A    between atoms: C_14  and  O_15
DOCKED: REMARK   10  A    between atoms: C_16  and  C_17
DOCKED: REMARK   11  A    between atoms: C_17  and  C_18
DOCKED: REMARK                            x       y       z     vdW  Elec       q    Type
DOCKED: REMARK                         _______ _______ _______ _____ _____    ______ ____
DOCKED: USER                              x       y       z     vdW  Elec       q    Type
DOCKED: USER                           _______ _______ _______ _____ _____    ______ ____
DOCKED: ROOT
DOCKED: ATOM      1  N   UNL     1      38.244  17.976 123.873 -0.18 -0.00    +0.000 N 
DOCKED: ATOM      2  H   UNL     1      38.388  17.419 124.716 -0.02 -0.00    +0.000 HD
DOCKED: ENDROOT
DOCKED: BRANCH   1   3
DOCKED: ATOM      3  C   UNL     1      36.941  17.597 123.286 -0.22 -0.00    +0.000 C 
DOCKED: BRANCH   3   7
DOCKED: ATOM      4  C   UNL     1      36.949  13.384 122.297 -0.45 -0.00    +0.000 A 
DOCKED: ATOM      5  C   UNL     1      37.514  14.323 121.419 -0.33 -0.00    +0.000 A 
DOCKED: ATOM      6  C   UNL     1      37.506  15.685 121.730 -0.23 -0.00    +0.000 A 
DOCKED: ATOM      7  C   UNL     1      36.938  16.134 122.931 -0.28 -0.00    +0.000 A 
DOCKED: ATOM      8  C   UNL     1      36.391  15.199 123.822 -0.38 -0.00    +0.000 A 
DOCKED: ATOM      9  C   UNL     1      36.397  13.836 123.513 -0.49 -0.00    +0.000 A 
DOCKED: ATOM     10  CM  UNL     1      36.949  14.761 122.619 +0.00 -0.00    +0.000 AC
DOCKED: BRANCH   4  11
DOCKED: ATOM     11  C   UNL     1      36.878  10.946 122.807 -0.64 -0.00    +0.000 C 
DOCKED: ATOM     12  C   UNL     1      36.993  11.948 121.924 -0.58 -0.00    +0.000 C 
DOCKED: BRANCH  10  13
DOCKED: ATOM     13  O   UNL     1      36.791   9.215 121.213 -2.66 -0.00    +0.000 OA
DOCKED: ATOM     14  C   UNL     1      36.923   9.518 122.428 -0.65 -0.00    +0.000 C 
DOCKED: ATOM     15  N   UNL     1      37.138   8.476 123.390 -0.68 -0.00    +0.000 N 
DOCKED: ATOM     16  H   UNL     1      37.344   8.706 124.324 -0.55 -0.00    +0.000 HD
DOCKED: BRANCH  14  16
DOCKED: ATOM     17  O   UNL     1      37.058   7.177 123.015 -1.96 -0.00    +0.000 OA
DOCKED: ATOM     18  H   UNL     1      37.103   7.117 122.048 -0.12 -0.00    +0.000 HD
DOCKED: ENDBRANCH  14  16
DOCKED: ENDBRANCH  10  13
DOCKED: ENDBRANCH   4  11
DOCKED: ENDBRANCH   3   7
DOCKED: ENDBRANCH   1   3
DOCKED: BRANCH   1  18
DOCKED: ATOM     19  C   UNL     1      39.368  17.620 122.973 -0.20 -0.00    +0.000 C 
DOCKED: BRANCH  18  19
DOCKED: ATOM     20  C   UNL     1      40.710  17.540 123.719 -0.31 -0.00    +0.000 C 
DOCKED: BRANCH  19  20
DOCKED: ATOM     21  O   UNL     1      41.330  16.299 123.514 -0.94 -0.00    +0.000 OA
DOCKED: ATOM     22  H   UNL     1      42.239  16.438 123.207 -0.04 -0.00    +0.000 HD
DOCKED: ENDBRANCH  19  20
DOCKED: ENDBRANCH  18  19
DOCKED: ENDBRANCH   1  18
DOCKED: BRANCH   1  22
DOCKED: ATOM     23  C   UNL     1      38.256  19.382 124.342 -0.12 -0.00    +0.000 C 
DOCKED: BRANCH  22  23
DOCKED: ATOM     24  C   UNL     1      38.287  19.535 125.876 -0.14 -0.00    +0.000 C 
DOCKED: BRANCH  23  24
DOCKED: ATOM     25  C   UNL     1      39.688  19.380 126.385 -0.16 -0.00    +0.000 A 
DOCKED: ATOM     26  C   UNL     1      40.845  19.892 125.803 -0.15 -0.00    +0.000 A 
DOCKED: ATOM     27  N   UNL     1      41.937  19.488 126.492 -0.13 -0.00    +0.000 N 
DOCKED: ATOM     28  C   UNL     1      41.481  18.716 127.493 -0.32 -0.00    +0.000 A 
DOCKED: ATOM     29  C   UNL     1      40.114  18.621 127.457 -0.27 -0.00    +0.000 A 
DOCKED: ATOM     30  C   UNL     1      39.404  17.849 128.378 -0.19 -0.00    +0.000 A 
DOCKED: ATOM     31  C   UNL     1      40.140  17.169 129.366 -0.37 -0.00    +0.000 A 
DOCKED: ATOM     32  C   UNL     1      41.548  17.270 129.408 -0.38 -0.00    +0.000 A 
DOCKED: ATOM     33  C   UNL     1      42.235  18.051 128.459 -0.42 -0.00    +0.000 A 
DOCKED: ATOM     34  H   UNL     1      42.875  19.715 126.298 -0.50 -0.00    +0.000 HD
DOCKED: ATOM     35  CM  UNL     1      40.849  19.228 126.718 +0.00 -0.00    +0.000 AC
DOCKED: ATOM     36  CM  UNL     1      40.821  17.946 128.427 +0.00 -0.00    +0.000 AC
DOCKED: ENDBRANCH  23  24
DOCKED: ENDBRANCH  22  23
DOCKED: ENDBRANCH   1  22
DOCKED: TORSDOF 11DOCKED: TER
DOCKED: ENDMDL
________________________________________________________________________________


	BEGINNING GENETIC ALGORITHM DOCKING 37 of 100
Run: 37 Seed: 681200832 765982502 [ Run 37 of 100 GA/GALS ]
Beginning LAMARCKIAN GENETIC ALGORITHM (LGA), with a maximum of 2500000 energy evaluations.

Final-Value: -16.990


	FINAL GENETIC ALGORITHM DOCKED STATE
	_______________________________________________


Detailed state:  trans 36.624 16.678 122.255 quatxyzw -0.018769 0.199316 0.856700 0.475380 center 0.460 0.128 -0.007 ntor 11 9.3916 -23.1600 -56.4759 84.3987 -30.4564 -25.8854 -166.2872 137.9309 -156.6940 -7.9593 23.6381
State:	 36.624  16.678 122.255  -0.021  0.227  0.974 123.232      9.39  -23.16  -56.48   84.40  -30.46  -25.89 -166.29  137.93 -156.69   -7.96   23.64

DOCKED: MODEL       37
DOCKED: USER    Run = 37
DOCKED: USER    DPF = ligand_dock.biased.dpf
DOCKED: USER  
DOCKED: USER    Estimated Free Energy of Binding    =  -10.48 kcal/mol  [=(1)+(2)+(3)-(4)]
DOCKED: USER    Estimated Inhibition Constant, Ki   =   20.97 nM (nanomolar)  [Temperature = 298.15 K]
DOCKED: USER    
DOCKED: USER    (1) Final Intermolecular Energy     =  -13.76 kcal/mol
DOCKED: USER        vdW + Hbond + desolv Energy     =  -13.76 kcal/mol
DOCKED: USER        Electrostatic Energy            =   +0.00 kcal/mol
DOCKED: USER    (2) Final Total Internal Energy     =   -3.23 kcal/mol
DOCKED: USER    (3) Torsional Free Energy           =   +3.28 kcal/mol
DOCKED: USER    (4) Unbound System's Energy  [=(2)] =   -3.23 kcal/mol
DOCKED: USER    
DOCKED: USER    
DOCKED: USER    NEWDPF move ligand.dum.pdbqt
DOCKED: USER    NEWDPF about 0.460000 0.128000 -0.007000
DOCKED: USER    NEWDPF tran0 36.624112 16.678069 122.255369
DOCKED: USER    NEWDPF quaternion0 -0.018769 0.199316 0.856700 0.475380
DOCKED: USER    NEWDPF axisangle0 -0.021333 0.226552 0.973765 123.231836
DOCKED: USER    NEWDPF quat0 -0.021333 0.226552 0.973765 123.231836
DOCKED: USER    NEWDPF dihe0 9.39 -23.16 -56.48 84.40 -30.46 -25.89 -166.29 137.93 -156.69 -7.96 23.64 
DOCKED: USER  keepresnum = 1 
DOCKED: USER  
DOCKED: REMARK  Name = 
DOCKED: REMARK  11 active torsions:
DOCKED: REMARK  status: ('A' for Active; 'I' for Inactive)
DOCKED: REMARK    1  A    between atoms: C_2  and  C_5
DOCKED: REMARK    2  A    between atoms: N_3  and  O_4
DOCKED: REMARK    3  A    between atoms: C_6  and  C_7
DOCKED: REMARK    4  A    between atoms: C_10  and  C_11
DOCKED: REMARK    5  A    between atoms: C_11  and  N_12
DOCKED: REMARK    6  A    between atoms: N_12  and  C_13
DOCKED: REMARK    7  A    between atoms: N_12  and  C_16
DOCKED: REMARK    8  A    between atoms: C_13  and  C_14
DOCKED: REMARK    9  A    between atoms: C_14  and  O_15
DOCKED: REMARK   10  A    between atoms: C_16  and  C_17
DOCKED: REMARK   11  A    between atoms: C_17  and  C_18
DOCKED: REMARK                            x       y       z     vdW  Elec       q    Type
DOCKED: REMARK                         _______ _______ _______ _____ _____    ______ ____
DOCKED: USER                              x       y       z     vdW  Elec       q    Type
DOCKED: USER                           _______ _______ _______ _____ _____    ______ ____
DOCKED: ROOT
DOCKED: ATOM      1  N   UNL     1      36.133  18.027 121.653 -0.18 -0.00    +0.000 N 
DOCKED: ATOM      2  H   UNL     1      36.085  17.236 121.011 -0.00 -0.00    +0.000 HD
DOCKED: ENDROOT
DOCKED: BRANCH   1   3
DOCKED: ATOM      3  C   UNL     1      36.563  17.523 122.975 -0.23 -0.00    +0.000 C 
DOCKED: BRANCH   3   7
DOCKED: ATOM      4  C   UNL     1      36.488  13.196 122.978 -0.51 -0.00    +0.000 A 
DOCKED: ATOM      5  C   UNL     1      35.683  13.924 123.870 -0.47 -0.00    +0.000 A 
DOCKED: ATOM      6  C   UNL     1      35.710  15.321 123.878 -0.44 -0.00    +0.000 A 
DOCKED: ATOM      7  C   UNL     1      36.540  16.018 122.988 -0.31 -0.00    +0.000 A 
DOCKED: ATOM      8  C   UNL     1      37.331  15.298 122.081 -0.28 -0.00    +0.000 A 
DOCKED: ATOM      9  C   UNL     1      37.305  13.900 122.072 -0.40 -0.00    +0.000 A 
DOCKED: ATOM     10  CM  UNL     1      36.509  14.610 122.978 +0.00 -0.00    +0.000 AC
DOCKED: BRANCH   4  11
DOCKED: ATOM     11  C   UNL     1      37.061  10.922 122.137 -0.55 -0.00    +0.000 C 
DOCKED: ATOM     12  C   UNL     1      36.413  11.714 123.003 -0.69 -0.00    +0.000 C 
DOCKED: BRANCH  10  13
DOCKED: ATOM     13  O   UNL     1      36.771   8.834 121.088 -2.63 -0.00    +0.000 OA
DOCKED: ATOM     14  C   UNL     1      36.982   9.446 122.168 -0.64 -0.00    +0.000 C 
DOCKED: ATOM     15  N   UNL     1      37.166   8.694 123.376 -0.63 -0.00    +0.000 N 
DOCKED: ATOM     16  H   UNL     1      37.433   9.153 124.204 -0.62 -0.00    +0.000 HD
DOCKED: BRANCH  14  16
DOCKED: ATOM     17  O   UNL     1      36.973   7.353 123.378 -2.08 -0.00    +0.000 OA
DOCKED: ATOM     18  H   UNL     1      36.861   7.042 122.466 -0.08 -0.00    +0.000 HD
DOCKED: ENDBRANCH  14  16
DOCKED: ENDBRANCH  10  13
DOCKED: ENDBRANCH   4  11
DOCKED: ENDBRANCH   3   7
DOCKED: ENDBRANCH   1   3
DOCKED: BRANCH   1  18
DOCKED: ATOM     19  C   UNL     1      34.757  18.576 121.703 -0.23 -0.00    +0.000 C 
DOCKED: BRANCH  18  19
DOCKED: ATOM     20  C   UNL     1      33.687  17.475 121.634 -0.24 -0.00    +0.000 C 
DOCKED: BRANCH  19  20
DOCKED: ATOM     21  O   UNL     1      32.598  17.874 120.845 -0.52 -0.00    +0.000 OA
DOCKED: ATOM     22  H   UNL     1      31.984  18.398 121.382 -0.07 -0.00    +0.000 HD
DOCKED: ENDBRANCH  19  20
DOCKED: ENDBRANCH  18  19
DOCKED: ENDBRANCH   1  18
DOCKED: BRANCH   1  22
DOCKED: ATOM     23  C   UNL     1      37.136  18.939 121.052 -0.12 -0.00    +0.000 C 
DOCKED: BRANCH  22  23
DOCKED: ATOM     24  C   UNL     1      37.396  18.692 119.552 -0.06 -0.00    +0.000 C 
DOCKED: BRANCH  23  24
DOCKED: ATOM     25  C   UNL     1      37.676  17.240 119.306 -0.08 -0.00    +0.000 A 
DOCKED: ATOM     26  C   UNL     1      38.842  16.552 119.631 -0.10 -0.00    +0.000 A 
DOCKED: ATOM     27  N   UNL     1      38.774  15.276 119.190 -0.18 -0.00    +0.000 N 
DOCKED: ATOM     28  C   UNL     1      37.584  15.156 118.578 -0.20 -0.00    +0.000 A 
DOCKED: ATOM     29  C   UNL     1      36.887  16.336 118.622 -0.13 -0.00    +0.000 A 
DOCKED: ATOM     30  C   UNL     1      35.632  16.474 118.028 -0.14 -0.00    +0.000 A 
DOCKED: ATOM     31  C   UNL     1      35.087  15.349 117.382 -0.18 -0.00    +0.000 A 
DOCKED: ATOM     32  C   UNL     1      35.801  14.131 117.340 -0.33 -0.00    +0.000 A 
DOCKED: ATOM     33  C   UNL     1      37.069  14.027 117.943 -0.34 -0.00    +0.000 A 
DOCKED: ATOM     34  H   UNL     1      39.458  14.576 119.297 -0.09 -0.00    +0.000 HD
DOCKED: ATOM     35  CM  UNL     1      37.979  16.085 119.069 +0.00 -0.00    +0.000 AC
DOCKED: ATOM     36  CM  UNL     1      36.343  15.245 117.982 +0.00 -0.00    +0.000 AC
DOCKED: ENDBRANCH  23  24
DOCKED: ENDBRANCH  22  23
DOCKED: ENDBRANCH   1  22
DOCKED: TORSDOF 11DOCKED: TER
DOCKED: ENDMDL
________________________________________________________________________________


	BEGINNING GENETIC ALGORITHM DOCKING 38 of 100
Run: 38 Seed: 315632267 2011590508 [ Run 38 of 100 GA/GALS ]
Beginning LAMARCKIAN GENETIC ALGORITHM (LGA), with a maximum of 2500000 energy evaluations.

Final-Value: -15.659


	FINAL GENETIC ALGORITHM DOCKED STATE
	_______________________________________________


Detailed state:  trans 37.431 15.431 123.006 quatxyzw 0.936284 -0.012408 0.265611 0.229499 center 0.460 0.128 -0.007 ntor 11 6.1973 77.5380 -150.2962 -143.6013 -97.5850 171.5747 -153.4776 123.7683 -92.6077 75.3811 81.3343
State:	 37.431  15.431 123.006   0.962 -0.013  0.273 153.465      6.20   77.54 -150.30 -143.60  -97.58  171.57 -153.48  123.77  -92.61   75.38   81.33

DOCKED: MODEL       38
DOCKED: USER    Run = 38
DOCKED: USER    DPF = ligand_dock.biased.dpf
DOCKED: USER  
DOCKED: USER    Estimated Free Energy of Binding    =   -9.97 kcal/mol  [=(1)+(2)+(3)-(4)]
DOCKED: USER    Estimated Inhibition Constant, Ki   =   49.47 nM (nanomolar)  [Temperature = 298.15 K]
DOCKED: USER    
DOCKED: USER    (1) Final Intermolecular Energy     =  -13.25 kcal/mol
DOCKED: USER        vdW + Hbond + desolv Energy     =  -13.25 kcal/mol
DOCKED: USER        Electrostatic Energy            =   +0.00 kcal/mol
DOCKED: USER    (2) Final Total Internal Energy     =   -2.41 kcal/mol
DOCKED: USER    (3) Torsional Free Energy           =   +3.28 kcal/mol
DOCKED: USER    (4) Unbound System's Energy  [=(2)] =   -2.41 kcal/mol
DOCKED: USER    
DOCKED: USER    
DOCKED: USER    NEWDPF move ligand.dum.pdbqt
DOCKED: USER    NEWDPF about 0.460000 0.128000 -0.007000
DOCKED: USER    NEWDPF tran0 37.431397 15.430862 123.005947
DOCKED: USER    NEWDPF quaternion0 0.936284 -0.012408 0.265611 0.229499
DOCKED: USER    NEWDPF axisangle0 0.961959 -0.012748 0.272895 153.464891
DOCKED: USER    NEWDPF quat0 0.961959 -0.012748 0.272895 153.464891
DOCKED: USER    NEWDPF dihe0 6.20 77.54 -150.30 -143.60 -97.58 171.57 -153.48 123.77 -92.61 75.38 81.33 
DOCKED: USER  keepresnum = 1 
DOCKED: USER  
DOCKED: REMARK  Name = 
DOCKED: REMARK  11 active torsions:
DOCKED: REMARK  status: ('A' for Active; 'I' for Inactive)
DOCKED: REMARK    1  A    between atoms: C_2  and  C_5
DOCKED: REMARK    2  A    between atoms: N_3  and  O_4
DOCKED: REMARK    3  A    between atoms: C_6  and  C_7
DOCKED: REMARK    4  A    between atoms: C_10  and  C_11
DOCKED: REMARK    5  A    between atoms: C_11  and  N_12
DOCKED: REMARK    6  A    between atoms: N_12  and  C_13
DOCKED: REMARK    7  A    between atoms: N_12  and  C_16
DOCKED: REMARK    8  A    between atoms: C_13  and  C_14
DOCKED: REMARK    9  A    between atoms: C_14  and  O_15
DOCKED: REMARK   10  A    between atoms: C_16  and  C_17
DOCKED: REMARK   11  A    between atoms: C_17  and  C_18
DOCKED: REMARK                            x       y       z     vdW  Elec       q    Type
DOCKED: REMARK                         _______ _______ _______ _____ _____    ______ ____
DOCKED: USER                              x       y       z     vdW  Elec       q    Type
DOCKED: USER                           _______ _______ _______ _____ _____    ______ ____
DOCKED: ROOT
DOCKED: ATOM      1  N   UNL     1      36.501  16.676 123.096 -0.26 -0.00    +0.000 N 
DOCKED: ATOM      2  H   UNL     1      36.585  16.149 123.965 -0.02 -0.00    +0.000 HD
DOCKED: ENDROOT
DOCKED: BRANCH   1   3
DOCKED: ATOM      3  C   UNL     1      37.420  16.079 122.103 -0.26 -0.00    +0.000 C 
DOCKED: BRANCH   3   7
DOCKED: ATOM      4  C   UNL     1      36.932  11.780 122.022 -0.52 -0.00    +0.000 A 
DOCKED: ATOM      5  C   UNL     1      36.823  12.487 123.231 -0.58 -0.00    +0.000 A 
DOCKED: ATOM      6  C   UNL     1      36.988  13.874 123.263 -0.47 -0.00    +0.000 A 
DOCKED: ATOM      7  C   UNL     1      37.259  14.582 122.083 -0.34 -0.00    +0.000 A 
DOCKED: ATOM      8  C   UNL     1      37.348  13.885 120.870 -0.34 -0.00    +0.000 A 
DOCKED: ATOM      9  C   UNL     1      37.184  12.497 120.836 -0.46 -0.00    +0.000 A 
DOCKED: ATOM     10  CM  UNL     1      37.089  13.185 122.051 +0.00 -0.00    +0.000 AC
DOCKED: BRANCH   4  11
DOCKED: ATOM     11  C   UNL     1      36.229   9.639 123.086 -0.67 -0.00    +0.000 C 
DOCKED: ATOM     12  C   UNL     1      36.737  10.308 122.041 -0.63 -0.00    +0.000 C 
DOCKED: BRANCH  10  13
DOCKED: ATOM     13  O   UNL     1      37.056   7.435 123.053 -2.19 -0.00    +0.000 OA
DOCKED: ATOM     14  C   UNL     1      36.037   8.174 123.098 -0.75 -0.00    +0.000 C 
DOCKED: ATOM     15  N   UNL     1      34.738   7.571 123.186 -0.65 -0.00    +0.000 N 
DOCKED: ATOM     16  H   UNL     1      33.944   8.135 123.325 -0.08 -0.00    +0.000 HD
DOCKED: BRANCH  14  16
DOCKED: ATOM     17  O   UNL     1      34.603   6.228 123.079 -0.80 -0.00    +0.000 OA
DOCKED: ATOM     18  H   UNL     1      35.481   5.817 123.044 -0.05 -0.00    +0.000 HD
DOCKED: ENDBRANCH  14  16
DOCKED: ENDBRANCH  10  13
DOCKED: ENDBRANCH   4  11
DOCKED: ENDBRANCH   3   7
DOCKED: ENDBRANCH   1   3
DOCKED: BRANCH   1  18
DOCKED: ATOM     19  C   UNL     1      36.900  18.062 123.439 -0.20 -0.00    +0.000 C 
DOCKED: BRANCH  18  19
DOCKED: ATOM     20  C   UNL     1      37.105  18.936 122.191 -0.13 -0.00    +0.000 C 
DOCKED: BRANCH  19  20
DOCKED: ATOM     21  O   UNL     1      36.323  20.099 122.252 -0.67 -0.00    +0.000 OA
DOCKED: ATOM     22  H   UNL     1      36.025  20.241 123.164 -0.01 -0.00    +0.000 HD
DOCKED: ENDBRANCH  19  20
DOCKED: ENDBRANCH  18  19
DOCKED: ENDBRANCH   1  18
DOCKED: BRANCH   1  22
DOCKED: ATOM     23  C   UNL     1      35.080  16.527 122.701 -0.35 -0.00    +0.000 C 
DOCKED: BRANCH  22  23
DOCKED: ATOM     24  C   UNL     1      34.125  17.521 123.391 -0.40 -0.00    +0.000 C 
DOCKED: BRANCH  23  24
DOCKED: ATOM     25  C   UNL     1      34.091  17.269 124.867 -0.39 -0.00    +0.000 A 
DOCKED: ATOM     26  C   UNL     1      33.691  16.095 125.501 -0.24 -0.00    +0.000 A 
DOCKED: ATOM     27  N   UNL     1      33.715  16.254 126.844 -0.44 -0.00    +0.000 N 
DOCKED: ATOM     28  C   UNL     1      34.112  17.519 127.063 -0.26 -0.00    +0.000 A 
DOCKED: ATOM     29  C   UNL     1      34.345  18.172 125.880 -0.30 -0.00    +0.000 A 
DOCKED: ATOM     30  C   UNL     1      34.740  19.510 125.843 -0.19 -0.00    +0.000 A 
DOCKED: ATOM     31  C   UNL     1      34.906  20.178 127.071 -0.11 -0.00    +0.000 A 
DOCKED: ATOM     32  C   UNL     1      34.671  19.505 128.290 -0.09 -0.00    +0.000 A 
DOCKED: ATOM     33  C   UNL     1      34.266  18.156 128.293 -0.17 -0.00    +0.000 A 
DOCKED: ATOM     34  H   UNL     1      33.488  15.578 127.524 -0.12 -0.00    +0.000 HD
DOCKED: ATOM     35  CM  UNL     1      33.982  17.036 126.058 -0.10 -0.00    +0.000 AC
DOCKED: ATOM     36  CM  UNL     1      34.507  18.840 127.074 -0.01 -0.00    +0.000 AC
DOCKED: ENDBRANCH  23  24
DOCKED: ENDBRANCH  22  23
DOCKED: ENDBRANCH   1  22
DOCKED: TORSDOF 11DOCKED: TER
DOCKED: ENDMDL
________________________________________________________________________________


	BEGINNING GENETIC ALGORITHM DOCKING 39 of 100
Run: 39 Seed: 1479037374 1225730773 [ Run 39 of 100 GA/GALS ]
Beginning LAMARCKIAN GENETIC ALGORITHM (LGA), with a maximum of 2500000 energy evaluations.

Final-Value: -16.849


	FINAL GENETIC ALGORITHM DOCKED STATE
	_______________________________________________


Detailed state:  trans 37.901 15.468 122.585 quatxyzw -0.681564 0.289267 -0.632447 -0.227608 center 0.460 0.128 -0.007 ntor 11 -6.3451 -107.3908 -71.0262 -172.8659 -11.4147 -111.2270 -177.6495 168.2277 -148.7771 -110.6262 42.6307
State:	 37.901  15.468 122.585  -0.700  0.297 -0.649 -153.687     -6.35 -107.39  -71.03 -172.87  -11.41 -111.23 -177.65  168.23 -148.78 -110.63   42.63

DOCKED: MODEL       39
DOCKED: USER    Run = 39
DOCKED: USER    DPF = ligand_dock.biased.dpf
DOCKED: USER  
DOCKED: USER    Estimated Free Energy of Binding    =  -10.75 kcal/mol  [=(1)+(2)+(3)-(4)]
DOCKED: USER    Estimated Inhibition Constant, Ki   =   13.26 nM (nanomolar)  [Temperature = 298.15 K]
DOCKED: USER    
DOCKED: USER    (1) Final Intermolecular Energy     =  -14.03 kcal/mol
DOCKED: USER        vdW + Hbond + desolv Energy     =  -14.03 kcal/mol
DOCKED: USER        Electrostatic Energy            =   +0.00 kcal/mol
DOCKED: USER    (2) Final Total Internal Energy     =   -2.82 kcal/mol
DOCKED: USER    (3) Torsional Free Energy           =   +3.28 kcal/mol
DOCKED: USER    (4) Unbound System's Energy  [=(2)] =   -2.82 kcal/mol
DOCKED: USER    
DOCKED: USER    
DOCKED: USER    NEWDPF move ligand.dum.pdbqt
DOCKED: USER    NEWDPF about 0.460000 0.128000 -0.007000
DOCKED: USER    NEWDPF tran0 37.901467 15.467849 122.584908
DOCKED: USER    NEWDPF quaternion0 -0.681564 0.289267 -0.632447 -0.227608
DOCKED: USER    NEWDPF axisangle0 -0.699935 0.297065 -0.649495 -153.687440
DOCKED: USER    NEWDPF quat0 -0.699935 0.297065 -0.649495 -153.687440
DOCKED: USER    NEWDPF dihe0 -6.35 -107.39 -71.03 -172.87 -11.41 -111.23 -177.65 168.23 -148.78 -110.63 42.63 
DOCKED: USER  keepresnum = 1 
DOCKED: USER  
DOCKED: REMARK  Name = 
DOCKED: REMARK  11 active torsions:
DOCKED: REMARK  status: ('A' for Active; 'I' for Inactive)
DOCKED: REMARK    1  A    between atoms: C_2  and  C_5
DOCKED: REMARK    2  A    between atoms: N_3  and  O_4
DOCKED: REMARK    3  A    between atoms: C_6  and  C_7
DOCKED: REMARK    4  A    between atoms: C_10  and  C_11
DOCKED: REMARK    5  A    between atoms: C_11  and  N_12
DOCKED: REMARK    6  A    between atoms: N_12  and  C_13
DOCKED: REMARK    7  A    between atoms: N_12  and  C_16
DOCKED: REMARK    8  A    between atoms: C_13  and  C_14
DOCKED: REMARK    9  A    between atoms: C_14  and  O_15
DOCKED: REMARK   10  A    between atoms: C_16  and  C_17
DOCKED: REMARK   11  A    between atoms: C_17  and  C_18
DOCKED: REMARK                            x       y       z     vdW  Elec       q    Type
DOCKED: REMARK                         _______ _______ _______ _____ _____    ______ ____
DOCKED: USER                              x       y       z     vdW  Elec       q    Type
DOCKED: USER                           _______ _______ _______ _____ _____    ______ ____
DOCKED: ROOT
DOCKED: ATOM      1  N   UNL     1      37.994  17.014 122.745 -0.19 -0.00    +0.000 N 
DOCKED: ATOM      2  H   UNL     1      37.172  16.594 123.178 -0.00 -0.00    +0.000 HD
DOCKED: ENDROOT
DOCKED: BRANCH   1   3
DOCKED: ATOM      3  C   UNL     1      38.847  15.925 122.220 -0.28 -0.00    +0.000 C 
DOCKED: BRANCH   3   7
DOCKED: ATOM      4  C   UNL     1      36.770  12.138 122.496 -0.55 -0.00    +0.000 A 
DOCKED: ATOM      5  C   UNL     1      37.521  12.458 121.353 -0.44 -0.00    +0.000 A 
DOCKED: ATOM      6  C   UNL     1      38.185  13.683 121.255 -0.38 -0.00    +0.000 A 
DOCKED: ATOM      7  C   UNL     1      38.118  14.610 122.306 -0.37 -0.00    +0.000 A 
DOCKED: ATOM      8  C   UNL     1      37.388  14.289 123.458 -0.39 -0.00    +0.000 A 
DOCKED: ATOM      9  C   UNL     1      36.721  13.064 123.557 -0.53 -0.00    +0.000 A 
DOCKED: ATOM     10  CM  UNL     1      37.451  13.374 122.404 +0.00 -0.00    +0.000 AC
DOCKED: BRANCH   4  11
DOCKED: ATOM     11  C   UNL     1      36.661   9.711 123.048 -0.68 -0.00    +0.000 C 
DOCKED: ATOM     12  C   UNL     1      36.092  10.819 122.553 -0.68 -0.00    +0.000 C 
DOCKED: BRANCH  10  13
DOCKED: ATOM     13  O   UNL     1      36.682   7.356 123.056 -2.00 -0.00    +0.000 OA
DOCKED: ATOM     14  C   UNL     1      35.979   8.400 123.102 -0.72 -0.00    +0.000 C 
DOCKED: ATOM     15  N   UNL     1      34.556   8.282 123.233 -0.62 -0.00    +0.000 N 
DOCKED: ATOM     16  H   UNL     1      34.008   9.086 123.374 -0.48 -0.00    +0.000 HD
DOCKED: BRANCH  14  16
DOCKED: ATOM     17  O   UNL     1      33.966   7.065 123.164 -0.76 -0.00    +0.000 OA
DOCKED: ATOM     18  H   UNL     1      34.628   6.398 122.924 -0.03 -0.00    +0.000 HD
DOCKED: ENDBRANCH  14  16
DOCKED: ENDBRANCH  10  13
DOCKED: ENDBRANCH   4  11
DOCKED: ENDBRANCH   3   7
DOCKED: ENDBRANCH   1   3
DOCKED: BRANCH   1  18
DOCKED: ATOM     19  C   UNL     1      38.674  17.757 123.833 -0.22 -0.00    +0.000 C 
DOCKED: BRANCH  18  19
DOCKED: ATOM     20  C   UNL     1      40.202  17.604 123.778 -0.28 -0.00    +0.000 C 
DOCKED: BRANCH  19  20
DOCKED: ATOM     21  O   UNL     1      40.778  17.809 125.040 -0.41 -0.00    +0.000 OA
DOCKED: ATOM     22  H   UNL     1      41.740  17.892 124.948 -0.31 -0.00    +0.000 HD
DOCKED: ENDBRANCH  19  20
DOCKED: ENDBRANCH  18  19
DOCKED: ENDBRANCH   1  18
DOCKED: BRANCH   1  22
DOCKED: ATOM     23  C   UNL     1      37.454  17.870 121.661 -0.13 -0.00    +0.000 C 
DOCKED: BRANCH  22  23
DOCKED: ATOM     24  C   UNL     1      36.025  18.387 121.918 -0.22 -0.00    +0.000 C 
DOCKED: BRANCH  23  24
DOCKED: ATOM     25  C   UNL     1      35.340  17.533 122.941 -0.29 -0.00    +0.000 A 
DOCKED: ATOM     26  C   UNL     1      34.657  16.342 122.707 -0.25 -0.00    +0.000 A 
DOCKED: ATOM     27  N   UNL     1      34.098  15.887 123.851 -0.54 -0.00    +0.000 N 
DOCKED: ATOM     28  C   UNL     1      34.409  16.785 124.801 -0.43 -0.00    +0.000 A 
DOCKED: ATOM     29  C   UNL     1      35.161  17.808 124.282 -0.30 -0.00    +0.000 A 
DOCKED: ATOM     30  C   UNL     1      35.585  18.881 125.067 -0.21 -0.00    +0.000 A 
DOCKED: ATOM     31  C   UNL     1      35.225  18.881 126.427 -0.18 -0.00    +0.000 A 
DOCKED: ATOM     32  C   UNL     1      34.454  17.826 126.964 -0.21 -0.00    +0.000 A 
DOCKED: ATOM     33  C   UNL     1      34.036  16.760 126.144 -0.35 -0.00    +0.000 A 
DOCKED: ATOM     34  H   UNL     1      33.570  15.064 123.964 -0.12 -0.00    +0.000 HD
DOCKED: ATOM     35  CM  UNL     1      34.712  16.840 123.721 -0.08 -0.00    +0.000 AC
DOCKED: ATOM     36  CM  UNL     1      34.812  17.823 125.615 -0.39 -0.00    +0.000 AC
DOCKED: ENDBRANCH  23  24
DOCKED: ENDBRANCH  22  23
DOCKED: ENDBRANCH   1  22
DOCKED: TORSDOF 11DOCKED: TER
DOCKED: ENDMDL
________________________________________________________________________________


	BEGINNING GENETIC ALGORITHM DOCKING 40 of 100
Run: 40 Seed: 581122349 2090006940 [ Run 40 of 100 GA/GALS ]
Beginning LAMARCKIAN GENETIC ALGORITHM (LGA), with a maximum of 2500000 energy evaluations.

Final-Value: -17.113


	FINAL GENETIC ALGORITHM DOCKED STATE
	_______________________________________________


Detailed state:  trans 37.575 15.122 122.304 quatxyzw 0.759531 -0.643116 -0.070653 -0.067244 center 0.460 0.128 -0.007 ntor 11 0.8633 -90.1606 89.3509 54.5510 132.7376 139.6263 156.4564 -92.5641 63.4059 3.2494 17.2965
State:	 37.575  15.122 122.304   0.761 -0.645 -0.071 -172.289      0.86  -90.16   89.35   54.55  132.74  139.63  156.46  -92.56   63.41    3.25   17.30

DOCKED: MODEL       40
DOCKED: USER    Run = 40
DOCKED: USER    DPF = ligand_dock.biased.dpf
DOCKED: USER  
DOCKED: USER    Estimated Free Energy of Binding    =  -10.72 kcal/mol  [=(1)+(2)+(3)-(4)]
DOCKED: USER    Estimated Inhibition Constant, Ki   =   13.98 nM (nanomolar)  [Temperature = 298.15 K]
DOCKED: USER    
DOCKED: USER    (1) Final Intermolecular Energy     =  -14.00 kcal/mol
DOCKED: USER        vdW + Hbond + desolv Energy     =  -14.00 kcal/mol
DOCKED: USER        Electrostatic Energy            =   +0.00 kcal/mol
DOCKED: USER    (2) Final Total Internal Energy     =   -3.12 kcal/mol
DOCKED: USER    (3) Torsional Free Energy           =   +3.28 kcal/mol
DOCKED: USER    (4) Unbound System's Energy  [=(2)] =   -3.12 kcal/mol
DOCKED: USER    
DOCKED: USER    
DOCKED: USER    NEWDPF move ligand.dum.pdbqt
DOCKED: USER    NEWDPF about 0.460000 0.128000 -0.007000
DOCKED: USER    NEWDPF tran0 37.575215 15.122136 122.303572
DOCKED: USER    NEWDPF quaternion0 0.759531 -0.643116 -0.070653 -0.067244
DOCKED: USER    NEWDPF axisangle0 0.761254 -0.644575 -0.070813 -172.288639
DOCKED: USER    NEWDPF quat0 0.761254 -0.644575 -0.070813 -172.288639
DOCKED: USER    NEWDPF dihe0 0.86 -90.16 89.35 54.55 132.74 139.63 156.46 -92.56 63.41 3.25 17.30 
DOCKED: USER  keepresnum = 1 
DOCKED: USER  
DOCKED: REMARK  Name = 
DOCKED: REMARK  11 active torsions:
DOCKED: REMARK  status: ('A' for Active; 'I' for Inactive)
DOCKED: REMARK    1  A    between atoms: C_2  and  C_5
DOCKED: REMARK    2  A    between atoms: N_3  and  O_4
DOCKED: REMARK    3  A    between atoms: C_6  and  C_7
DOCKED: REMARK    4  A    between atoms: C_10  and  C_11
DOCKED: REMARK    5  A    between atoms: C_11  and  N_12
DOCKED: REMARK    6  A    between atoms: N_12  and  C_13
DOCKED: REMARK    7  A    between atoms: N_12  and  C_16
DOCKED: REMARK    8  A    between atoms: C_13  and  C_14
DOCKED: REMARK    9  A    between atoms: C_14  and  O_15
DOCKED: REMARK   10  A    between atoms: C_16  and  C_17
DOCKED: REMARK   11  A    between atoms: C_17  and  C_18
DOCKED: REMARK                            x       y       z     vdW  Elec       q    Type
DOCKED: REMARK                         _______ _______ _______ _____ _____    ______ ____
DOCKED: USER                              x       y       z     vdW  Elec       q    Type
DOCKED: USER                           _______ _______ _______ _____ _____    ______ ____
DOCKED: ROOT
DOCKED: ATOM      1  N   UNL     1      38.629  16.248 122.092 -0.20 -0.00    +0.000 N 
DOCKED: ATOM      2  H   UNL     1      38.787  15.673 122.919 -0.01 -0.00    +0.000 HD
DOCKED: ENDROOT
DOCKED: BRANCH   1   3
DOCKED: ATOM      3  C   UNL     1      37.483  15.683 121.348 -0.25 -0.00    +0.000 C 
DOCKED: BRANCH   3   7
DOCKED: ATOM      4  C   UNL     1      36.711  11.648 122.711 -0.59 -0.00    +0.000 A 
DOCKED: ATOM      5  C   UNL     1      37.275  11.877 121.445 -0.44 -0.00    +0.000 A 
DOCKED: ATOM      6  C   UNL     1      37.518  13.179 120.998 -0.42 -0.00    +0.000 A 
DOCKED: ATOM      7  C   UNL     1      37.207  14.277 121.812 -0.34 -0.00    +0.000 A 
DOCKED: ATOM      8  C   UNL     1      36.664  14.055 123.085 -0.46 -0.00    +0.000 A 
DOCKED: ATOM      9  C   UNL     1      36.419  12.754 123.535 -0.58 -0.00    +0.000 A 
DOCKED: ATOM     10  CM  UNL     1      36.966  12.965 122.264 +0.00 -0.00    +0.000 AC
DOCKED: BRANCH   4  11
DOCKED: ATOM     11  C   UNL     1      36.422   9.208 122.297 -0.72 -0.00    +0.000 C 
DOCKED: ATOM     12  C   UNL     1      36.483  10.246 123.143 -0.65 -0.00    +0.000 C 
DOCKED: BRANCH  10  13
DOCKED: ATOM     13  O   UNL     1      37.064   7.265 123.462 -2.02 -0.00    +0.000 OA
DOCKED: ATOM     14  C   UNL     1      36.196   7.815 122.734 -0.78 -0.00    +0.000 C 
DOCKED: ATOM     15  N   UNL     1      35.014   7.083 122.380 -0.61 -0.00    +0.000 N 
DOCKED: ATOM     16  H   UNL     1      34.283   7.534 121.900 -0.01 -0.00    +0.000 HD
DOCKED: BRANCH  14  16
DOCKED: ATOM     17  O   UNL     1      34.901   5.774 122.708 -0.79 -0.00    +0.000 OA
DOCKED: ATOM     18  H   UNL     1      35.696   5.491 123.185 -0.07 -0.00    +0.000 HD
DOCKED: ENDBRANCH  14  16
DOCKED: ENDBRANCH  10  13
DOCKED: ENDBRANCH   4  11
DOCKED: ENDBRANCH   3   7
DOCKED: ENDBRANCH   1   3
DOCKED: BRANCH   1  18
DOCKED: ATOM     19  C   UNL     1      39.883  16.158 121.306 -0.22 -0.00    +0.000 C 
DOCKED: BRANCH  18  19
DOCKED: ATOM     20  C   UNL     1      40.871  15.141 121.900 -0.41 -0.00    +0.000 C 
DOCKED: BRANCH  19  20
DOCKED: ATOM     21  O   UNL     1      40.305  14.458 122.986 -0.91 -0.00    +0.000 OA
DOCKED: ATOM     22  H   UNL     1      41.004  14.196 123.604 -0.07 -0.00    +0.000 HD
DOCKED: ENDBRANCH  19  20
DOCKED: ENDBRANCH  18  19
DOCKED: ENDBRANCH   1  18
DOCKED: BRANCH   1  22
DOCKED: ATOM     23  C   UNL     1      38.335  17.601 122.623 -0.16 -0.00    +0.000 C 
DOCKED: BRANCH  22  23
DOCKED: ATOM     24  C   UNL     1      36.952  18.151 122.220 -0.16 -0.00    +0.000 C 
DOCKED: BRANCH  23  24
DOCKED: ATOM     25  C   UNL     1      35.882  17.546 123.077 -0.25 -0.00    +0.000 A 
DOCKED: ATOM     26  C   UNL     1      34.905  16.641 122.671 -0.32 -0.00    +0.000 A 
DOCKED: ATOM     27  N   UNL     1      34.060  16.372 123.692 -0.47 -0.00    +0.000 N 
DOCKED: ATOM     28  C   UNL     1      34.485  17.109 124.732 -0.40 -0.00    +0.000 A 
DOCKED: ATOM     29  C   UNL     1      35.592  17.844 124.393 -0.27 -0.00    +0.000 A 
DOCKED: ATOM     30  C   UNL     1      36.205  18.713 125.298 -0.18 -0.00    +0.000 A 
DOCKED: ATOM     31  C   UNL     1      35.654  18.808 126.590 -0.16 -0.00    +0.000 A 
DOCKED: ATOM     32  C   UNL     1      34.517  18.048 126.941 -0.21 -0.00    +0.000 A 
DOCKED: ATOM     33  C   UNL     1      33.918  17.185 126.003 -0.36 -0.00    +0.000 A 
DOCKED: ATOM     34  H   UNL     1      33.289  15.760 123.676 -0.04 -0.00    +0.000 HD
DOCKED: ATOM     35  CM  UNL     1      34.955  17.080 123.713 -0.11 -0.00    +0.000 AC
DOCKED: ATOM     36  CM  UNL     1      35.062  17.951 125.660 -0.35 -0.00    +0.000 AC
DOCKED: ENDBRANCH  23  24
DOCKED: ENDBRANCH  22  23
DOCKED: ENDBRANCH   1  22
DOCKED: TORSDOF 11DOCKED: TER
DOCKED: ENDMDL
________________________________________________________________________________


	BEGINNING GENETIC ALGORITHM DOCKING 41 of 100
Run: 41 Seed: 915945034 1797477905 [ Run 41 of 100 GA/GALS ]
Beginning LAMARCKIAN GENETIC ALGORITHM (LGA), with a maximum of 2500000 energy evaluations.

Final-Value: -16.255


	FINAL GENETIC ALGORITHM DOCKED STATE
	_______________________________________________


Detailed state:  trans 38.096 17.155 122.438 quatxyzw -0.633722 0.483525 -0.540220 -0.269743 center 0.460 0.128 -0.007 ntor 11 3.0570 -93.9065 -67.3214 169.2538 -5.3953 -163.9258 -179.0781 168.1446 180.0000 -87.1237 21.2228
State:	 38.096  17.155 122.438  -0.658  0.502 -0.561 -148.702      3.06  -93.91  -67.32  169.25   -5.40 -163.93 -179.08  168.14  180.00  -87.12   21.22

DOCKED: MODEL       41
DOCKED: USER    Run = 41
DOCKED: USER    DPF = ligand_dock.biased.dpf
DOCKED: USER  
DOCKED: USER    Estimated Free Energy of Binding    =   -9.76 kcal/mol  [=(1)+(2)+(3)-(4)]
DOCKED: USER    Estimated Inhibition Constant, Ki   =   69.72 nM (nanomolar)  [Temperature = 298.15 K]
DOCKED: USER    
DOCKED: USER    (1) Final Intermolecular Energy     =  -13.04 kcal/mol
DOCKED: USER        vdW + Hbond + desolv Energy     =  -13.04 kcal/mol
DOCKED: USER        Electrostatic Energy            =   +0.00 kcal/mol
DOCKED: USER    (2) Final Total Internal Energy     =   -3.21 kcal/mol
DOCKED: USER    (3) Torsional Free Energy           =   +3.28 kcal/mol
DOCKED: USER    (4) Unbound System's Energy  [=(2)] =   -3.21 kcal/mol
DOCKED: USER    
DOCKED: USER    
DOCKED: USER    NEWDPF move ligand.dum.pdbqt
DOCKED: USER    NEWDPF about 0.460000 0.128000 -0.007000
DOCKED: USER    NEWDPF tran0 38.095515 17.154938 122.438119
DOCKED: USER    NEWDPF quaternion0 -0.633722 0.483525 -0.540220 -0.269743
DOCKED: USER    NEWDPF axisangle0 -0.658117 0.502138 -0.561016 -148.701992
DOCKED: USER    NEWDPF quat0 -0.658117 0.502138 -0.561016 -148.701992
DOCKED: USER    NEWDPF dihe0 3.06 -93.91 -67.32 169.25 -5.40 -163.93 -179.08 168.14 180.00 -87.12 21.22 
DOCKED: USER  keepresnum = 1 
DOCKED: USER  
DOCKED: REMARK  Name = 
DOCKED: REMARK  11 active torsions:
DOCKED: REMARK  status: ('A' for Active; 'I' for Inactive)
DOCKED: REMARK    1  A    between atoms: C_2  and  C_5
DOCKED: REMARK    2  A    between atoms: N_3  and  O_4
DOCKED: REMARK    3  A    between atoms: C_6  and  C_7
DOCKED: REMARK    4  A    between atoms: C_10  and  C_11
DOCKED: REMARK    5  A    between atoms: C_11  and  N_12
DOCKED: REMARK    6  A    between atoms: N_12  and  C_13
DOCKED: REMARK    7  A    between atoms: N_12  and  C_16
DOCKED: REMARK    8  A    between atoms: C_13  and  C_14
DOCKED: REMARK    9  A    between atoms: C_14  and  O_15
DOCKED: REMARK   10  A    between atoms: C_16  and  C_17
DOCKED: REMARK   11  A    between atoms: C_17  and  C_18
DOCKED: REMARK                            x       y       z     vdW  Elec       q    Type
DOCKED: REMARK                         _______ _______ _______ _____ _____    ______ ____
DOCKED: USER                              x       y       z     vdW  Elec       q    Type
DOCKED: USER                           _______ _______ _______ _____ _____    ______ ____
DOCKED: ROOT
DOCKED: ATOM      1  N   UNL     1      38.535  18.484 123.120 -0.11 -0.00    +0.000 N 
DOCKED: ATOM      2  H   UNL     1      37.683  18.075 123.504 +0.00 -0.00    +0.000 HD
DOCKED: ENDROOT
DOCKED: BRANCH   1   3
DOCKED: ATOM      3  C   UNL     1      39.081  17.552 122.110 -0.14 -0.00    +0.000 C 
DOCKED: BRANCH   3   7
DOCKED: ATOM      4  C   UNL     1      37.114  13.710 122.427 -0.44 -0.00    +0.000 A 
DOCKED: ATOM      5  C   UNL     1      37.819  14.056 121.262 -0.36 -0.00    +0.000 A 
DOCKED: ATOM      6  C   UNL     1      38.448  15.299 121.152 -0.24 -0.00    +0.000 A 
DOCKED: ATOM      7  C   UNL     1      38.390  16.217 122.210 -0.21 -0.00    +0.000 A 
DOCKED: ATOM      8  C   UNL     1      37.706  15.870 123.384 -0.27 -0.00    +0.000 A 
DOCKED: ATOM      9  C   UNL     1      37.075  14.627 123.495 -0.38 -0.00    +0.000 A 
DOCKED: ATOM     10  CM  UNL     1      37.759  14.963 122.322 +0.00 -0.00    +0.000 AC
DOCKED: BRANCH   4  11
DOCKED: ATOM     11  C   UNL     1      37.012  11.261 121.977 -0.56 -0.00    +0.000 C 
DOCKED: ATOM     12  C   UNL     1      36.472  12.373 122.496 -0.59 -0.00    +0.000 C 
DOCKED: BRANCH  10  13
DOCKED: ATOM     13  O   UNL     1      36.700   9.057 121.208 -2.63 -0.00    +0.000 OA
DOCKED: ATOM     14  C   UNL     1      36.367   9.933 122.050 -0.62 -0.00    +0.000 C 
DOCKED: ATOM     15  N   UNL     1      35.404   9.603 123.060 -0.60 -0.00    +0.000 N 
DOCKED: ATOM     16  H   UNL     1      35.213  10.242 123.783 -0.31 -0.00    +0.000 HD
DOCKED: BRANCH  14  16
DOCKED: ATOM     17  O   UNL     1      34.756   8.414 123.020 -0.70 -0.00    +0.000 OA
DOCKED: ATOM     18  H   UNL     1      35.093   7.888 122.278 +0.00 -0.00    +0.000 HD
DOCKED: ENDBRANCH  14  16
DOCKED: ENDBRANCH  10  13
DOCKED: ENDBRANCH   4  11
DOCKED: ENDBRANCH   3   7
DOCKED: ENDBRANCH   1   3
DOCKED: BRANCH   1  18
DOCKED: ATOM     19  C   UNL     1      39.453  18.630 124.275 -0.19 -0.00    +0.000 C 
DOCKED: BRANCH  18  19
DOCKED: ATOM     20  C   UNL     1      40.770  17.863 124.074 -0.31 -0.00    +0.000 C 
DOCKED: BRANCH  19  20
DOCKED: ATOM     21  O   UNL     1      41.319  17.469 125.303 -0.48 -0.00    +0.000 OA
DOCKED: ATOM     22  H   UNL     1      42.278  17.360 125.210 -0.55 -0.00    +0.000 HD
DOCKED: ENDBRANCH  19  20
DOCKED: ENDBRANCH  18  19
DOCKED: ENDBRANCH   1  18
DOCKED: BRANCH   1  22
DOCKED: ATOM     23  C   UNL     1      38.099  19.766 122.516 -0.07 -0.00    +0.000 C 
DOCKED: BRANCH  22  23
DOCKED: ATOM     24  C   UNL     1      36.577  20.004 122.570 -0.16 -0.00    +0.000 C 
DOCKED: BRANCH  23  24
DOCKED: ATOM     25  C   UNL     1      35.855  18.705 122.765 -0.21 -0.00    +0.000 A 
DOCKED: ATOM     26  C   UNL     1      35.458  17.817 121.769 -0.25 -0.00    +0.000 A 
DOCKED: ATOM     27  N   UNL     1      34.762  16.789 122.305 -0.33 -0.00    +0.000 N 
DOCKED: ATOM     28  C   UNL     1      34.703  17.028 123.627 -0.39 -0.00    +0.000 A 
DOCKED: ATOM     29  C   UNL     1      35.353  18.192 123.945 -0.27 -0.00    +0.000 A 
DOCKED: ATOM     30  C   UNL     1      35.407  18.672 125.254 -0.22 -0.00    +0.000 A 
DOCKED: ATOM     31  C   UNL     1      34.776  17.911 126.256 -0.23 -0.00    +0.000 A 
DOCKED: ATOM     32  C   UNL     1      34.110  16.709 125.930 -0.35 -0.00    +0.000 A 
DOCKED: ATOM     33  C   UNL     1      34.067  16.256 124.598 -0.45 -0.00    +0.000 A 
DOCKED: ATOM     34  H   UNL     1      34.376  16.021 121.824 +0.05 -0.00    +0.000 HD
DOCKED: ATOM     35  CM  UNL     1      35.211  17.677 122.864 -0.02 -0.00    +0.000 AC
DOCKED: ATOM     36  CM  UNL     1      34.736  17.461 124.935 -0.45 -0.00    +0.000 AC
DOCKED: ENDBRANCH  23  24
DOCKED: ENDBRANCH  22  23
DOCKED: ENDBRANCH   1  22
DOCKED: TORSDOF 11DOCKED: TER
DOCKED: ENDMDL
________________________________________________________________________________


	BEGINNING GENETIC ALGORITHM DOCKING 42 of 100
Run: 42 Seed: 31829752 1590392447 [ Run 42 of 100 GA/GALS ]
Beginning LAMARCKIAN GENETIC ALGORITHM (LGA), with a maximum of 2500000 energy evaluations.

Final-Value: -16.743


	FINAL GENETIC ALGORITHM DOCKED STATE
	_______________________________________________


Detailed state:  trans 37.173 17.298 121.271 quatxyzw 0.672008 -0.710660 0.074093 -0.194620 center 0.460 0.128 -0.007 ntor 11 17.1319 6.8480 126.1062 36.7159 174.9449 172.0300 -11.4664 -155.8831 146.7067 -179.0108 -28.5805
State:	 37.173  17.298 121.271   0.685 -0.725  0.076 -157.555     17.13    6.85  126.11   36.72  174.94  172.03  -11.47 -155.88  146.71 -179.01  -28.58

DOCKED: MODEL       42
DOCKED: USER    Run = 42
DOCKED: USER    DPF = ligand_dock.biased.dpf
DOCKED: USER  
DOCKED: USER    Estimated Free Energy of Binding    =   -9.44 kcal/mol  [=(1)+(2)+(3)-(4)]
DOCKED: USER    Estimated Inhibition Constant, Ki   =  120.85 nM (nanomolar)  [Temperature = 298.15 K]
DOCKED: USER    
DOCKED: USER    (1) Final Intermolecular Energy     =  -12.72 kcal/mol
DOCKED: USER        vdW + Hbond + desolv Energy     =  -12.72 kcal/mol
DOCKED: USER        Electrostatic Energy            =   +0.00 kcal/mol
DOCKED: USER    (2) Final Total Internal Energy     =   -4.02 kcal/mol
DOCKED: USER    (3) Torsional Free Energy           =   +3.28 kcal/mol
DOCKED: USER    (4) Unbound System's Energy  [=(2)] =   -4.02 kcal/mol
DOCKED: USER    
DOCKED: USER    
DOCKED: USER    NEWDPF move ligand.dum.pdbqt
DOCKED: USER    NEWDPF about 0.460000 0.128000 -0.007000
DOCKED: USER    NEWDPF tran0 37.172603 17.297889 121.270696
DOCKED: USER    NEWDPF quaternion0 0.672008 -0.710660 0.074093 -0.194620
DOCKED: USER    NEWDPF axisangle0 0.685109 -0.724514 0.075537 -157.554926
DOCKED: USER    NEWDPF quat0 0.685109 -0.724514 0.075537 -157.554926
DOCKED: USER    NEWDPF dihe0 17.13 6.85 126.11 36.72 174.94 172.03 -11.47 -155.88 146.71 -179.01 -28.58 
DOCKED: USER  keepresnum = 1 
DOCKED: USER  
DOCKED: REMARK  Name = 
DOCKED: REMARK  11 active torsions:
DOCKED: REMARK  status: ('A' for Active; 'I' for Inactive)
DOCKED: REMARK    1  A    between atoms: C_2  and  C_5
DOCKED: REMARK    2  A    between atoms: N_3  and  O_4
DOCKED: REMARK    3  A    between atoms: C_6  and  C_7
DOCKED: REMARK    4  A    between atoms: C_10  and  C_11
DOCKED: REMARK    5  A    between atoms: C_11  and  N_12
DOCKED: REMARK    6  A    between atoms: N_12  and  C_13
DOCKED: REMARK    7  A    between atoms: N_12  and  C_16
DOCKED: REMARK    8  A    between atoms: C_13  and  C_14
DOCKED: REMARK    9  A    between atoms: C_14  and  O_15
DOCKED: REMARK   10  A    between atoms: C_16  and  C_17
DOCKED: REMARK   11  A    between atoms: C_17  and  C_18
DOCKED: REMARK                            x       y       z     vdW  Elec       q    Type
DOCKED: REMARK                         _______ _______ _______ _____ _____    ______ ____
DOCKED: USER                              x       y       z     vdW  Elec       q    Type
DOCKED: USER                           _______ _______ _______ _____ _____    ______ ____
DOCKED: ROOT
DOCKED: ATOM      1  N   UNL     1      38.419  18.060 120.733 -0.05 -0.00    +0.000 N 
DOCKED: ATOM      2  H   UNL     1      38.455  17.842 121.729 +0.00 -0.00    +0.000 HD
DOCKED: ENDROOT
DOCKED: BRANCH   1   3
DOCKED: ATOM      3  C   UNL     1      37.200  17.441 120.169 -0.12 -0.00    +0.000 C 
DOCKED: BRANCH   3   7
DOCKED: ATOM      4  C   UNL     1      37.363  13.134 120.558 -0.42 -0.00    +0.000 A 
DOCKED: ATOM      5  C   UNL     1      37.203  13.947 121.693 -0.36 -0.00    +0.000 A 
DOCKED: ATOM      6  C   UNL     1      37.158  15.339 121.572 -0.24 -0.00    +0.000 A 
DOCKED: ATOM      7  C   UNL     1      37.266  15.944 120.312 -0.17 -0.00    +0.000 A 
DOCKED: ATOM      8  C   UNL     1      37.406  15.138 119.174 -0.21 -0.00    +0.000 A 
DOCKED: ATOM      9  C   UNL     1      37.451  13.745 119.292 -0.35 -0.00    +0.000 A 
DOCKED: ATOM     10  CM  UNL     1      37.308  14.541 120.433 +0.00 -0.00    +0.000 AC
DOCKED: BRANCH   4  11
DOCKED: ATOM     11  C   UNL     1      37.031  11.044 121.873 -0.54 -0.00    +0.000 C 
DOCKED: ATOM     12  C   UNL     1      37.394  11.661 120.740 -0.48 -0.00    +0.000 C 
DOCKED: BRANCH  10  13
DOCKED: ATOM     13  O   UNL     1      37.036   8.850 121.019 -2.70 -0.00    +0.000 OA
DOCKED: ATOM     14  C   UNL     1      37.063   9.577 122.047 -0.61 -0.00    +0.000 C 
DOCKED: ATOM     15  N   UNL     1      37.153   8.959 123.338 -0.59 -0.00    +0.000 N 
DOCKED: ATOM     16  H   UNL     1      37.279   9.515 124.140 -0.58 -0.00    +0.000 HD
DOCKED: BRANCH  14  16
DOCKED: ATOM     17  O   UNL     1      37.065   7.613 123.456 -2.24 -0.00    +0.000 OA
DOCKED: ATOM     18  H   UNL     1      37.214   7.203 122.590 -0.14 -0.00    +0.000 HD
DOCKED: ENDBRANCH  14  16
DOCKED: ENDBRANCH  10  13
DOCKED: ENDBRANCH   4  11
DOCKED: ENDBRANCH   3   7
DOCKED: ENDBRANCH   1   3
DOCKED: BRANCH   1  18
DOCKED: ATOM     19  C   UNL     1      39.647  17.463 120.155 -0.08 -0.00    +0.000 C 
DOCKED: BRANCH  18  19
DOCKED: ATOM     20  C   UNL     1      40.635  17.000 121.238 -0.16 -0.00    +0.000 C 
DOCKED: BRANCH  19  20
DOCKED: ATOM     21  O   UNL     1      39.967  16.369 122.297 -0.25 -0.00    +0.000 OA
DOCKED: ATOM     22  H   UNL     1      39.272  16.954 122.636 +0.00 -0.00    +0.000 HD
DOCKED: ENDBRANCH  19  20
DOCKED: ENDBRANCH  18  19
DOCKED: ENDBRANCH   1  18
DOCKED: BRANCH   1  22
DOCKED: ATOM     23  C   UNL     1      38.370  19.541 120.673 -0.04 -0.00    +0.000 C 
DOCKED: BRANCH  22  23
DOCKED: ATOM     24  C   UNL     1      37.530  20.191 121.791 -0.10 -0.00    +0.000 C 
DOCKED: BRANCH  23  24
DOCKED: ATOM     25  C   UNL     1      37.274  19.203 122.888 -0.11 -0.00    +0.000 A 
DOCKED: ATOM     26  C   UNL     1      38.146  18.863 123.920 -0.12 -0.00    +0.000 A 
DOCKED: ATOM     27  N   UNL     1      37.613  17.880 124.681 -0.19 -0.00    +0.000 N 
DOCKED: ATOM     28  C   UNL     1      36.422  17.587 124.132 -0.23 -0.00    +0.000 A 
DOCKED: ATOM     29  C   UNL     1      36.183  18.370 123.032 -0.19 -0.00    +0.000 A 
DOCKED: ATOM     30  C   UNL     1      35.021  18.235 122.270 -0.27 -0.00    +0.000 A 
DOCKED: ATOM     31  C   UNL     1      34.083  17.266 122.673 -0.34 -0.00    +0.000 A 
DOCKED: ATOM     32  C   UNL     1      34.326  16.463 123.809 -0.44 -0.00    +0.000 A 
DOCKED: ATOM     33  C   UNL     1      35.512  16.619 124.553 -0.33 -0.00    +0.000 A 
DOCKED: ATOM     34  H   UNL     1      38.017  17.464 125.477 +0.01 -0.00    +0.000 HD
DOCKED: ATOM     35  CM  UNL     1      37.143  18.364 123.761 +0.00 -0.00    +0.000 AC
DOCKED: ATOM     36  CM  UNL     1      35.257  17.423 123.412 -0.07 -0.00    +0.000 AC
DOCKED: ENDBRANCH  23  24
DOCKED: ENDBRANCH  22  23
DOCKED: ENDBRANCH   1  22
DOCKED: TORSDOF 11DOCKED: TER
DOCKED: ENDMDL
________________________________________________________________________________


	BEGINNING GENETIC ALGORITHM DOCKING 43 of 100
Run: 43 Seed: 1867269779 798529810 [ Run 43 of 100 GA/GALS ]
Beginning LAMARCKIAN GENETIC ALGORITHM (LGA), with a maximum of 2500000 energy evaluations.

Final-Value: -15.765


	FINAL GENETIC ALGORITHM DOCKED STATE
	_______________________________________________


Detailed state:  trans 36.930 16.639 119.254 quatxyzw -0.248179 0.037007 -0.749917 -0.612096 center 0.460 0.128 -0.007 ntor 11 17.2690 39.4720 159.6652 -168.7827 171.5521 34.6388 -170.6202 134.0592 173.4320 149.5853 2.4701
State:	 36.930  16.639 119.254  -0.314  0.047 -0.948 -104.518     17.27   39.47  159.67 -168.78  171.55   34.64 -170.62  134.06  173.43  149.59    2.47

DOCKED: MODEL       43
DOCKED: USER    Run = 43
DOCKED: USER    DPF = ligand_dock.biased.dpf
DOCKED: USER  
DOCKED: USER    Estimated Free Energy of Binding    =   -9.46 kcal/mol  [=(1)+(2)+(3)-(4)]
DOCKED: USER    Estimated Inhibition Constant, Ki   =  116.32 nM (nanomolar)  [Temperature = 298.15 K]
DOCKED: USER    
DOCKED: USER    (1) Final Intermolecular Energy     =  -12.74 kcal/mol
DOCKED: USER        vdW + Hbond + desolv Energy     =  -12.74 kcal/mol
DOCKED: USER        Electrostatic Energy            =   +0.00 kcal/mol
DOCKED: USER    (2) Final Total Internal Energy     =   -3.02 kcal/mol
DOCKED: USER    (3) Torsional Free Energy           =   +3.28 kcal/mol
DOCKED: USER    (4) Unbound System's Energy  [=(2)] =   -3.02 kcal/mol
DOCKED: USER    
DOCKED: USER    
DOCKED: USER    NEWDPF move ligand.dum.pdbqt
DOCKED: USER    NEWDPF about 0.460000 0.128000 -0.007000
DOCKED: USER    NEWDPF tran0 36.929953 16.638662 119.254007
DOCKED: USER    NEWDPF quaternion0 -0.248179 0.037007 -0.749917 -0.612096
DOCKED: USER    NEWDPF axisangle0 -0.313840 0.046798 -0.948322 -104.517568
DOCKED: USER    NEWDPF quat0 -0.313840 0.046798 -0.948322 -104.517568
DOCKED: USER    NEWDPF dihe0 17.27 39.47 159.67 -168.78 171.55 34.64 -170.62 134.06 173.43 149.59 2.47 
DOCKED: USER  keepresnum = 1 
DOCKED: USER  
DOCKED: REMARK  Name = 
DOCKED: REMARK  11 active torsions:
DOCKED: REMARK  status: ('A' for Active; 'I' for Inactive)
DOCKED: REMARK    1  A    between atoms: C_2  and  C_5
DOCKED: REMARK    2  A    between atoms: N_3  and  O_4
DOCKED: REMARK    3  A    between atoms: C_6  and  C_7
DOCKED: REMARK    4  A    between atoms: C_10  and  C_11
DOCKED: REMARK    5  A    between atoms: C_11  and  N_12
DOCKED: REMARK    6  A    between atoms: N_12  and  C_13
DOCKED: REMARK    7  A    between atoms: N_12  and  C_16
DOCKED: REMARK    8  A    between atoms: C_13  and  C_14
DOCKED: REMARK    9  A    between atoms: C_14  and  O_15
DOCKED: REMARK   10  A    between atoms: C_16  and  C_17
DOCKED: REMARK   11  A    between atoms: C_17  and  C_18
DOCKED: REMARK                            x       y       z     vdW  Elec       q    Type
DOCKED: REMARK                         _______ _______ _______ _____ _____    ______ ____
DOCKED: USER                              x       y       z     vdW  Elec       q    Type
DOCKED: USER                           _______ _______ _______ _____ _____    ______ ____
DOCKED: ROOT
DOCKED: ATOM      1  N   UNL     1      35.925  17.821 119.388 -0.13 -0.00    +0.000 N 
DOCKED: ATOM      2  H   UNL     1      35.594  17.049 118.809 -0.01 -0.00    +0.000 HD
DOCKED: ENDROOT
DOCKED: BRANCH   1   3
DOCKED: ATOM      3  C   UNL     1      37.228  17.434 119.972 -0.11 -0.00    +0.000 C 
DOCKED: BRANCH   3   7
DOCKED: ATOM      4  C   UNL     1      37.398  13.156 120.606 -0.42 -0.00    +0.000 A 
DOCKED: ATOM      5  C   UNL     1      36.774  13.683 119.463 -0.29 -0.00    +0.000 A 
DOCKED: ATOM      6  C   UNL     1      36.709  15.064 119.259 -0.20 -0.00    +0.000 A 
DOCKED: ATOM      7  C   UNL     1      37.275  15.945 120.192 -0.17 -0.00    +0.000 A 
DOCKED: ATOM      8  C   UNL     1      37.918  15.425 121.323 -0.23 -0.00    +0.000 A 
DOCKED: ATOM      9  C   UNL     1      37.983  14.044 121.531 -0.37 -0.00    +0.000 A 
DOCKED: ATOM     10  CM  UNL     1      37.343  14.553 120.396 +0.00 -0.00    +0.000 AC
DOCKED: BRANCH   4  11
DOCKED: ATOM     11  C   UNL     1      36.979  11.037 121.847 -0.55 -0.00    +0.000 C 
DOCKED: ATOM     12  C   UNL     1      37.449  11.682 120.770 -0.49 -0.00    +0.000 C 
DOCKED: BRANCH  10  13
DOCKED: ATOM     13  O   UNL     1      37.076   8.855 120.966 -2.70 -0.00    +0.000 OA
DOCKED: ATOM     14  C   UNL     1      37.033   9.568 122.003 -0.62 -0.00    +0.000 C 
DOCKED: ATOM     15  N   UNL     1      37.066   8.935 123.290 -0.63 -0.00    +0.000 N 
DOCKED: ATOM     16  H   UNL     1      37.137   9.482 124.104 -0.56 -0.00    +0.000 HD
DOCKED: BRANCH  14  16
DOCKED: ATOM     17  O   UNL     1      37.000   7.585 123.385 -2.21 -0.00    +0.000 OA
DOCKED: ATOM     18  H   UNL     1      37.206   7.190 122.524 -0.14 -0.00    +0.000 HD
DOCKED: ENDBRANCH  14  16
DOCKED: ENDBRANCH  10  13
DOCKED: ENDBRANCH   4  11
DOCKED: ENDBRANCH   3   7
DOCKED: ENDBRANCH   1   3
DOCKED: BRANCH   1  18
DOCKED: ATOM     19  C   UNL     1      34.892  17.996 120.437 -0.27 -0.00    +0.000 C 
DOCKED: BRANCH  18  19
DOCKED: ATOM     20  C   UNL     1      35.500  18.373 121.797 -0.27 -0.00    +0.000 C 
DOCKED: BRANCH  19  20
DOCKED: ATOM     21  O   UNL     1      35.913  19.713 121.815 -0.75 -0.00    +0.000 OA
DOCKED: ATOM     22  H   UNL     1      36.045  20.023 120.906 -0.01 -0.00    +0.000 HD
DOCKED: ENDBRANCH  19  20
DOCKED: ENDBRANCH  18  19
DOCKED: ENDBRANCH   1  18
DOCKED: BRANCH   1  22
DOCKED: ATOM     23  C   UNL     1      36.052  18.965 118.453 -0.09 -0.00    +0.000 C 
DOCKED: BRANCH  22  23
DOCKED: ATOM     24  C   UNL     1      35.915  18.583 116.966 -0.04 -0.00    +0.000 C 
DOCKED: BRANCH  23  24
DOCKED: ATOM     25  C   UNL     1      36.887  17.498 116.617 -0.05 -0.00    +0.000 A 
DOCKED: ATOM     26  C   UNL     1      38.252  17.647 116.383 -0.04 -0.00    +0.000 A 
DOCKED: ATOM     27  N   UNL     1      38.799  16.466 116.016 -0.10 -0.00    +0.000 N 
DOCKED: ATOM     28  C   UNL     1      37.791  15.577 116.002 -0.14 -0.00    +0.000 A 
DOCKED: ATOM     29  C   UNL     1      36.607  16.171 116.357 -0.10 -0.00    +0.000 A 
DOCKED: ATOM     30  C   UNL     1      35.407  15.459 116.389 -0.18 -0.00    +0.000 A 
DOCKED: ATOM     31  C   UNL     1      35.447  14.093 116.053 -0.29 -0.00    +0.000 A 
DOCKED: ATOM     32  C   UNL     1      36.667  13.479 115.692 -0.26 -0.00    +0.000 A 
DOCKED: ATOM     33  C   UNL     1      37.859  14.227 115.662 -0.31 -0.00    +0.000 A 
DOCKED: ATOM     34  H   UNL     1      39.744  16.294 115.803 +0.00 -0.00    +0.000 HD
DOCKED: ATOM     35  CM  UNL     1      37.703  16.665 116.266 +0.00 -0.00    +0.000 AC
DOCKED: ATOM     36  CM  UNL     1      36.630  14.834 116.026 +0.00 -0.00    +0.000 AC
DOCKED: ENDBRANCH  23  24
DOCKED: ENDBRANCH  22  23
DOCKED: ENDBRANCH   1  22
DOCKED: TORSDOF 11DOCKED: TER
DOCKED: ENDMDL
________________________________________________________________________________


	BEGINNING GENETIC ALGORITHM DOCKING 44 of 100
Run: 44 Seed: 1034315543 591900352 [ Run 44 of 100 GA/GALS ]
Beginning LAMARCKIAN GENETIC ALGORITHM (LGA), with a maximum of 2500000 energy evaluations.

Final-Value: -17.863


	FINAL GENETIC ALGORITHM DOCKED STATE
	_______________________________________________


Detailed state:  trans 36.831 16.638 122.500 quatxyzw -0.079270 -0.198760 -0.887647 -0.407791 center 0.460 0.128 -0.007 ntor 11 12.4642 -43.8505 88.5379 26.3417 16.5422 -113.6917 -149.8919 131.5234 -164.6601 40.8891 37.6917
State:	 36.831  16.638 122.500  -0.087 -0.218 -0.972 -131.868     12.46  -43.85   88.54   26.34   16.54 -113.69 -149.89  131.52 -164.66   40.89   37.69

DOCKED: MODEL       44
DOCKED: USER    Run = 44
DOCKED: USER    DPF = ligand_dock.biased.dpf
DOCKED: USER  
DOCKED: USER    Estimated Free Energy of Binding    =  -10.22 kcal/mol  [=(1)+(2)+(3)-(4)]
DOCKED: USER    Estimated Inhibition Constant, Ki   =   32.03 nM (nanomolar)  [Temperature = 298.15 K]
DOCKED: USER    
DOCKED: USER    (1) Final Intermolecular Energy     =  -13.51 kcal/mol
DOCKED: USER        vdW + Hbond + desolv Energy     =  -13.51 kcal/mol
DOCKED: USER        Electrostatic Energy            =   +0.00 kcal/mol
DOCKED: USER    (2) Final Total Internal Energy     =   -4.36 kcal/mol
DOCKED: USER    (3) Torsional Free Energy           =   +3.28 kcal/mol
DOCKED: USER    (4) Unbound System's Energy  [=(2)] =   -4.36 kcal/mol
DOCKED: USER    
DOCKED: USER    
DOCKED: USER    NEWDPF move ligand.dum.pdbqt
DOCKED: USER    NEWDPF about 0.460000 0.128000 -0.007000
DOCKED: USER    NEWDPF tran0 36.830567 16.637890 122.500324
DOCKED: USER    NEWDPF quaternion0 -0.079270 -0.198760 -0.887647 -0.407791
DOCKED: USER    NEWDPF axisangle0 -0.086816 -0.217681 -0.972151 -131.867678
DOCKED: USER    NEWDPF quat0 -0.086816 -0.217681 -0.972151 -131.867678
DOCKED: USER    NEWDPF dihe0 12.46 -43.85 88.54 26.34 16.54 -113.69 -149.89 131.52 -164.66 40.89 37.69 
DOCKED: USER  keepresnum = 1 
DOCKED: USER  
DOCKED: REMARK  Name = 
DOCKED: REMARK  11 active torsions:
DOCKED: REMARK  status: ('A' for Active; 'I' for Inactive)
DOCKED: REMARK    1  A    between atoms: C_2  and  C_5
DOCKED: REMARK    2  A    between atoms: N_3  and  O_4
DOCKED: REMARK    3  A    between atoms: C_6  and  C_7
DOCKED: REMARK    4  A    between atoms: C_10  and  C_11
DOCKED: REMARK    5  A    between atoms: C_11  and  N_12
DOCKED: REMARK    6  A    between atoms: N_12  and  C_13
DOCKED: REMARK    7  A    between atoms: N_12  and  C_16
DOCKED: REMARK    8  A    between atoms: C_13  and  C_14
DOCKED: REMARK    9  A    between atoms: C_14  and  O_15
DOCKED: REMARK   10  A    between atoms: C_16  and  C_17
DOCKED: REMARK   11  A    between atoms: C_17  and  C_18
DOCKED: REMARK                            x       y       z     vdW  Elec       q    Type
DOCKED: REMARK                         _______ _______ _______ _____ _____    ______ ____
DOCKED: USER                              x       y       z     vdW  Elec       q    Type
DOCKED: USER                           _______ _______ _______ _____ _____    ______ ____
DOCKED: ROOT
DOCKED: ATOM      1  N   UNL     1      36.502  18.014 121.850 -0.16 -0.00    +0.000 N 
DOCKED: ATOM      2  H   UNL     1      36.219  17.207 121.294 -0.00 -0.00    +0.000 HD
DOCKED: ENDROOT
DOCKED: BRANCH   1   3
DOCKED: ATOM      3  C   UNL     1      37.028  17.524 123.143 -0.22 -0.00    +0.000 C 
DOCKED: BRANCH   3   7
DOCKED: ATOM      4  C   UNL     1      37.122  13.197 123.142 -0.52 -0.00    +0.000 A 
DOCKED: ATOM      5  C   UNL     1      35.897  13.883 123.187 -0.38 -0.00    +0.000 A 
DOCKED: ATOM      6  C   UNL     1      35.863  15.280 123.196 -0.38 -0.00    +0.000 A 
DOCKED: ATOM      7  C   UNL     1      37.054  16.018 123.153 -0.29 -0.00    +0.000 A 
DOCKED: ATOM      8  C   UNL     1      38.279  15.339 123.087 -0.30 -0.00    +0.000 A 
DOCKED: ATOM      9  C   UNL     1      38.316  13.942 123.079 -0.39 -0.00    +0.000 A 
DOCKED: ATOM     10  CM  UNL     1      37.089  14.610 123.141 +0.00 -0.00    +0.000 AC
DOCKED: BRANCH   4  11
DOCKED: ATOM     11  C   UNL     1      37.007  10.984 122.003 -0.56 -0.00    +0.000 C 
DOCKED: ATOM     12  C   UNL     1      37.103  11.713 123.124 -0.64 -0.00    +0.000 C 
DOCKED: BRANCH  10  13
DOCKED: ATOM     13  O   UNL     1      36.890   8.915 120.885 -2.67 -0.00    +0.000 OA
DOCKED: ATOM     14  C   UNL     1      36.989   9.506 121.992 -0.63 -0.00    +0.000 C 
DOCKED: ATOM     15  N   UNL     1      37.108   8.729 123.192 -0.67 -0.00    +0.000 N 
DOCKED: ATOM     16  H   UNL     1      37.289   9.176 124.050 -0.54 -0.00    +0.000 HD
DOCKED: BRANCH  14  16
DOCKED: ATOM     17  O   UNL     1      36.972   7.382 123.147 -2.14 -0.00    +0.000 OA
DOCKED: ATOM     18  H   UNL     1      36.995   7.087 122.223 -0.10 -0.00    +0.000 HD
DOCKED: ENDBRANCH  14  16
DOCKED: ENDBRANCH  10  13
DOCKED: ENDBRANCH   4  11
DOCKED: ENDBRANCH   3   7
DOCKED: ENDBRANCH   1   3
DOCKED: BRANCH   1  18
DOCKED: ATOM     19  C   UNL     1      35.268  18.815 122.036 -0.21 -0.00    +0.000 C 
DOCKED: BRANCH  18  19
DOCKED: ATOM     20  C   UNL     1      34.206  18.505 120.968 -0.28 -0.00    +0.000 C 
DOCKED: BRANCH  19  20
DOCKED: ATOM     21  O   UNL     1      34.625  17.466 120.123 -0.22 -0.00    +0.000 OA
DOCKED: ATOM     22  H   UNL     1      34.895  17.834 119.268 -0.01 -0.00    +0.000 HD
DOCKED: ENDBRANCH  19  20
DOCKED: ENDBRANCH  18  19
DOCKED: ENDBRANCH   1  18
DOCKED: BRANCH   1  22
DOCKED: ATOM     23  C   UNL     1      37.550  18.681 121.040 -0.09 -0.00    +0.000 C 
DOCKED: BRANCH  22  23
DOCKED: ATOM     24  C   UNL     1      37.663  18.153 119.596 -0.06 -0.00    +0.000 C 
DOCKED: BRANCH  23  24
DOCKED: ATOM     25  C   UNL     1      37.916  16.676 119.601 -0.10 -0.00    +0.000 A 
DOCKED: ATOM     26  C   UNL     1      38.971  16.016 120.224 -0.15 -0.00    +0.000 A 
DOCKED: ATOM     27  N   UNL     1      38.925  14.692 119.951 -0.21 -0.00    +0.000 N 
DOCKED: ATOM     28  C   UNL     1      37.860  14.513 119.151 -0.25 -0.00    +0.000 A 
DOCKED: ATOM     29  C   UNL     1      37.222  15.703 118.909 -0.17 -0.00    +0.000 A 
DOCKED: ATOM     30  C   UNL     1      36.102  15.783 118.081 -0.17 -0.00    +0.000 A 
DOCKED: ATOM     31  C   UNL     1      35.631  14.591 117.500 -0.29 -0.00    +0.000 A 
DOCKED: ATOM     32  C   UNL     1      36.284  13.364 117.752 -0.25 -0.00    +0.000 A 
DOCKED: ATOM     33  C   UNL     1      37.417  13.318 118.587 -0.37 -0.00    +0.000 A 
DOCKED: ATOM     34  H   UNL     1      39.546  14.000 120.274 -0.08 -0.00    +0.000 HD
DOCKED: ATOM     35  CM  UNL     1      38.203  15.493 119.579 +0.00 -0.00    +0.000 AC
DOCKED: ATOM     36  CM  UNL     1      36.753  14.545 118.330 +0.00 -0.00    +0.000 AC
DOCKED: ENDBRANCH  23  24
DOCKED: ENDBRANCH  22  23
DOCKED: ENDBRANCH   1  22
DOCKED: TORSDOF 11DOCKED: TER
DOCKED: ENDMDL
________________________________________________________________________________


	BEGINNING GENETIC ALGORITHM DOCKING 45 of 100
Run: 45 Seed: 1390870538 1329910530 [ Run 45 of 100 GA/GALS ]
Beginning LAMARCKIAN GENETIC ALGORITHM (LGA), with a maximum of 2500000 energy evaluations.

Final-Value: -17.693


	FINAL GENETIC ALGORITHM DOCKED STATE
	_______________________________________________


Detailed state:  trans 36.158 16.706 121.279 quatxyzw 0.497116 -0.181310 0.626713 0.572043 center 0.460 0.128 -0.007 ntor 11 18.9860 -116.0816 117.9176 43.5057 155.8129 -143.7232 175.2430 -52.4341 158.7139 16.2082 17.9397
State:	 36.158  16.706 121.279   0.606 -0.221  0.764 110.214     18.99 -116.08  117.92   43.51  155.81 -143.72  175.24  -52.43  158.71   16.21   17.94

DOCKED: MODEL       45
DOCKED: USER    Run = 45
DOCKED: USER    DPF = ligand_dock.biased.dpf
DOCKED: USER  
DOCKED: USER    Estimated Free Energy of Binding    =  -11.57 kcal/mol  [=(1)+(2)+(3)-(4)]
DOCKED: USER    Estimated Inhibition Constant, Ki   =    3.31 nM (nanomolar)  [Temperature = 298.15 K]
DOCKED: USER    
DOCKED: USER    (1) Final Intermolecular Energy     =  -14.85 kcal/mol
DOCKED: USER        vdW + Hbond + desolv Energy     =  -14.85 kcal/mol
DOCKED: USER        Electrostatic Energy            =   +0.00 kcal/mol
DOCKED: USER    (2) Final Total Internal Energy     =   -2.84 kcal/mol
DOCKED: USER    (3) Torsional Free Energy           =   +3.28 kcal/mol
DOCKED: USER    (4) Unbound System's Energy  [=(2)] =   -2.84 kcal/mol
DOCKED: USER    
DOCKED: USER    
DOCKED: USER    NEWDPF move ligand.dum.pdbqt
DOCKED: USER    NEWDPF about 0.460000 0.128000 -0.007000
DOCKED: USER    NEWDPF tran0 36.157726 16.705780 121.279206
DOCKED: USER    NEWDPF quaternion0 0.497116 -0.181310 0.626713 0.572043
DOCKED: USER    NEWDPF axisangle0 0.606073 -0.221050 0.764076 110.214393
DOCKED: USER    NEWDPF quat0 0.606073 -0.221050 0.764076 110.214393
DOCKED: USER    NEWDPF dihe0 18.99 -116.08 117.92 43.51 155.81 -143.72 175.24 -52.43 158.71 16.21 17.94 
DOCKED: USER  keepresnum = 1 
DOCKED: USER  
DOCKED: REMARK  Name = 
DOCKED: REMARK  11 active torsions:
DOCKED: REMARK  status: ('A' for Active; 'I' for Inactive)
DOCKED: REMARK    1  A    between atoms: C_2  and  C_5
DOCKED: REMARK    2  A    between atoms: N_3  and  O_4
DOCKED: REMARK    3  A    between atoms: C_6  and  C_7
DOCKED: REMARK    4  A    between atoms: C_10  and  C_11
DOCKED: REMARK    5  A    between atoms: C_11  and  N_12
DOCKED: REMARK    6  A    between atoms: N_12  and  C_13
DOCKED: REMARK    7  A    between atoms: N_12  and  C_16
DOCKED: REMARK    8  A    between atoms: C_13  and  C_14
DOCKED: REMARK    9  A    between atoms: C_14  and  O_15
DOCKED: REMARK   10  A    between atoms: C_16  and  C_17
DOCKED: REMARK   11  A    between atoms: C_17  and  C_18
DOCKED: REMARK                            x       y       z     vdW  Elec       q    Type
DOCKED: REMARK                         _______ _______ _______ _____ _____    ______ ____
DOCKED: USER                              x       y       z     vdW  Elec       q    Type
DOCKED: USER                           _______ _______ _______ _____ _____    ______ ____
DOCKED: ROOT
DOCKED: ATOM      1  N   UNL     1      35.343  17.890 121.878 -0.27 -0.00    +0.000 N 
DOCKED: ATOM      2  H   UNL     1      34.788  17.059 121.669 -0.02 -0.00    +0.000 HD
DOCKED: ENDROOT
DOCKED: BRANCH   1   3
DOCKED: ATOM      3  C   UNL     1      36.764  17.574 121.618 -0.17 -0.00    +0.000 C 
DOCKED: BRANCH   3   7
DOCKED: ATOM      4  C   UNL     1      37.275  13.286 121.323 -0.41 -0.00    +0.000 A 
DOCKED: ATOM      5  C   UNL     1      37.499  13.949 122.541 -0.44 -0.00    +0.000 A 
DOCKED: ATOM      6  C   UNL     1      37.344  15.334 122.639 -0.32 -0.00    +0.000 A 
DOCKED: ATOM      7  C   UNL     1      36.953  16.083 121.519 -0.20 -0.00    +0.000 A 
DOCKED: ATOM      8  C   UNL     1      36.708  15.426 120.306 -0.12 -0.00    +0.000 A 
DOCKED: ATOM      9  C   UNL     1      36.863  14.040 120.205 -0.13 -0.00    +0.000 A 
DOCKED: ATOM     10  CM  UNL     1      37.107  14.687 121.422 +0.00 -0.00    +0.000 AC
DOCKED: BRANCH   4  11
DOCKED: ATOM     11  C   UNL     1      36.772  10.961 122.064 -0.61 -0.00    +0.000 C 
DOCKED: ATOM     12  C   UNL     1      37.444  11.812 121.276 -0.46 -0.00    +0.000 C 
DOCKED: BRANCH  10  13
DOCKED: ATOM     13  O   UNL     1      37.053   8.943 120.884 -2.72 -0.00    +0.000 OA
DOCKED: ATOM     14  C   UNL     1      36.945   9.494 122.012 -0.64 -0.00    +0.000 C 
DOCKED: ATOM     15  N   UNL     1      37.021   8.689 123.195 -0.68 -0.00    +0.000 N 
DOCKED: ATOM     16  H   UNL     1      37.041   9.118 124.081 -0.53 -0.00    +0.000 HD
DOCKED: BRANCH  14  16
DOCKED: ATOM     17  O   UNL     1      37.065   7.338 123.097 -2.16 -0.00    +0.000 OA
DOCKED: ATOM     18  H   UNL     1      37.336   7.089 122.200 -0.18 -0.00    +0.000 HD
DOCKED: ENDBRANCH  14  16
DOCKED: ENDBRANCH  10  13
DOCKED: ENDBRANCH   4  11
DOCKED: ENDBRANCH   3   7
DOCKED: ENDBRANCH   1   3
DOCKED: BRANCH   1  18
DOCKED: ATOM     19  C   UNL     1      35.104  18.170 123.314 -0.32 -0.00    +0.000 C 
DOCKED: BRANCH  18  19
DOCKED: ATOM     20  C   UNL     1      34.063  17.220 123.928 -0.42 -0.00    +0.000 C 
DOCKED: BRANCH  19  20
DOCKED: ATOM     21  O   UNL     1      34.133  15.947 123.344 -0.56 -0.00    +0.000 OA
DOCKED: ATOM     22  H   UNL     1      33.436  15.383 123.713 -0.09 -0.00    +0.000 HD
DOCKED: ENDBRANCH  19  20
DOCKED: ENDBRANCH  18  19
DOCKED: ENDBRANCH   1  18
DOCKED: BRANCH   1  22
DOCKED: ATOM     23  C   UNL     1      34.826  18.930 120.955 -0.21 -0.00    +0.000 C 
DOCKED: BRANCH  22  23
DOCKED: ATOM     24  C   UNL     1      34.178  18.370 119.673 -0.28 -0.00    +0.000 C 
DOCKED: BRANCH  23  24
DOCKED: ATOM     25  C   UNL     1      32.739  18.782 119.596 -0.35 -0.00    +0.000 A 
DOCKED: ATOM     26  C   UNL     1      31.644  18.066 120.072 -0.36 -0.00    +0.000 A 
DOCKED: ATOM     27  N   UNL     1      30.493  18.703 119.760 -0.45 -0.00    +0.000 N 
DOCKED: ATOM     28  C   UNL     1      30.851  19.806 119.079 -0.35 -0.00    +0.000 A 
DOCKED: ATOM     29  C   UNL     1      32.214  19.885 118.953 -0.26 -0.00    +0.000 A 
DOCKED: ATOM     30  C   UNL     1      32.831  20.927 118.260 -0.16 -0.00    +0.000 A 
DOCKED: ATOM     31  C   UNL     1      32.004  21.916 117.694 -0.14 -0.00    +0.000 A 
DOCKED: ATOM     32  C   UNL     1      30.600  21.838 117.827 -0.14 -0.00    +0.000 A 
DOCKED: ATOM     33  C   UNL     1      30.008  20.769 118.527 -0.25 -0.00    +0.000 A 
DOCKED: ATOM     34  H   UNL     1      29.578  18.417 119.985 -0.46 -0.00    +0.000 HD
DOCKED: ATOM     35  CM  UNL     1      31.553  19.037 119.500 +0.00 -0.00    +0.000 AC
DOCKED: ATOM     36  CM  UNL     1      31.418  20.857 118.390 +0.00 -0.00    +0.000 AC
DOCKED: ENDBRANCH  23  24
DOCKED: ENDBRANCH  22  23
DOCKED: ENDBRANCH   1  22
DOCKED: TORSDOF 11DOCKED: TER
DOCKED: ENDMDL
________________________________________________________________________________


	BEGINNING GENETIC ALGORITHM DOCKING 46 of 100
Run: 46 Seed: 27488911 1268501873 [ Run 46 of 100 GA/GALS ]
Beginning LAMARCKIAN GENETIC ALGORITHM (LGA), with a maximum of 2500000 energy evaluations.

Final-Value: -17.608


	FINAL GENETIC ALGORITHM DOCKED STATE
	_______________________________________________


Detailed state:  trans 37.517 16.777 121.603 quatxyzw -0.835027 0.315357 0.447494 -0.055035 center 0.460 0.128 -0.007 ntor 11 62.6355 53.7534 146.7982 29.6148 135.8442 -163.7569 -6.9536 -121.8123 176.9448 -172.0121 49.7960
State:	 37.517  16.777 121.603  -0.836  0.316  0.448 -173.690     62.64   53.75  146.80   29.61  135.84 -163.76   -6.95 -121.81  176.94 -172.01   49.80

DOCKED: MODEL       46
DOCKED: USER    Run = 46
DOCKED: USER    DPF = ligand_dock.biased.dpf
DOCKED: USER  
DOCKED: USER    Estimated Free Energy of Binding    =  -10.73 kcal/mol  [=(1)+(2)+(3)-(4)]
DOCKED: USER    Estimated Inhibition Constant, Ki   =   13.69 nM (nanomolar)  [Temperature = 298.15 K]
DOCKED: USER    
DOCKED: USER    (1) Final Intermolecular Energy     =  -14.01 kcal/mol
DOCKED: USER        vdW + Hbond + desolv Energy     =  -14.01 kcal/mol
DOCKED: USER        Electrostatic Energy            =   +0.00 kcal/mol
DOCKED: USER    (2) Final Total Internal Energy     =   -3.60 kcal/mol
DOCKED: USER    (3) Torsional Free Energy           =   +3.28 kcal/mol
DOCKED: USER    (4) Unbound System's Energy  [=(2)] =   -3.60 kcal/mol
DOCKED: USER    
DOCKED: USER    
DOCKED: USER    NEWDPF move ligand.dum.pdbqt
DOCKED: USER    NEWDPF about 0.460000 0.128000 -0.007000
DOCKED: USER    NEWDPF tran0 37.517207 16.776954 121.603221
DOCKED: USER    NEWDPF quaternion0 -0.835027 0.315357 0.447494 -0.055035
DOCKED: USER    NEWDPF axisangle0 -0.836295 0.315835 0.448173 -173.690225
DOCKED: USER    NEWDPF quat0 -0.836295 0.315835 0.448173 -173.690225
DOCKED: USER    NEWDPF dihe0 62.64 53.75 146.80 29.61 135.84 -163.76 -6.95 -121.81 176.94 -172.01 49.80 
DOCKED: USER  keepresnum = 1 
DOCKED: USER  
DOCKED: REMARK  Name = 
DOCKED: REMARK  11 active torsions:
DOCKED: REMARK  status: ('A' for Active; 'I' for Inactive)
DOCKED: REMARK    1  A    between atoms: C_2  and  C_5
DOCKED: REMARK    2  A    between atoms: N_3  and  O_4
DOCKED: REMARK    3  A    between atoms: C_6  and  C_7
DOCKED: REMARK    4  A    between atoms: C_10  and  C_11
DOCKED: REMARK    5  A    between atoms: C_11  and  N_12
DOCKED: REMARK    6  A    between atoms: N_12  and  C_13
DOCKED: REMARK    7  A    between atoms: N_12  and  C_16
DOCKED: REMARK    8  A    between atoms: C_13  and  C_14
DOCKED: REMARK    9  A    between atoms: C_14  and  O_15
DOCKED: REMARK   10  A    between atoms: C_16  and  C_17
DOCKED: REMARK   11  A    between atoms: C_17  and  C_18
DOCKED: REMARK                            x       y       z     vdW  Elec       q    Type
DOCKED: REMARK                         _______ _______ _______ _____ _____    ______ ____
DOCKED: USER                              x       y       z     vdW  Elec       q    Type
DOCKED: USER                           _______ _______ _______ _____ _____    ______ ____
DOCKED: ROOT
DOCKED: ATOM      1  N   UNL     1      37.866  18.210 122.103 -0.09 -0.00    +0.000 N 
DOCKED: ATOM      2  H   UNL     1      38.634  17.542 122.168 +0.00 -0.00    +0.000 HD
DOCKED: ENDROOT
DOCKED: BRANCH   1   3
DOCKED: ATOM      3  C   UNL     1      36.729  17.542 121.433 -0.17 -0.00    +0.000 C 
DOCKED: BRANCH   3   7
DOCKED: ATOM      4  C   UNL     1      37.286  13.250 121.411 -0.42 -0.00    +0.000 A 
DOCKED: ATOM      5  C   UNL     1      36.871  13.909 122.580 -0.43 -0.00    +0.000 A 
DOCKED: ATOM      6  C   UNL     1      36.698  15.296 122.594 -0.32 -0.00    +0.000 A 
DOCKED: ATOM      7  C   UNL     1      36.931  16.050 121.434 -0.19 -0.00    +0.000 A 
DOCKED: ATOM      8  C   UNL     1      37.325  15.396 120.259 -0.20 -0.00    +0.000 A 
DOCKED: ATOM      9  C   UNL     1      37.499  14.009 120.243 -0.33 -0.00    +0.000 A 
DOCKED: ATOM     10  CM  UNL     1      37.101  14.652 121.420 +0.00 -0.00    +0.000 AC
DOCKED: BRANCH   4  11
DOCKED: ATOM     11  C   UNL     1      36.632  10.956 122.131 -0.64 -0.00    +0.000 C 
DOCKED: ATOM     12  C   UNL     1      37.444  11.775 121.447 -0.43 -0.00    +0.000 C 
DOCKED: BRANCH  10  13
DOCKED: ATOM     13  O   UNL     1      36.717   8.852 121.077 -2.62 -0.00    +0.000 OA
DOCKED: ATOM     14  C   UNL     1      36.795   9.488 122.162 -0.68 -0.00    +0.000 C 
DOCKED: ATOM     15  N   UNL     1      37.066   8.772 123.374 -0.64 -0.00    +0.000 N 
DOCKED: ATOM     16  H   UNL     1      37.232   9.266 124.209 -0.60 -0.00    +0.000 HD
DOCKED: BRANCH  14  16
DOCKED: ATOM     17  O   UNL     1      37.095   7.418 123.373 -2.14 -0.00    +0.000 OA
DOCKED: ATOM     18  H   UNL     1      37.810   7.111 122.793 -0.47 -0.00    +0.000 HD
DOCKED: ENDBRANCH  14  16
DOCKED: ENDBRANCH  10  13
DOCKED: ENDBRANCH   4  11
DOCKED: ENDBRANCH   3   7
DOCKED: ENDBRANCH   1   3
DOCKED: BRANCH   1  18
DOCKED: ATOM     19  C   UNL     1      38.391  19.333 121.290 -0.05 -0.00    +0.000 C 
DOCKED: BRANCH  18  19
DOCKED: ATOM     20  C   UNL     1      39.927  19.340 121.227 -0.03 -0.00    +0.000 C 
DOCKED: BRANCH  19  20
DOCKED: ATOM     21  O   UNL     1      40.414  18.178 120.610 -0.06 -0.00    +0.000 OA
DOCKED: ATOM     22  H   UNL     1      39.681  17.563 120.453 +0.00 -0.00    +0.000 HD
DOCKED: ENDBRANCH  19  20
DOCKED: ENDBRANCH  18  19
DOCKED: ENDBRANCH   1  18
DOCKED: BRANCH   1  22
DOCKED: ATOM     23  C   UNL     1      37.555  18.563 123.509 -0.16 -0.00    +0.000 C 
DOCKED: BRANCH  22  23
DOCKED: ATOM     24  C   UNL     1      38.319  17.727 124.554 -0.15 -0.00    +0.000 C 
DOCKED: BRANCH  23  24
DOCKED: ATOM     25  C   UNL     1      39.782  17.707 124.235 -0.22 -0.00    +0.000 A 
DOCKED: ATOM     26  C   UNL     1      40.729  18.656 124.614 -0.23 -0.00    +0.000 A 
DOCKED: ATOM     27  N   UNL     1      41.935  18.356 124.082 -0.22 -0.00    +0.000 N 
DOCKED: ATOM     28  C   UNL     1      41.756  17.237 123.359 -0.32 -0.00    +0.000 A 
DOCKED: ATOM     29  C   UNL     1      40.453  16.815 123.422 -0.23 -0.00    +0.000 A 
DOCKED: ATOM     30  C   UNL     1      40.010  15.687 122.730 -0.30 -0.00    +0.000 A 
DOCKED: ATOM     31  C   UNL     1      40.952  14.978 121.962 -0.37 -0.00    +0.000 A 
DOCKED: ATOM     32  C   UNL     1      42.296  15.410 121.899 -0.36 -0.00    +0.000 A 
DOCKED: ATOM     33  C   UNL     1      42.710  16.556 122.604 -0.38 -0.00    +0.000 A 
DOCKED: ATOM     34  H   UNL     1      42.775  18.857 124.200 -0.56 -0.00    +0.000 HD
DOCKED: ATOM     35  CM  UNL     1      40.963  17.773 123.946 +0.00 -0.00    +0.000 AC
DOCKED: ATOM     36  CM  UNL     1      41.363  16.113 122.663 +0.00 -0.00    +0.000 AC
DOCKED: ENDBRANCH  23  24
DOCKED: ENDBRANCH  22  23
DOCKED: ENDBRANCH   1  22
DOCKED: TORSDOF 11DOCKED: TER
DOCKED: ENDMDL
________________________________________________________________________________


	BEGINNING GENETIC ALGORITHM DOCKING 47 of 100
Run: 47 Seed: 1117683307 591664262 [ Run 47 of 100 GA/GALS ]
Beginning LAMARCKIAN GENETIC ALGORITHM (LGA), with a maximum of 2500000 energy evaluations.

Final-Value: -17.045


	FINAL GENETIC ALGORITHM DOCKED STATE
	_______________________________________________


Detailed state:  trans 37.192 17.165 122.770 quatxyzw 0.595583 -0.622513 0.424117 0.279076 center 0.460 0.128 -0.007 ntor 11 169.9484 -68.7072 -43.7575 -140.0581 -50.7212 0.1319 180.0000 -161.7637 167.6627 132.2650 -3.8457
State:	 37.192  17.165 122.770   0.620 -0.648  0.442 147.590    169.95  -68.71  -43.76 -140.06  -50.72    0.13  180.00 -161.76  167.66  132.27   -3.85

DOCKED: MODEL       47
DOCKED: USER    Run = 47
DOCKED: USER    DPF = ligand_dock.biased.dpf
DOCKED: USER  
DOCKED: USER    Estimated Free Energy of Binding    =  -11.73 kcal/mol  [=(1)+(2)+(3)-(4)]
DOCKED: USER    Estimated Inhibition Constant, Ki   =    2.52 nM (nanomolar)  [Temperature = 298.15 K]
DOCKED: USER    
DOCKED: USER    (1) Final Intermolecular Energy     =  -15.01 kcal/mol
DOCKED: USER        vdW + Hbond + desolv Energy     =  -15.01 kcal/mol
DOCKED: USER        Electrostatic Energy            =   +0.00 kcal/mol
DOCKED: USER    (2) Final Total Internal Energy     =   -2.03 kcal/mol
DOCKED: USER    (3) Torsional Free Energy           =   +3.28 kcal/mol
DOCKED: USER    (4) Unbound System's Energy  [=(2)] =   -2.03 kcal/mol
DOCKED: USER    
DOCKED: USER    
DOCKED: USER    NEWDPF move ligand.dum.pdbqt
DOCKED: USER    NEWDPF about 0.460000 0.128000 -0.007000
DOCKED: USER    NEWDPF tran0 37.191778 17.164682 122.770274
DOCKED: USER    NEWDPF quaternion0 0.595583 -0.622513 0.424117 0.279076
DOCKED: USER    NEWDPF axisangle0 0.620225 -0.648269 0.441665 147.589917
DOCKED: USER    NEWDPF quat0 0.620225 -0.648269 0.441665 147.589917
DOCKED: USER    NEWDPF dihe0 169.95 -68.71 -43.76 -140.06 -50.72 0.13 180.00 -161.76 167.66 132.27 -3.85 
DOCKED: USER  keepresnum = 1 
DOCKED: USER  
DOCKED: REMARK  Name = 
DOCKED: REMARK  11 active torsions:
DOCKED: REMARK  status: ('A' for Active; 'I' for Inactive)
DOCKED: REMARK    1  A    between atoms: C_2  and  C_5
DOCKED: REMARK    2  A    between atoms: N_3  and  O_4
DOCKED: REMARK    3  A    between atoms: C_6  and  C_7
DOCKED: REMARK    4  A    between atoms: C_10  and  C_11
DOCKED: REMARK    5  A    between atoms: C_11  and  N_12
DOCKED: REMARK    6  A    between atoms: N_12  and  C_13
DOCKED: REMARK    7  A    between atoms: N_12  and  C_16
DOCKED: REMARK    8  A    between atoms: C_13  and  C_14
DOCKED: REMARK    9  A    between atoms: C_14  and  O_15
DOCKED: REMARK   10  A    between atoms: C_16  and  C_17
DOCKED: REMARK   11  A    between atoms: C_17  and  C_18
DOCKED: REMARK                            x       y       z     vdW  Elec       q    Type
DOCKED: REMARK                         _______ _______ _______ _____ _____    ______ ____
DOCKED: USER                              x       y       z     vdW  Elec       q    Type
DOCKED: USER                           _______ _______ _______ _____ _____    ______ ____
DOCKED: ROOT
DOCKED: ATOM      1  N   UNL     1      37.939  18.167 123.698 -0.16 -0.00    +0.000 N 
DOCKED: ATOM      2  H   UNL     1      37.097  17.760 124.107 -0.01 -0.00    +0.000 HD
DOCKED: ENDROOT
DOCKED: BRANCH   1   3
DOCKED: ATOM      3  C   UNL     1      38.169  17.528 122.385 -0.15 -0.00    +0.000 C 
DOCKED: BRANCH   3   7
DOCKED: ATOM      4  C   UNL     1      37.134  13.329 122.541 -0.48 -0.00    +0.000 A 
DOCKED: ATOM      5  C   UNL     1      36.610  14.228 123.484 -0.45 -0.00    +0.000 A 
DOCKED: ATOM      6  C   UNL     1      36.948  15.583 123.443 -0.34 -0.00    +0.000 A 
DOCKED: ATOM      7  C   UNL     1      37.813  16.066 122.451 -0.24 -0.00    +0.000 A 
DOCKED: ATOM      8  C   UNL     1      38.324  15.178 121.494 -0.27 -0.00    +0.000 A 
DOCKED: ATOM      9  C   UNL     1      37.988  13.822 121.534 -0.38 -0.00    +0.000 A 
DOCKED: ATOM     10  CM  UNL     1      37.470  14.701 122.491 +0.00 -0.00    +0.000 AC
DOCKED: BRANCH   4  11
DOCKED: ATOM     11  C   UNL     1      37.441  10.899 122.080 +0.04 -0.00    +0.000 C 
DOCKED: ATOM     12  C   UNL     1      36.735  11.901 122.623 -0.64 -0.00    +0.000 C 
DOCKED: BRANCH  10  13
DOCKED: ATOM     13  O   UNL     1      36.686   8.891 121.110 -2.61 -0.00    +0.000 OA
DOCKED: ATOM     14  C   UNL     1      37.037   9.480 122.167 -0.63 -0.00    +0.000 C 
DOCKED: ATOM     15  N   UNL     1      37.059   8.750 123.401 -0.64 -0.00    +0.000 N 
DOCKED: ATOM     16  H   UNL     1      37.429   9.168 124.212 -0.62 -0.00    +0.000 HD
DOCKED: BRANCH  14  16
DOCKED: ATOM     17  O   UNL     1      36.573   7.487 123.453 -1.92 -0.00    +0.000 OA
DOCKED: ATOM     18  H   UNL     1      36.807   7.086 124.306 -0.48 -0.00    +0.000 HD
DOCKED: ENDBRANCH  14  16
DOCKED: ENDBRANCH  10  13
DOCKED: ENDBRANCH   4  11
DOCKED: ENDBRANCH   3   7
DOCKED: ENDBRANCH   1   3
DOCKED: BRANCH   1  18
DOCKED: ATOM     19  C   UNL     1      39.029  17.854 124.653 -0.22 -0.00    +0.000 C 
DOCKED: BRANCH  18  19
DOCKED: ATOM     20  C   UNL     1      40.414  18.226 124.098 -0.26 -0.00    +0.000 C 
DOCKED: BRANCH  19  20
DOCKED: ATOM     21  O   UNL     1      41.303  17.146 124.189 -0.73 -0.00    +0.000 OA
DOCKED: ATOM     22  H   UNL     1      42.126  17.437 124.611 -0.41 -0.00    +0.000 HD
DOCKED: ENDBRANCH  19  20
DOCKED: ENDBRANCH  18  19
DOCKED: ENDBRANCH   1  18
DOCKED: BRANCH   1  22
DOCKED: ATOM     23  C   UNL     1      37.633  19.612 123.568 -0.11 -0.00    +0.000 C 
DOCKED: BRANCH  22  23
DOCKED: ATOM     24  C   UNL     1      36.134  19.953 123.680 -0.18 -0.00    +0.000 C 
DOCKED: BRANCH  23  24
DOCKED: ATOM     25  C   UNL     1      35.360  18.753 124.133 -0.23 -0.00    +0.000 A 
DOCKED: ATOM     26  C   UNL     1      34.829  17.753 123.323 -0.33 -0.00    +0.000 A 
DOCKED: ATOM     27  N   UNL     1      34.126  16.869 124.066 -0.45 -0.00    +0.000 N 
DOCKED: ATOM     28  C   UNL     1      34.196  17.309 125.334 -0.38 -0.00    +0.000 A 
DOCKED: ATOM     29  C   UNL     1      34.936  18.460 125.414 -0.26 -0.00    +0.000 A 
DOCKED: ATOM     30  C   UNL     1      35.131  19.129 126.623 -0.17 -0.00    +0.000 A 
DOCKED: ATOM     31  C   UNL     1      34.549  18.575 127.778 -0.16 -0.00    +0.000 A 
DOCKED: ATOM     32  C   UNL     1      33.790  17.386 127.699 -0.28 -0.00    +0.000 A 
DOCKED: ATOM     33  C   UNL     1      33.606  16.740 126.461 -0.37 -0.00    +0.000 A 
DOCKED: ATOM     34  H   UNL     1      33.657  16.065 123.744 -0.03 -0.00    +0.000 HD
DOCKED: ATOM     35  CM  UNL     1      34.671  17.798 124.442 -0.36 -0.00    +0.000 AC
DOCKED: ATOM     36  CM  UNL     1      34.368  17.933 126.552 -0.08 -0.00    +0.000 AC
DOCKED: ENDBRANCH  23  24
DOCKED: ENDBRANCH  22  23
DOCKED: ENDBRANCH   1  22
DOCKED: TORSDOF 11DOCKED: TER
DOCKED: ENDMDL
________________________________________________________________________________


	BEGINNING GENETIC ALGORITHM DOCKING 48 of 100
Run: 48 Seed: 119609501 2025717244 [ Run 48 of 100 GA/GALS ]
Beginning LAMARCKIAN GENETIC ALGORITHM (LGA), with a maximum of 2500000 energy evaluations.

Final-Value: -17.951


	FINAL GENETIC ALGORITHM DOCKED STATE
	_______________________________________________


Detailed state:  trans 38.201 14.832 122.277 quatxyzw 0.830483 -0.536762 -0.002334 0.148927 center 0.460 0.128 -0.007 ntor 11 7.8024 -2.7214 103.4408 76.4538 -20.5720 57.9735 145.2711 -62.5854 72.6212 161.2076 42.9258
State:	 38.201  14.832 122.277   0.840 -0.543 -0.002 162.870      7.80   -2.72  103.44   76.45  -20.57   57.97  145.27  -62.59   72.62  161.21   42.93

DOCKED: MODEL       48
DOCKED: USER    Run = 48
DOCKED: USER    DPF = ligand_dock.biased.dpf
DOCKED: USER  
DOCKED: USER    Estimated Free Energy of Binding    =  -11.64 kcal/mol  [=(1)+(2)+(3)-(4)]
DOCKED: USER    Estimated Inhibition Constant, Ki   =    2.94 nM (nanomolar)  [Temperature = 298.15 K]
DOCKED: USER    
DOCKED: USER    (1) Final Intermolecular Energy     =  -14.92 kcal/mol
DOCKED: USER        vdW + Hbond + desolv Energy     =  -14.92 kcal/mol
DOCKED: USER        Electrostatic Energy            =   +0.00 kcal/mol
DOCKED: USER    (2) Final Total Internal Energy     =   -3.03 kcal/mol
DOCKED: USER    (3) Torsional Free Energy           =   +3.28 kcal/mol
DOCKED: USER    (4) Unbound System's Energy  [=(2)] =   -3.03 kcal/mol
DOCKED: USER    
DOCKED: USER    
DOCKED: USER    NEWDPF move ligand.dum.pdbqt
DOCKED: USER    NEWDPF about 0.460000 0.128000 -0.007000
DOCKED: USER    NEWDPF tran0 38.201383 14.831790 122.276884
DOCKED: USER    NEWDPF quaternion0 0.830483 -0.536762 -0.002334 0.148927
DOCKED: USER    NEWDPF axisangle0 0.839849 -0.542816 -0.002360 162.870460
DOCKED: USER    NEWDPF quat0 0.839849 -0.542816 -0.002360 162.870460
DOCKED: USER    NEWDPF dihe0 7.80 -2.72 103.44 76.45 -20.57 57.97 145.27 -62.59 72.62 161.21 42.93 
DOCKED: USER  keepresnum = 1 
DOCKED: USER  
DOCKED: REMARK  Name = 
DOCKED: REMARK  11 active torsions:
DOCKED: REMARK  status: ('A' for Active; 'I' for Inactive)
DOCKED: REMARK    1  A    between atoms: C_2  and  C_5
DOCKED: REMARK    2  A    between atoms: N_3  and  O_4
DOCKED: REMARK    3  A    between atoms: C_6  and  C_7
DOCKED: REMARK    4  A    between atoms: C_10  and  C_11
DOCKED: REMARK    5  A    between atoms: C_11  and  N_12
DOCKED: REMARK    6  A    between atoms: N_12  and  C_13
DOCKED: REMARK    7  A    between atoms: N_12  and  C_16
DOCKED: REMARK    8  A    between atoms: C_13  and  C_14
DOCKED: REMARK    9  A    between atoms: C_14  and  O_15
DOCKED: REMARK   10  A    between atoms: C_16  and  C_17
DOCKED: REMARK   11  A    between atoms: C_17  and  C_18
DOCKED: REMARK                            x       y       z     vdW  Elec       q    Type
DOCKED: REMARK                         _______ _______ _______ _____ _____    ______ ____
DOCKED: USER                              x       y       z     vdW  Elec       q    Type
DOCKED: USER                           _______ _______ _______ _____ _____    ______ ____
DOCKED: ROOT
DOCKED: ATOM      1  N   UNL     1      38.915  16.135 122.743 -0.26 -0.00    +0.000 N 
DOCKED: ATOM      2  H   UNL     1      38.938  15.375 123.423 -0.02 -0.00    +0.000 HD
DOCKED: ENDROOT
DOCKED: BRANCH   1   3
DOCKED: ATOM      3  C   UNL     1      38.284  15.628 121.506 -0.26 -0.00    +0.000 C 
DOCKED: BRANCH   3   7
DOCKED: ATOM      4  C   UNL     1      36.588  11.701 122.161 -0.55 -0.00    +0.000 A 
DOCKED: ATOM      5  C   UNL     1      36.303  12.756 123.043 -0.55 -0.00    +0.000 A 
DOCKED: ATOM      6  C   UNL     1      36.856  14.024 122.840 -0.45 -0.00    +0.000 A 
DOCKED: ATOM      7  C   UNL     1      37.699  14.261 121.745 -0.36 -0.00    +0.000 A 
DOCKED: ATOM      8  C   UNL     1      37.970  13.218 120.849 -0.40 -0.00    +0.000 A 
DOCKED: ATOM      9  C   UNL     1      37.420  11.949 121.050 -0.45 -0.00    +0.000 A 
DOCKED: ATOM     10  CM  UNL     1      37.139  12.985 121.947 +0.00 -0.00    +0.000 AC
DOCKED: BRANCH   4  11
DOCKED: ATOM     11  C   UNL     1      36.613   9.350 122.987 -0.70 -0.00    +0.000 C 
DOCKED: ATOM     12  C   UNL     1      35.967  10.377 122.415 -0.67 -0.00    +0.000 C 
DOCKED: BRANCH  10  13
DOCKED: ATOM     13  O   UNL     1      36.687   6.999 123.084 -1.72 -0.00    +0.000 OA
DOCKED: ATOM     14  C   UNL     1      35.988   8.034 123.238 -0.72 -0.00    +0.000 C 
DOCKED: ATOM     15  N   UNL     1      34.628   7.903 123.675 -0.62 -0.00    +0.000 N 
DOCKED: ATOM     16  H   UNL     1      34.104   8.705 123.897 -0.42 -0.00    +0.000 HD
DOCKED: BRANCH  14  16
DOCKED: ATOM     17  O   UNL     1      34.064   6.676 123.783 -0.85 -0.00    +0.000 OA
DOCKED: ATOM     18  H   UNL     1      34.743   5.996 123.648 -0.12 -0.00    +0.000 HD
DOCKED: ENDBRANCH  14  16
DOCKED: ENDBRANCH  10  13
DOCKED: ENDBRANCH   4  11
DOCKED: ENDBRANCH   3   7
DOCKED: ENDBRANCH   1   3
DOCKED: BRANCH   1  18
DOCKED: ATOM     19  C   UNL     1      40.333  16.503 122.518 -0.29 -0.00    +0.000 C 
DOCKED: BRANCH  18  19
DOCKED: ATOM     20  C   UNL     1      41.285  15.316 122.733 -0.52 -0.00    +0.000 C 
DOCKED: BRANCH  19  20
DOCKED: ATOM     21  O   UNL     1      40.597  14.096 122.669 -1.02 +0.00    +0.000 OA
DOCKED: ATOM     22  H   UNL     1      39.951  14.049 123.391 -0.05 -0.00    +0.000 HD
DOCKED: ENDBRANCH  19  20
DOCKED: ENDBRANCH  18  19
DOCKED: ENDBRANCH   1  18
DOCKED: BRANCH   1  22
DOCKED: ATOM     23  C   UNL     1      38.101  17.193 123.390 -0.24 -0.00    +0.000 C 
DOCKED: BRANCH  22  23
DOCKED: ATOM     24  C   UNL     1      36.732  17.433 122.722 -0.22 -0.00    +0.000 C 
DOCKED: BRANCH  23  24
DOCKED: ATOM     25  C   UNL     1      35.630  16.931 123.603 -0.32 -0.00    +0.000 A 
DOCKED: ATOM     26  C   UNL     1      34.673  15.974 123.274 -0.39 -0.00    +0.000 A 
DOCKED: ATOM     27  N   UNL     1      33.787  15.826 124.284 -0.48 -0.00    +0.000 N 
DOCKED: ATOM     28  C   UNL     1      34.166  16.690 125.241 -0.42 -0.00    +0.000 A 
DOCKED: ATOM     29  C   UNL     1      35.283  17.387 124.859 -0.31 -0.00    +0.000 A 
DOCKED: ATOM     30  C   UNL     1      35.855  18.367 125.673 -0.19 -0.00    +0.000 A 
DOCKED: ATOM     31  C   UNL     1      35.251  18.617 126.919 -0.16 -0.00    +0.000 A 
DOCKED: ATOM     32  C   UNL     1      34.103  17.896 127.316 -0.24 -0.00    +0.000 A 
DOCKED: ATOM     33  C   UNL     1      33.546  16.919 126.469 -0.35 -0.00    +0.000 A 
DOCKED: ATOM     34  H   UNL     1      33.020  15.210 124.313 -0.29 -0.00    +0.000 HD
DOCKED: ATOM     35  CM  UNL     1      34.678  16.538 124.254 -0.11 -0.00    +0.000 AC
DOCKED: ATOM     36  CM  UNL     1      34.701  17.646 126.080 -0.22 -0.00    +0.000 AC
DOCKED: ENDBRANCH  23  24
DOCKED: ENDBRANCH  22  23
DOCKED: ENDBRANCH   1  22
DOCKED: TORSDOF 11DOCKED: TER
DOCKED: ENDMDL
________________________________________________________________________________


	BEGINNING GENETIC ALGORITHM DOCKING 49 of 100
Run: 49 Seed: 258868493 29528418 [ Run 49 of 100 GA/GALS ]
Beginning LAMARCKIAN GENETIC ALGORITHM (LGA), with a maximum of 2500000 energy evaluations.

Final-Value: -16.760


	FINAL GENETIC ALGORITHM DOCKED STATE
	_______________________________________________


Detailed state:  trans 37.233 16.946 121.416 quatxyzw -0.755458 0.637541 0.093592 0.118598 center 0.460 0.128 -0.007 ntor 11 21.6127 131.8080 112.2650 41.1809 -179.7410 -177.0418 -23.8252 -85.1412 88.3925 166.4855 -5.6924
State:	 37.233  16.946 121.416  -0.761  0.642  0.094 166.378     21.61  131.81  112.27   41.18 -179.74 -177.04  -23.83  -85.14   88.39  166.49   -5.69

DOCKED: MODEL       49
DOCKED: USER    Run = 49
DOCKED: USER    DPF = ligand_dock.biased.dpf
DOCKED: USER  
DOCKED: USER    Estimated Free Energy of Binding    =   -9.94 kcal/mol  [=(1)+(2)+(3)-(4)]
DOCKED: USER    Estimated Inhibition Constant, Ki   =   51.36 nM (nanomolar)  [Temperature = 298.15 K]
DOCKED: USER    
DOCKED: USER    (1) Final Intermolecular Energy     =  -13.23 kcal/mol
DOCKED: USER        vdW + Hbond + desolv Energy     =  -13.23 kcal/mol
DOCKED: USER        Electrostatic Energy            =   +0.00 kcal/mol
DOCKED: USER    (2) Final Total Internal Energy     =   -3.53 kcal/mol
DOCKED: USER    (3) Torsional Free Energy           =   +3.28 kcal/mol
DOCKED: USER    (4) Unbound System's Energy  [=(2)] =   -3.53 kcal/mol
DOCKED: USER    
DOCKED: USER    
DOCKED: USER    NEWDPF move ligand.dum.pdbqt
DOCKED: USER    NEWDPF about 0.460000 0.128000 -0.007000
DOCKED: USER    NEWDPF tran0 37.233492 16.946259 121.416042
DOCKED: USER    NEWDPF quaternion0 -0.755458 0.637541 0.093592 0.118598
DOCKED: USER    NEWDPF axisangle0 -0.760828 0.642072 0.094257 166.377599
DOCKED: USER    NEWDPF quat0 -0.760828 0.642072 0.094257 166.377599
DOCKED: USER    NEWDPF dihe0 21.61 131.81 112.27 41.18 -179.74 -177.04 -23.83 -85.14 88.39 166.49 -5.69 
DOCKED: USER  keepresnum = 1 
DOCKED: USER  
DOCKED: REMARK  Name = 
DOCKED: REMARK  11 active torsions:
DOCKED: REMARK  status: ('A' for Active; 'I' for Inactive)
DOCKED: REMARK    1  A    between atoms: C_2  and  C_5
DOCKED: REMARK    2  A    between atoms: N_3  and  O_4
DOCKED: REMARK    3  A    between atoms: C_6  and  C_7
DOCKED: REMARK    4  A    between atoms: C_10  and  C_11
DOCKED: REMARK    5  A    between atoms: C_11  and  N_12
DOCKED: REMARK    6  A    between atoms: N_12  and  C_13
DOCKED: REMARK    7  A    between atoms: N_12  and  C_16
DOCKED: REMARK    8  A    between atoms: C_13  and  C_14
DOCKED: REMARK    9  A    between atoms: C_14  and  O_15
DOCKED: REMARK   10  A    between atoms: C_16  and  C_17
DOCKED: REMARK   11  A    between atoms: C_17  and  C_18
DOCKED: REMARK                            x       y       z     vdW  Elec       q    Type
DOCKED: REMARK                         _______ _______ _______ _____ _____    ______ ____
DOCKED: USER                              x       y       z     vdW  Elec       q    Type
DOCKED: USER                           _______ _______ _______ _____ _____    ______ ____
DOCKED: ROOT
DOCKED: ATOM      1  N   UNL     1      38.249  18.066 121.044 -0.06 -0.00    +0.000 N 
DOCKED: ATOM      2  H   UNL     1      38.496  17.532 121.877 +0.01 -0.00    +0.000 HD
DOCKED: ENDROOT
DOCKED: BRANCH   1   3
DOCKED: ATOM      3  C   UNL     1      37.039  17.459 120.449 -0.13 -0.00    +0.000 C 
DOCKED: BRANCH   3   7
DOCKED: ATOM      4  C   UNL     1      37.228  13.142 120.688 -0.41 -0.00    +0.000 A 
DOCKED: ATOM      5  C   UNL     1      37.360  13.927 121.846 -0.38 -0.00    +0.000 A 
DOCKED: ATOM      6  C   UNL     1      37.308  15.321 121.772 -0.26 -0.00    +0.000 A 
DOCKED: ATOM      7  C   UNL     1      37.116  15.958 120.537 -0.18 -0.00    +0.000 A 
DOCKED: ATOM      8  C   UNL     1      36.962  15.181 119.381 -0.20 -0.00    +0.000 A 
DOCKED: ATOM      9  C   UNL     1      37.015  13.785 119.452 -0.34 -0.00    +0.000 A 
DOCKED: ATOM     10  CM  UNL     1      37.165  14.553 120.612 +0.00 -0.00    +0.000 AC
DOCKED: BRANCH   4  11
DOCKED: ATOM     11  C   UNL     1      36.986  11.011 121.955 -0.56 -0.00    +0.000 C 
DOCKED: ATOM     12  C   UNL     1      37.280  11.665 120.822 -0.48 -0.00    +0.000 C 
DOCKED: BRANCH  10  13
DOCKED: ATOM     13  O   UNL     1      37.062   8.846 121.030 -2.70 -0.00    +0.000 OA
DOCKED: ATOM     14  C   UNL     1      37.039   9.539 122.082 -0.62 -0.00    +0.000 C 
DOCKED: ATOM     15  N   UNL     1      37.093   8.881 123.355 -0.62 -0.00    +0.000 N 
DOCKED: ATOM     16  H   UNL     1      37.180   9.412 124.178 -0.59 -0.00    +0.000 HD
DOCKED: BRANCH  14  16
DOCKED: ATOM     17  O   UNL     1      37.026   7.530 123.425 -2.18 -0.00    +0.000 OA
DOCKED: ATOM     18  H   UNL     1      37.283   7.149 122.571 -0.17 -0.00    +0.000 HD
DOCKED: ENDBRANCH  14  16
DOCKED: ENDBRANCH  10  13
DOCKED: ENDBRANCH   4  11
DOCKED: ENDBRANCH   3   7
DOCKED: ENDBRANCH   1   3
DOCKED: BRANCH   1  18
DOCKED: ATOM     19  C   UNL     1      39.417  17.944 120.139 -0.05 -0.00    +0.000 C 
DOCKED: BRANCH  18  19
DOCKED: ATOM     20  C   UNL     1      40.604  17.234 120.811 -0.12 -0.00    +0.000 C 
DOCKED: BRANCH  19  20
DOCKED: ATOM     21  O   UNL     1      40.166  16.347 121.805 -0.23 -0.00    +0.000 OA
DOCKED: ATOM     22  H   UNL     1      39.736  15.583 121.391 -0.00 -0.00    +0.000 HD
DOCKED: ENDBRANCH  19  20
DOCKED: ENDBRANCH  18  19
DOCKED: ENDBRANCH   1  18
DOCKED: BRANCH   1  22
DOCKED: ATOM     23  C   UNL     1      37.997  19.441 121.538 -0.07 -0.00    +0.000 C 
DOCKED: BRANCH  22  23
DOCKED: ATOM     24  C   UNL     1      36.513  19.750 121.817 -0.14 -0.00    +0.000 C 
DOCKED: BRANCH  23  24
DOCKED: ATOM     25  C   UNL     1      36.148  19.327 123.208 -0.18 -0.00    +0.000 A 
DOCKED: ATOM     26  C   UNL     1      36.584  19.909 124.395 -0.14 -0.00    +0.000 A 
DOCKED: ATOM     27  N   UNL     1      36.116  19.217 125.459 -0.16 -0.00    +0.000 N 
DOCKED: ATOM     28  C   UNL     1      35.401  18.197 124.954 -0.25 -0.00    +0.000 A 
DOCKED: ATOM     29  C   UNL     1      35.403  18.227 123.583 -0.26 -0.00    +0.000 A 
DOCKED: ATOM     30  C   UNL     1      34.751  17.253 122.824 -0.35 -0.00    +0.000 A 
DOCKED: ATOM     31  C   UNL     1      34.074  16.230 123.514 -0.37 -0.00    +0.000 A 
DOCKED: ATOM     32  C   UNL     1      34.067  16.202 124.926 -0.45 -0.00    +0.000 A 
DOCKED: ATOM     33  C   UNL     1      34.740  17.195 125.663 -0.26 -0.00    +0.000 A 
DOCKED: ATOM     34  H   UNL     1      36.267  19.421 126.410 -0.00 -0.00    +0.000 HD
DOCKED: ATOM     35  CM  UNL     1      35.936  18.983 124.356 -0.06 -0.00    +0.000 AC
DOCKED: ATOM     36  CM  UNL     1      34.739  17.217 124.244 -0.25 -0.00    +0.000 AC
DOCKED: ENDBRANCH  23  24
DOCKED: ENDBRANCH  22  23
DOCKED: ENDBRANCH   1  22
DOCKED: TORSDOF 11DOCKED: TER
DOCKED: ENDMDL
________________________________________________________________________________


	BEGINNING GENETIC ALGORITHM DOCKING 50 of 100
Run: 50 Seed: 1583908567 633691411 [ Run 50 of 100 GA/GALS ]
Beginning LAMARCKIAN GENETIC ALGORITHM (LGA), with a maximum of 2500000 energy evaluations.

Final-Value: -16.991


	FINAL GENETIC ALGORITHM DOCKED STATE
	_______________________________________________


Detailed state:  trans 36.635 16.987 122.504 quatxyzw 0.479538 -0.331487 -0.810520 -0.056713 center 0.460 0.128 -0.007 ntor 11 16.9545 180.0000 -116.8683 -131.2600 -24.8492 144.7215 5.8254 -57.6619 139.6988 103.1476 57.5807
State:	 36.635  16.987 122.504   0.480 -0.332 -0.812 -173.498     16.95  180.00 -116.87 -131.26  -24.85  144.72    5.83  -57.66  139.70  103.15   57.58

DOCKED: MODEL       50
DOCKED: USER    Run = 50
DOCKED: USER    DPF = ligand_dock.biased.dpf
DOCKED: USER  
DOCKED: USER    Estimated Free Energy of Binding    =  -11.46 kcal/mol  [=(1)+(2)+(3)-(4)]
DOCKED: USER    Estimated Inhibition Constant, Ki   =    3.97 nM (nanomolar)  [Temperature = 298.15 K]
DOCKED: USER    
DOCKED: USER    (1) Final Intermolecular Energy     =  -14.74 kcal/mol
DOCKED: USER        vdW + Hbond + desolv Energy     =  -14.74 kcal/mol
DOCKED: USER        Electrostatic Energy            =   +0.00 kcal/mol
DOCKED: USER    (2) Final Total Internal Energy     =   -2.25 kcal/mol
DOCKED: USER    (3) Torsional Free Energy           =   +3.28 kcal/mol
DOCKED: USER    (4) Unbound System's Energy  [=(2)] =   -2.25 kcal/mol
DOCKED: USER    
DOCKED: USER    
DOCKED: USER    NEWDPF move ligand.dum.pdbqt
DOCKED: USER    NEWDPF about 0.460000 0.128000 -0.007000
DOCKED: USER    NEWDPF tran0 36.635057 16.986573 122.503725
DOCKED: USER    NEWDPF quaternion0 0.479538 -0.331487 -0.810520 -0.056713
DOCKED: USER    NEWDPF axisangle0 0.480311 -0.332021 -0.811827 -173.497735
DOCKED: USER    NEWDPF quat0 0.480311 -0.332021 -0.811827 -173.497735
DOCKED: USER    NEWDPF dihe0 16.95 180.00 -116.87 -131.26 -24.85 144.72 5.83 -57.66 139.70 103.15 57.58 
DOCKED: USER  keepresnum = 1 
DOCKED: USER  
DOCKED: REMARK  Name = 
DOCKED: REMARK  11 active torsions:
DOCKED: REMARK  status: ('A' for Active; 'I' for Inactive)
DOCKED: REMARK    1  A    between atoms: C_2  and  C_5
DOCKED: REMARK    2  A    between atoms: N_3  and  O_4
DOCKED: REMARK    3  A    between atoms: C_6  and  C_7
DOCKED: REMARK    4  A    between atoms: C_10  and  C_11
DOCKED: REMARK    5  A    between atoms: C_11  and  N_12
DOCKED: REMARK    6  A    between atoms: N_12  and  C_13
DOCKED: REMARK    7  A    between atoms: N_12  and  C_16
DOCKED: REMARK    8  A    between atoms: C_13  and  C_14
DOCKED: REMARK    9  A    between atoms: C_14  and  O_15
DOCKED: REMARK   10  A    between atoms: C_16  and  C_17
DOCKED: REMARK   11  A    between atoms: C_17  and  C_18
DOCKED: REMARK                            x       y       z     vdW  Elec       q    Type
DOCKED: REMARK                         _______ _______ _______ _____ _____    ______ ____
DOCKED: USER                              x       y       z     vdW  Elec       q    Type
DOCKED: USER                           _______ _______ _______ _____ _____    ______ ____
DOCKED: ROOT
DOCKED: ATOM      1  N   UNL     1      37.423  18.329 122.456 -0.11 -0.00    +0.000 N 
DOCKED: ATOM      2  H   UNL     1      37.774  17.611 121.822 +0.01 -0.00    +0.000 HD
DOCKED: ENDROOT
DOCKED: BRANCH   1   3
DOCKED: ATOM      3  C   UNL     1      36.196  17.814 123.102 -0.25 -0.00    +0.000 C 
DOCKED: BRANCH   3   7
DOCKED: ATOM      4  C   UNL     1      36.203  13.486 123.107 -0.47 -0.00    +0.000 A 
DOCKED: ATOM      5  C   UNL     1      37.182  14.200 122.396 -0.40 -0.00    +0.000 A 
DOCKED: ATOM      6  C   UNL     1      37.178  15.598 122.384 -0.28 -0.00    +0.000 A 
DOCKED: ATOM      7  C   UNL     1      36.198  16.308 123.092 -0.31 -0.00    +0.000 A 
DOCKED: ATOM      8  C   UNL     1      35.231  15.603 123.821 -0.47 -0.00    +0.000 A 
DOCKED: ATOM      9  C   UNL     1      35.232  14.205 123.833 -0.42 -0.00    +0.000 A 
DOCKED: ATOM     10  CM  UNL     1      36.204  14.900 123.106 +0.00 -0.00    +0.000 AC
DOCKED: BRANCH   4  11
DOCKED: ATOM     11  C   UNL     1      37.005  11.294 122.237 -0.58 -0.00    +0.000 C 
DOCKED: ATOM     12  C   UNL     1      36.259  12.003 123.095 -0.68 -0.00    +0.000 C 
DOCKED: BRANCH  10  13
DOCKED: ATOM     13  O   UNL     1      37.047   9.220 121.122 -2.73 -0.00    +0.000 OA
DOCKED: ATOM     14  C   UNL     1      37.056   9.816 122.231 -0.59 -0.00    +0.000 C 
DOCKED: ATOM     15  N   UNL     1      37.142   9.048 123.439 -0.55 -0.00    +0.000 N 
DOCKED: ATOM     16  H   UNL     1      37.254   9.504 124.304 -0.59 -0.00    +0.000 HD
DOCKED: BRANCH  14  16
DOCKED: ATOM     17  O   UNL     1      37.072   7.696 123.391 -2.29 -0.00    +0.000 OA
DOCKED: ATOM     18  H   UNL     1      37.231   7.396 122.483 -0.11 -0.00    +0.000 HD
DOCKED: ENDBRANCH  14  16
DOCKED: ENDBRANCH  10  13
DOCKED: ENDBRANCH   4  11
DOCKED: ENDBRANCH   3   7
DOCKED: ENDBRANCH   1   3
DOCKED: BRANCH   1  18
DOCKED: ATOM     19  C   UNL     1      37.131  19.502 121.597 -0.12 -0.00    +0.000 C 
DOCKED: BRANCH  18  19
DOCKED: ATOM     20  C   UNL     1      36.605  20.699 122.405 -0.09 -0.00    +0.000 C 
DOCKED: BRANCH  19  20
DOCKED: ATOM     21  O   UNL     1      36.789  21.902 121.706 -0.17 -0.00    +0.000 OA
DOCKED: ATOM     22  H   UNL     1      35.929  22.317 121.544 -0.63 -0.00    +0.000 HD
DOCKED: ENDBRANCH  19  20
DOCKED: ENDBRANCH  18  19
DOCKED: ENDBRANCH   1  18
DOCKED: BRANCH   1  22
DOCKED: ATOM     23  C   UNL     1      38.520  18.539 123.431 -0.14 -0.00    +0.000 C 
DOCKED: BRANCH  22  23
DOCKED: ATOM     24  C   UNL     1      39.161  17.237 123.951 -0.20 -0.00    +0.000 C 
DOCKED: BRANCH  23  24
DOCKED: ATOM     25  C   UNL     1      40.582  17.137 123.487 -0.27 -0.00    +0.000 A 
DOCKED: ATOM     26  C   UNL     1      41.720  17.464 124.220 -0.23 -0.00    +0.000 A 
DOCKED: ATOM     27  N   UNL     1      42.828  17.324 123.457 -0.34 -0.00    +0.000 N 
DOCKED: ATOM     28  C   UNL     1      42.399  16.927 122.247 -0.29 -0.00    +0.000 A 
DOCKED: ATOM     29  C   UNL     1      41.033  16.808 122.224 -0.23 -0.00    +0.000 A 
DOCKED: ATOM     30  C   UNL     1      40.345  16.436 121.069 -0.17 -0.00    +0.000 A 
DOCKED: ATOM     31  C   UNL     1      41.102  16.172 119.912 -0.13 -0.00    +0.000 A 
DOCKED: ATOM     32  C   UNL     1      42.509  16.289 119.935 -0.17 -0.00    +0.000 A 
DOCKED: ATOM     33  C   UNL     1      43.174  16.674 121.116 -0.22 -0.00    +0.000 A 
DOCKED: ATOM     34  H   UNL     1      43.760  17.481 123.733 -0.51 -0.00    +0.000 HD
DOCKED: ATOM     35  CM  UNL     1      41.748  17.138 123.137 +0.00 -0.00    +0.000 AC
DOCKED: ATOM     36  CM  UNL     1      41.761  16.551 121.084 +0.00 -0.00    +0.000 AC
DOCKED: ENDBRANCH  23  24
DOCKED: ENDBRANCH  22  23
DOCKED: ENDBRANCH   1  22
DOCKED: TORSDOF 11DOCKED: TER
DOCKED: ENDMDL
________________________________________________________________________________


	BEGINNING GENETIC ALGORITHM DOCKING 51 of 100
Run: 51 Seed: 748499486 1041696594 [ Run 51 of 100 GA/GALS ]
Beginning LAMARCKIAN GENETIC ALGORITHM (LGA), with a maximum of 2500000 energy evaluations.

Final-Value: -17.293


	FINAL GENETIC ALGORITHM DOCKED STATE
	_______________________________________________


Detailed state:  trans 36.120 16.709 123.771 quatxyzw -0.232275 -0.035154 -0.945520 -0.225399 center 0.460 0.128 -0.007 ntor 11 9.8838 162.2910 42.7620 102.2616 -180.0000 -89.6391 136.1532 -81.5733 -4.3772 -148.4701 70.9865
State:	 36.120  16.709 123.771  -0.238 -0.036 -0.970 -153.947      9.88  162.29   42.76  102.26 -180.00  -89.64  136.15  -81.57   -4.38 -148.47   70.99

DOCKED: MODEL       51
DOCKED: USER    Run = 51
DOCKED: USER    DPF = ligand_dock.biased.dpf
DOCKED: USER  
DOCKED: USER    Estimated Free Energy of Binding    =  -10.68 kcal/mol  [=(1)+(2)+(3)-(4)]
DOCKED: USER    Estimated Inhibition Constant, Ki   =   14.94 nM (nanomolar)  [Temperature = 298.15 K]
DOCKED: USER    
DOCKED: USER    (1) Final Intermolecular Energy     =  -13.96 kcal/mol
DOCKED: USER        vdW + Hbond + desolv Energy     =  -13.96 kcal/mol
DOCKED: USER        Electrostatic Energy            =   +0.00 kcal/mol
DOCKED: USER    (2) Final Total Internal Energy     =   -3.34 kcal/mol
DOCKED: USER    (3) Torsional Free Energy           =   +3.28 kcal/mol
DOCKED: USER    (4) Unbound System's Energy  [=(2)] =   -3.34 kcal/mol
DOCKED: USER    
DOCKED: USER    
DOCKED: USER    NEWDPF move ligand.dum.pdbqt
DOCKED: USER    NEWDPF about 0.460000 0.128000 -0.007000
DOCKED: USER    NEWDPF tran0 36.120064 16.709362 123.771230
DOCKED: USER    NEWDPF quaternion0 -0.232275 -0.035154 -0.945520 -0.225399
DOCKED: USER    NEWDPF axisangle0 -0.238410 -0.036083 -0.970494 -153.947302
DOCKED: USER    NEWDPF quat0 -0.238410 -0.036083 -0.970494 -153.947302
DOCKED: USER    NEWDPF dihe0 9.88 162.29 42.76 102.26 -180.00 -89.64 136.15 -81.57 -4.38 -148.47 70.99 
DOCKED: USER  keepresnum = 1 
DOCKED: USER  
DOCKED: REMARK  Name = 
DOCKED: REMARK  11 active torsions:
DOCKED: REMARK  status: ('A' for Active; 'I' for Inactive)
DOCKED: REMARK    1  A    between atoms: C_2  and  C_5
DOCKED: REMARK    2  A    between atoms: N_3  and  O_4
DOCKED: REMARK    3  A    between atoms: C_6  and  C_7
DOCKED: REMARK    4  A    between atoms: C_10  and  C_11
DOCKED: REMARK    5  A    between atoms: C_11  and  N_12
DOCKED: REMARK    6  A    between atoms: N_12  and  C_13
DOCKED: REMARK    7  A    between atoms: N_12  and  C_16
DOCKED: REMARK    8  A    between atoms: C_13  and  C_14
DOCKED: REMARK    9  A    between atoms: C_14  and  O_15
DOCKED: REMARK   10  A    between atoms: C_16  and  C_17
DOCKED: REMARK   11  A    between atoms: C_17  and  C_18
DOCKED: REMARK                            x       y       z     vdW  Elec       q    Type
DOCKED: REMARK                         _______ _______ _______ _____ _____    ______ ____
DOCKED: USER                              x       y       z     vdW  Elec       q    Type
DOCKED: USER                           _______ _______ _______ _____ _____    ______ ____
DOCKED: ROOT
DOCKED: ATOM      1  N   UNL     1      36.304  18.207 123.385 -0.19 -0.00    +0.000 N 
DOCKED: ATOM      2  H   UNL     1      35.540  17.737 122.900 -0.00 -0.00    +0.000 HD
DOCKED: ENDROOT
DOCKED: BRANCH   1   3
DOCKED: ATOM      3  C   UNL     1      36.872  17.264 124.373 -0.16 -0.00    +0.000 C 
DOCKED: BRANCH   3   7
DOCKED: ATOM      4  C   UNL     1      36.871  13.235 122.793 -0.50 -0.00    +0.000 A 
DOCKED: ATOM      5  C   UNL     1      38.047  14.003 122.786 -0.43 -0.00    +0.000 A 
DOCKED: ATOM      6  C   UNL     1      38.050  15.308 123.287 -0.23 -0.00    +0.000 A 
DOCKED: ATOM      7  C   UNL     1      36.876  15.866 123.813 -0.27 -0.00    +0.000 A 
DOCKED: ATOM      8  C   UNL     1      35.704  15.098 123.842 -0.46 -0.00    +0.000 A 
DOCKED: ATOM      9  C   UNL     1      35.698  13.793 123.341 -0.37 -0.00    +0.000 A 
DOCKED: ATOM     10  CM  UNL     1      36.874  14.551 123.311 +0.00 -0.00    +0.000 AC
DOCKED: BRANCH   4  11
DOCKED: ATOM     11  C   UNL     1      36.796  10.755 123.020 -0.67 -0.00    +0.000 C 
DOCKED: ATOM     12  C   UNL     1      36.924  11.851 122.259 -0.60 -0.00    +0.000 C 
DOCKED: BRANCH  10  13
DOCKED: ATOM     13  O   UNL     1      36.701   9.215 121.241 -2.61 -0.00    +0.000 OA
DOCKED: ATOM     14  C   UNL     1      36.849   9.379 122.480 -0.68 -0.00    +0.000 C 
DOCKED: ATOM     15  N   UNL     1      37.091   8.238 123.314 -0.72 -0.00    +0.000 N 
DOCKED: ATOM     16  H   UNL     1      37.310   8.363 124.265 -0.45 -0.00    +0.000 HD
DOCKED: BRANCH  14  16
DOCKED: ATOM     17  O   UNL     1      37.019   6.989 122.795 -1.69 -0.00    +0.000 OA
DOCKED: ATOM     18  H   UNL     1      36.950   7.044 121.829 -0.12 -0.00    +0.000 HD
DOCKED: ENDBRANCH  14  16
DOCKED: ENDBRANCH  10  13
DOCKED: ENDBRANCH   4  11
DOCKED: ENDBRANCH   3   7
DOCKED: ENDBRANCH   1   3
DOCKED: BRANCH   1  18
DOCKED: ATOM     19  C   UNL     1      35.686  19.379 124.049 -0.21 -0.00    +0.000 C 
DOCKED: BRANCH  18  19
DOCKED: ATOM     20  C   UNL     1      34.499  18.985 124.943 -0.26 -0.00    +0.000 C 
DOCKED: BRANCH  19  20
DOCKED: ATOM     21  O   UNL     1      33.699  18.014 124.324 -0.45 -0.00    +0.000 OA
DOCKED: ATOM     22  H   UNL     1      33.900  17.143 124.698 -0.02 -0.00    +0.000 HD
DOCKED: ENDBRANCH  19  20
DOCKED: ENDBRANCH  18  19
DOCKED: ENDBRANCH   1  18
DOCKED: BRANCH   1  22
DOCKED: ATOM     23  C   UNL     1      37.276  18.547 122.318 -0.13 -0.00    +0.000 C 
DOCKED: BRANCH  22  23
DOCKED: ATOM     24  C   UNL     1      38.435  19.450 122.784 -0.07 -0.00    +0.000 C 
DOCKED: BRANCH  23  24
DOCKED: ATOM     25  C   UNL     1      39.582  18.615 123.266 -0.12 -0.00    +0.000 A 
DOCKED: ATOM     26  C   UNL     1      40.279  18.770 124.461 -0.19 -0.00    +0.000 A 
DOCKED: ATOM     27  N   UNL     1      41.303  17.889 124.528 -0.34 -0.00    +0.000 N 
DOCKED: ATOM     28  C   UNL     1      41.267  17.190 123.381 -0.31 -0.00    +0.000 A 
DOCKED: ATOM     29  C   UNL     1      40.235  17.608 122.582 -0.16 -0.00    +0.000 A 
DOCKED: ATOM     30  C   UNL     1      40.006  17.053 121.322 -0.12 -0.00    +0.000 A 
DOCKED: ATOM     31  C   UNL     1      40.870  16.029 120.892 -0.20 -0.00    +0.000 A 
DOCKED: ATOM     32  C   UNL     1      41.931  15.593 121.716 -0.34 -0.00    +0.000 A 
DOCKED: ATOM     33  C   UNL     1      42.140  16.179 122.979 -0.40 -0.00    +0.000 A 
DOCKED: ATOM     34  H   UNL     1      41.944  17.782 125.267 -0.48 -0.00    +0.000 HD
DOCKED: ATOM     35  CM  UNL     1      40.558  18.010 123.672 +0.00 -0.00    +0.000 AC
DOCKED: ATOM     36  CM  UNL     1      41.075  16.608 122.145 +0.00 -0.00    +0.000 AC
DOCKED: ENDBRANCH  23  24
DOCKED: ENDBRANCH  22  23
DOCKED: ENDBRANCH   1  22
DOCKED: TORSDOF 11DOCKED: TER
DOCKED: ENDMDL
________________________________________________________________________________


	BEGINNING GENETIC ALGORITHM DOCKING 52 of 100
Run: 52 Seed: 1407661889 1534207029 [ Run 52 of 100 GA/GALS ]
Beginning LAMARCKIAN GENETIC ALGORITHM (LGA), with a maximum of 2500000 energy evaluations.

Final-Value: -17.988


	FINAL GENETIC ALGORITHM DOCKED STATE
	_______________________________________________


Detailed state:  trans 36.930 16.670 121.482 quatxyzw 0.878711 -0.265505 0.241290 0.314885 center 0.460 0.128 -0.007 ntor 11 4.4858 -23.8589 61.4826 50.7061 157.1764 -179.5461 147.8619 -112.4770 153.4677 100.0678 38.7954
State:	 36.930  16.670 121.482   0.926 -0.280  0.254 143.292      4.49  -23.86   61.48   50.71  157.18 -179.55  147.86 -112.48  153.47  100.07   38.80

DOCKED: MODEL       52
DOCKED: USER    Run = 52
DOCKED: USER    DPF = ligand_dock.biased.dpf
DOCKED: USER  
DOCKED: USER    Estimated Free Energy of Binding    =  -10.98 kcal/mol  [=(1)+(2)+(3)-(4)]
DOCKED: USER    Estimated Inhibition Constant, Ki   =    8.99 nM (nanomolar)  [Temperature = 298.15 K]
DOCKED: USER    
DOCKED: USER    (1) Final Intermolecular Energy     =  -14.26 kcal/mol
DOCKED: USER        vdW + Hbond + desolv Energy     =  -14.26 kcal/mol
DOCKED: USER        Electrostatic Energy            =   +0.00 kcal/mol
DOCKED: USER    (2) Final Total Internal Energy     =   -3.73 kcal/mol
DOCKED: USER    (3) Torsional Free Energy           =   +3.28 kcal/mol
DOCKED: USER    (4) Unbound System's Energy  [=(2)] =   -3.73 kcal/mol
DOCKED: USER    
DOCKED: USER    
DOCKED: USER    NEWDPF move ligand.dum.pdbqt
DOCKED: USER    NEWDPF about 0.460000 0.128000 -0.007000
DOCKED: USER    NEWDPF tran0 36.930228 16.670154 121.482257
DOCKED: USER    NEWDPF quaternion0 0.878711 -0.265505 0.241290 0.314885
DOCKED: USER    NEWDPF axisangle0 0.925807 -0.279735 0.254222 143.292224
DOCKED: USER    NEWDPF quat0 0.925807 -0.279735 0.254222 143.292224
DOCKED: USER    NEWDPF dihe0 4.49 -23.86 61.48 50.71 157.18 -179.55 147.86 -112.48 153.47 100.07 38.80 
DOCKED: USER  keepresnum = 1 
DOCKED: USER  
DOCKED: REMARK  Name = 
DOCKED: REMARK  11 active torsions:
DOCKED: REMARK  status: ('A' for Active; 'I' for Inactive)
DOCKED: REMARK    1  A    between atoms: C_2  and  C_5
DOCKED: REMARK    2  A    between atoms: N_3  and  O_4
DOCKED: REMARK    3  A    between atoms: C_6  and  C_7
DOCKED: REMARK    4  A    between atoms: C_10  and  C_11
DOCKED: REMARK    5  A    between atoms: C_11  and  N_12
DOCKED: REMARK    6  A    between atoms: N_12  and  C_13
DOCKED: REMARK    7  A    between atoms: N_12  and  C_16
DOCKED: REMARK    8  A    between atoms: C_13  and  C_14
DOCKED: REMARK    9  A    between atoms: C_14  and  O_15
DOCKED: REMARK   10  A    between atoms: C_16  and  C_17
DOCKED: REMARK   11  A    between atoms: C_17  and  C_18
DOCKED: REMARK                            x       y       z     vdW  Elec       q    Type
DOCKED: REMARK                         _______ _______ _______ _____ _____    ______ ____
DOCKED: USER                              x       y       z     vdW  Elec       q    Type
DOCKED: USER                           _______ _______ _______ _____ _____    ______ ____
DOCKED: ROOT
DOCKED: ATOM      1  N   UNL     1      36.622  18.067 122.097 -0.15 -0.00    +0.000 N 
DOCKED: ATOM      2  H   UNL     1      36.524  17.289 122.749 +0.00 -0.00    +0.000 HD
DOCKED: ENDROOT
DOCKED: BRANCH   1   3
DOCKED: ATOM      3  C   UNL     1      37.143  17.536 120.819 -0.13 -0.00    +0.000 C 
DOCKED: BRANCH   3   7
DOCKED: ATOM      4  C   UNL     1      37.364  13.216 120.967 -0.41 -0.00    +0.000 A 
DOCKED: ATOM      5  C   UNL     1      37.125  13.959 122.136 -0.39 -0.00    +0.000 A 
DOCKED: ATOM      6  C   UNL     1      37.062  15.354 122.094 -0.28 -0.00    +0.000 A 
DOCKED: ATOM      7  C   UNL     1      37.229  16.034 120.879 -0.18 -0.00    +0.000 A 
DOCKED: ATOM      8  C   UNL     1      37.447  15.299 119.705 -0.21 -0.00    +0.000 A 
DOCKED: ATOM      9  C   UNL     1      37.512  13.903 119.745 -0.34 -0.00    +0.000 A 
DOCKED: ATOM     10  CM  UNL     1      37.290  14.628 120.921 +0.00 -0.00    +0.000 AC
DOCKED: BRANCH   4  11
DOCKED: ATOM     11  C   UNL     1      36.852  11.038 122.063 -0.60 -0.00    +0.000 C 
DOCKED: ATOM     12  C   UNL     1      37.412  11.736 121.065 -0.48 -0.00    +0.000 C 
DOCKED: BRANCH  10  13
DOCKED: ATOM     13  O   UNL     1      36.767   8.893 121.096 -2.63 -0.00    +0.000 OA
DOCKED: ATOM     14  C   UNL     1      36.903   9.564 122.153 -0.65 -0.00    +0.000 C 
DOCKED: ATOM     15  N   UNL     1      37.127   8.879 123.393 -0.60 -0.00    +0.000 N 
DOCKED: ATOM     16  H   UNL     1      37.337   9.393 124.206 -0.62 -0.00    +0.000 HD
DOCKED: BRANCH  14  16
DOCKED: ATOM     17  O   UNL     1      37.053   7.528 123.448 -2.19 -0.00    +0.000 OA
DOCKED: ATOM     18  H   UNL     1      36.909   7.177 122.555 -0.08 -0.00    +0.000 HD
DOCKED: ENDBRANCH  14  16
DOCKED: ENDBRANCH  10  13
DOCKED: ENDBRANCH   4  11
DOCKED: ENDBRANCH   3   7
DOCKED: ENDBRANCH   1   3
DOCKED: BRANCH   1  18
DOCKED: ATOM     19  C   UNL     1      37.590  18.992 122.734 -0.11 -0.00    +0.000 C 
DOCKED: BRANCH  18  19
DOCKED: ATOM     20  C   UNL     1      38.135  18.442 124.062 -0.18 -0.00    +0.000 C 
DOCKED: BRANCH  19  20
DOCKED: ATOM     21  O   UNL     1      37.259  17.499 124.617 -0.25 -0.00    +0.000 OA
DOCKED: ATOM     22  H   UNL     1      36.575  17.956 125.131 -0.01 -0.00    +0.000 HD
DOCKED: ENDBRANCH  19  20
DOCKED: ENDBRANCH  18  19
DOCKED: ENDBRANCH   1  18
DOCKED: BRANCH   1  22
DOCKED: ATOM     23  C   UNL     1      35.252  18.615 121.955 -0.26 -0.00    +0.000 C 
DOCKED: BRANCH  22  23
DOCKED: ATOM     24  C   UNL     1      34.133  17.567 122.118 -0.40 -0.00    +0.000 C 
DOCKED: BRANCH  23  24
DOCKED: ATOM     25  C   UNL     1      34.218  16.923 123.468 -0.37 -0.00    +0.000 A 
DOCKED: ATOM     26  C   UNL     1      34.418  15.570 123.732 -0.50 -0.00    +0.000 A 
DOCKED: ATOM     27  N   UNL     1      34.359  15.337 125.063 -0.51 -0.00    +0.000 N 
DOCKED: ATOM     28  C   UNL     1      34.110  16.526 125.639 -0.39 -0.00    +0.000 A 
DOCKED: ATOM     29  C   UNL     1      34.010  17.517 124.697 -0.36 -0.00    +0.000 A 
DOCKED: ATOM     30  C   UNL     1      33.726  18.838 125.045 -0.09 -0.00    +0.000 A 
DOCKED: ATOM     31  C   UNL     1      33.552  19.133 126.410 -0.24 -0.00    +0.000 A 
DOCKED: ATOM     32  C   UNL     1      33.659  18.114 127.382 -0.24 -0.00    +0.000 A 
DOCKED: ATOM     33  C   UNL     1      33.940  16.788 126.998 -0.22 -0.00    +0.000 A 
DOCKED: ATOM     34  H   UNL     1      34.476  14.472 125.518 -0.01 -0.00    +0.000 HD
DOCKED: ATOM     35  CM  UNL     1      34.227  16.342 124.538 -0.07 -0.00    +0.000 AC
DOCKED: ATOM     36  CM  UNL     1      33.833  17.819 126.029 -0.12 -0.00    +0.000 AC
DOCKED: ENDBRANCH  23  24
DOCKED: ENDBRANCH  22  23
DOCKED: ENDBRANCH   1  22
DOCKED: TORSDOF 11DOCKED: TER
DOCKED: ENDMDL
________________________________________________________________________________


	BEGINNING GENETIC ALGORITHM DOCKING 53 of 100
Run: 53 Seed: 1416854337 215030021 [ Run 53 of 100 GA/GALS ]
Beginning LAMARCKIAN GENETIC ALGORITHM (LGA), with a maximum of 2500000 energy evaluations.

Final-Value: -16.230


	FINAL GENETIC ALGORITHM DOCKED STATE
	_______________________________________________


Detailed state:  trans 36.626 16.874 120.287 quatxyzw -0.118624 0.044984 -0.722771 -0.679343 center 0.460 0.128 -0.007 ntor 11 21.2142 108.2631 -39.6009 179.9433 151.0538 15.0610 -18.1702 -130.6056 179.8987 176.1145 -2.6839
State:	 36.626  16.874 120.287  -0.162  0.061 -0.985 -94.415     21.21  108.26  -39.60  179.94  151.05   15.06  -18.17 -130.61  179.90  176.11   -2.68

DOCKED: MODEL       53
DOCKED: USER    Run = 53
DOCKED: USER    DPF = ligand_dock.biased.dpf
DOCKED: USER  
DOCKED: USER    Estimated Free Energy of Binding    =  -10.11 kcal/mol  [=(1)+(2)+(3)-(4)]
DOCKED: USER    Estimated Inhibition Constant, Ki   =   38.83 nM (nanomolar)  [Temperature = 298.15 K]
DOCKED: USER    
DOCKED: USER    (1) Final Intermolecular Energy     =  -13.39 kcal/mol
DOCKED: USER        vdW + Hbond + desolv Energy     =  -13.39 kcal/mol
DOCKED: USER        Electrostatic Energy            =   +0.00 kcal/mol
DOCKED: USER    (2) Final Total Internal Energy     =   -2.84 kcal/mol
DOCKED: USER    (3) Torsional Free Energy           =   +3.28 kcal/mol
DOCKED: USER    (4) Unbound System's Energy  [=(2)] =   -2.84 kcal/mol
DOCKED: USER    
DOCKED: USER    
DOCKED: USER    NEWDPF move ligand.dum.pdbqt
DOCKED: USER    NEWDPF about 0.460000 0.128000 -0.007000
DOCKED: USER    NEWDPF tran0 36.626023 16.874224 120.286726
DOCKED: USER    NEWDPF quaternion0 -0.118624 0.044984 -0.722771 -0.679343
DOCKED: USER    NEWDPF axisangle0 -0.161653 0.061301 -0.984942 -94.415426
DOCKED: USER    NEWDPF quat0 -0.161653 0.061301 -0.984942 -94.415426
DOCKED: USER    NEWDPF dihe0 21.21 108.26 -39.60 179.94 151.05 15.06 -18.17 -130.61 179.90 176.11 -2.68 
DOCKED: USER  keepresnum = 1 
DOCKED: USER  
DOCKED: REMARK  Name = 
DOCKED: REMARK  11 active torsions:
DOCKED: REMARK  status: ('A' for Active; 'I' for Inactive)
DOCKED: REMARK    1  A    between atoms: C_2  and  C_5
DOCKED: REMARK    2  A    between atoms: N_3  and  O_4
DOCKED: REMARK    3  A    between atoms: C_6  and  C_7
DOCKED: REMARK    4  A    between atoms: C_10  and  C_11
DOCKED: REMARK    5  A    between atoms: C_11  and  N_12
DOCKED: REMARK    6  A    between atoms: N_12  and  C_13
DOCKED: REMARK    7  A    between atoms: N_12  and  C_16
DOCKED: REMARK    8  A    between atoms: C_13  and  C_14
DOCKED: REMARK    9  A    between atoms: C_14  and  O_15
DOCKED: REMARK   10  A    between atoms: C_16  and  C_17
DOCKED: REMARK   11  A    between atoms: C_17  and  C_18
DOCKED: REMARK                            x       y       z     vdW  Elec       q    Type
DOCKED: REMARK                         _______ _______ _______ _____ _____    ______ ____
DOCKED: USER                              x       y       z     vdW  Elec       q    Type
DOCKED: USER                           _______ _______ _______ _____ _____    ______ ____
DOCKED: ROOT
DOCKED: ATOM      1  N   UNL     1      35.460  17.892 120.456 -0.21 -0.00    +0.000 N 
DOCKED: ATOM      2  H   UNL     1      35.336  17.233 119.688 -0.01 -0.00    +0.000 HD
DOCKED: ENDROOT
DOCKED: BRANCH   1   3
DOCKED: ATOM      3  C   UNL     1      36.692  17.523 121.187 -0.17 -0.00    +0.000 C 
DOCKED: BRANCH   3   7
DOCKED: ATOM      4  C   UNL     1      37.145  13.221 121.327 -0.41 -0.00    +0.000 A 
DOCKED: ATOM      5  C   UNL     1      37.201  13.904 120.101 -0.32 -0.00    +0.000 A 
DOCKED: ATOM      6  C   UNL     1      37.046  15.292 120.050 -0.20 -0.00    +0.000 A 
DOCKED: ATOM      7  C   UNL     1      36.840  16.025 121.228 -0.19 -0.00    +0.000 A 
DOCKED: ATOM      8  C   UNL     1      36.804  15.352 122.457 -0.31 -0.00    +0.000 A 
DOCKED: ATOM      9  C   UNL     1      36.958  13.964 122.511 -0.42 -0.00    +0.000 A 
DOCKED: ATOM     10  CM  UNL     1      36.999  14.627 121.279 +0.00 -0.00    +0.000 AC
DOCKED: BRANCH   4  11
DOCKED: ATOM     11  C   UNL     1      36.669  10.918 122.150 -0.64 -0.00    +0.000 C 
DOCKED: ATOM     12  C   UNL     1      37.326  11.748 121.327 -0.48 -0.00    +0.000 C 
DOCKED: BRANCH  10  13
DOCKED: ATOM     13  O   UNL     1      36.864   8.853 121.036 -2.66 -0.00    +0.000 OA
DOCKED: ATOM     14  C   UNL     1      36.854   9.452 122.144 -0.67 -0.00    +0.000 C 
DOCKED: ATOM     15  N   UNL     1      37.048   8.699 123.349 -0.66 -0.00    +0.000 N 
DOCKED: ATOM     16  H   UNL     1      37.145   9.166 124.209 -0.58 -0.00    +0.000 HD
DOCKED: BRANCH  14  16
DOCKED: ATOM     17  O   UNL     1      37.099   7.346 123.305 -2.11 -0.00    +0.000 OA
DOCKED: ATOM     18  H   UNL     1      37.323   7.060 122.405 -0.19 -0.00    +0.000 HD
DOCKED: ENDBRANCH  14  16
DOCKED: ENDBRANCH  10  13
DOCKED: ENDBRANCH   4  11
DOCKED: ENDBRANCH   3   7
DOCKED: ENDBRANCH   1   3
DOCKED: BRANCH   1  18
DOCKED: ATOM     19  C   UNL     1      34.257  17.734 121.308 -0.31 -0.00    +0.000 C 
DOCKED: BRANCH  18  19
DOCKED: ATOM     20  C   UNL     1      34.611  17.592 122.797 -0.39 -0.00    +0.000 C 
DOCKED: BRANCH  19  20
DOCKED: ATOM     21  O   UNL     1      34.075  16.413 123.335 -0.53 -0.00    +0.000 OA
DOCKED: ATOM     22  H   UNL     1      34.269  15.669 122.744 -0.03 -0.00    +0.000 HD
DOCKED: ENDBRANCH  19  20
DOCKED: ENDBRANCH  18  19
DOCKED: ENDBRANCH   1  18
DOCKED: BRANCH   1  22
DOCKED: ATOM     23  C   UNL     1      35.578  19.217 119.801 -0.18 -0.00    +0.000 C 
DOCKED: BRANCH  22  23
DOCKED: ATOM     24  C   UNL     1      35.579  19.161 118.260 -0.10 -0.00    +0.000 C 
DOCKED: BRANCH  23  24
DOCKED: ATOM     25  C   UNL     1      34.569  18.165 117.776 -0.12 -0.00    +0.000 A 
DOCKED: ATOM     26  C   UNL     1      33.186  18.325 117.759 -0.15 -0.00    +0.000 A 
DOCKED: ATOM     27  N   UNL     1      32.586  17.192 117.329 -0.18 -0.00    +0.000 N 
DOCKED: ATOM     28  C   UNL     1      33.575  16.315 117.089 -0.12 -0.00    +0.000 A 
DOCKED: ATOM     29  C   UNL     1      34.800  16.870 117.356 -0.13 -0.00    +0.000 A 
DOCKED: ATOM     30  C   UNL     1      35.985  16.147 117.211 -0.14 -0.00    +0.000 A 
DOCKED: ATOM     31  C   UNL     1      35.888  14.815 116.767 -0.25 -0.00    +0.000 A 
DOCKED: ATOM     32  C   UNL     1      34.627  14.243 116.487 -0.30 -0.00    +0.000 A 
DOCKED: ATOM     33  C   UNL     1      33.450  14.998 116.650 -0.24 -0.00    +0.000 A 
DOCKED: ATOM     34  H   UNL     1      31.620  17.041 117.216 -0.01 -0.00    +0.000 HD
DOCKED: ATOM     35  CM  UNL     1      33.706  17.367 117.458 +0.00 -0.00    +0.000 AC
DOCKED: ATOM     36  CM  UNL     1      34.721  15.564 116.926 +0.00 -0.00    +0.000 AC
DOCKED: ENDBRANCH  23  24
DOCKED: ENDBRANCH  22  23
DOCKED: ENDBRANCH   1  22
DOCKED: TORSDOF 11DOCKED: TER
DOCKED: ENDMDL
________________________________________________________________________________


	BEGINNING GENETIC ALGORITHM DOCKING 54 of 100
Run: 54 Seed: 1659154273 1669085169 [ Run 54 of 100 GA/GALS ]
Beginning LAMARCKIAN GENETIC ALGORITHM (LGA), with a maximum of 2500000 energy evaluations.

Final-Value: -16.924


	FINAL GENETIC ALGORITHM DOCKED STATE
	_______________________________________________


Detailed state:  trans 37.767 15.258 122.190 quatxyzw -0.712622 0.593350 -0.363313 -0.090050 center 0.460 0.128 -0.007 ntor 11 9.5328 -172.5544 -120.0640 -39.9358 81.5290 179.6603 168.5202 -124.0302 126.7421 -78.8215 13.6019
State:	 37.767  15.258 122.190  -0.716  0.596 -0.365 -169.667      9.53 -172.55 -120.06  -39.94   81.53  179.66  168.52 -124.03  126.74  -78.82   13.60

DOCKED: MODEL       54
DOCKED: USER    Run = 54
DOCKED: USER    DPF = ligand_dock.biased.dpf
DOCKED: USER  
DOCKED: USER    Estimated Free Energy of Binding    =  -11.04 kcal/mol  [=(1)+(2)+(3)-(4)]
DOCKED: USER    Estimated Inhibition Constant, Ki   =    8.11 nM (nanomolar)  [Temperature = 298.15 K]
DOCKED: USER    
DOCKED: USER    (1) Final Intermolecular Energy     =  -14.32 kcal/mol
DOCKED: USER        vdW + Hbond + desolv Energy     =  -14.32 kcal/mol
DOCKED: USER        Electrostatic Energy            =   +0.00 kcal/mol
DOCKED: USER    (2) Final Total Internal Energy     =   -2.60 kcal/mol
DOCKED: USER    (3) Torsional Free Energy           =   +3.28 kcal/mol
DOCKED: USER    (4) Unbound System's Energy  [=(2)] =   -2.60 kcal/mol
DOCKED: USER    
DOCKED: USER    
DOCKED: USER    NEWDPF move ligand.dum.pdbqt
DOCKED: USER    NEWDPF about 0.460000 0.128000 -0.007000
DOCKED: USER    NEWDPF tran0 37.767370 15.257651 122.189796
DOCKED: USER    NEWDPF quaternion0 -0.712622 0.593350 -0.363313 -0.090050
DOCKED: USER    NEWDPF axisangle0 -0.715529 0.595771 -0.364795 -169.667005
DOCKED: USER    NEWDPF quat0 -0.715529 0.595771 -0.364795 -169.667005
DOCKED: USER    NEWDPF dihe0 9.53 -172.55 -120.06 -39.94 81.53 179.66 168.52 -124.03 126.74 -78.82 13.60 
DOCKED: USER  keepresnum = 1 
DOCKED: USER  
DOCKED: REMARK  Name = 
DOCKED: REMARK  11 active torsions:
DOCKED: REMARK  status: ('A' for Active; 'I' for Inactive)
DOCKED: REMARK    1  A    between atoms: C_2  and  C_5
DOCKED: REMARK    2  A    between atoms: N_3  and  O_4
DOCKED: REMARK    3  A    between atoms: C_6  and  C_7
DOCKED: REMARK    4  A    between atoms: C_10  and  C_11
DOCKED: REMARK    5  A    between atoms: C_11  and  N_12
DOCKED: REMARK    6  A    between atoms: N_12  and  C_13
DOCKED: REMARK    7  A    between atoms: N_12  and  C_16
DOCKED: REMARK    8  A    between atoms: C_13  and  C_14
DOCKED: REMARK    9  A    between atoms: C_14  and  O_15
DOCKED: REMARK   10  A    between atoms: C_16  and  C_17
DOCKED: REMARK   11  A    between atoms: C_17  and  C_18
DOCKED: REMARK                            x       y       z     vdW  Elec       q    Type
DOCKED: REMARK                         _______ _______ _______ _____ _____    ______ ____
DOCKED: USER                              x       y       z     vdW  Elec       q    Type
DOCKED: USER                           _______ _______ _______ _____ _____    ______ ____
DOCKED: ROOT
DOCKED: ATOM      1  N   UNL     1      38.703  16.460 122.509 -0.22 -0.00    +0.000 N 
DOCKED: ATOM      2  H   UNL     1      38.121  16.161 123.291 -0.01 -0.00    +0.000 HD
DOCKED: ENDROOT
DOCKED: BRANCH   1   3
DOCKED: ATOM      3  C   UNL     1      38.489  15.522 121.386 -0.27 -0.00    +0.000 C 
DOCKED: BRANCH   3   7
DOCKED: ATOM      4  C   UNL     1      36.871  11.792 122.871 -0.58 -0.00    +0.000 A 
DOCKED: ATOM      5  C   UNL     1      36.923  12.047 121.490 -0.49 -0.00    +0.000 A 
DOCKED: ATOM      6  C   UNL     1      37.437  13.254 121.007 -0.42 -0.00    +0.000 A 
DOCKED: ATOM      7  C   UNL     1      37.915  14.226 121.897 -0.38 -0.00    +0.000 A 
DOCKED: ATOM      8  C   UNL     1      37.886  13.970 123.274 -0.37 -0.00    +0.000 A 
DOCKED: ATOM      9  C   UNL     1      37.372  12.764 123.760 -0.33 -0.00    +0.000 A 
DOCKED: ATOM     10  CM  UNL     1      37.401  13.009 122.383 +0.00 -0.00    +0.000 AC
DOCKED: BRANCH   4  11
DOCKED: ATOM     11  C   UNL     1      36.248   9.400 122.554 -0.72 -0.00    +0.000 C 
DOCKED: ATOM     12  C   UNL     1      36.326  10.490 123.331 -0.61 -0.00    +0.000 C 
DOCKED: BRANCH  10  13
DOCKED: ATOM     13  O   UNL     1      36.481   7.117 123.080 -1.67 -0.00    +0.000 OA
DOCKED: ATOM     14  C   UNL     1      35.705   8.107 123.020 -0.74 -0.00    +0.000 C 
DOCKED: ATOM     15  N   UNL     1      34.339   7.952 123.429 -0.65 -0.00    +0.000 N 
DOCKED: ATOM     16  H   UNL     1      33.751   8.739 123.484 -0.45 -0.00    +0.000 HD
DOCKED: BRANCH  14  16
DOCKED: ATOM     17  O   UNL     1      33.857   6.725 123.739 -0.83 -0.00    +0.000 OA
DOCKED: ATOM     18  H   UNL     1      34.590   6.091 123.779 -0.13 -0.00    +0.000 HD
DOCKED: ENDBRANCH  14  16
DOCKED: ENDBRANCH  10  13
DOCKED: ENDBRANCH   4  11
DOCKED: ENDBRANCH   3   7
DOCKED: ENDBRANCH   1   3
DOCKED: BRANCH   1  18
DOCKED: ATOM     19  C   UNL     1      40.097  16.395 123.011 -0.29 -0.00    +0.000 C 
DOCKED: BRANCH  18  19
DOCKED: ATOM     20  C   UNL     1      40.530  17.699 123.700 -0.28 -0.00    +0.000 C 
DOCKED: BRANCH  19  20
DOCKED: ATOM     21  O   UNL     1      41.564  17.468 124.618 -0.65 -0.00    +0.000 OA
DOCKED: ATOM     22  H   UNL     1      42.307  18.060 124.426 -0.54 -0.00    +0.000 HD
DOCKED: ENDBRANCH  19  20
DOCKED: ENDBRANCH  18  19
DOCKED: ENDBRANCH   1  18
DOCKED: BRANCH   1  22
DOCKED: ATOM     23  C   UNL     1      38.230  17.829 122.189 -0.12 -0.00    +0.000 C 
DOCKED: BRANCH  22  23
DOCKED: ATOM     24  C   UNL     1      36.727  17.914 121.854 -0.17 -0.00    +0.000 C 
DOCKED: BRANCH  23  24
DOCKED: ATOM     25  C   UNL     1      35.924  17.167 122.875 -0.26 -0.00    +0.000 A 
DOCKED: ATOM     26  C   UNL     1      35.419  15.875 122.752 -0.21 -0.00    +0.000 A 
DOCKED: ATOM     27  N   UNL     1      34.676  15.556 123.836 -0.54 -0.00    +0.000 N 
DOCKED: ATOM     28  C   UNL     1      34.695  16.638 124.633 -0.43 -0.00    +0.000 A 
DOCKED: ATOM     29  C   UNL     1      35.442  17.644 124.077 -0.29 -0.00    +0.000 A 
DOCKED: ATOM     30  C   UNL     1      35.590  18.883 124.703 -0.21 -0.00    +0.000 A 
DOCKED: ATOM     31  C   UNL     1      34.952  19.071 125.943 -0.20 -0.00    +0.000 A 
DOCKED: ATOM     32  C   UNL     1      34.187  18.033 126.520 -0.28 -0.00    +0.000 A 
DOCKED: ATOM     33  C   UNL     1      34.051  16.796 125.860 -0.38 -0.00    +0.000 A 
DOCKED: ATOM     34  H   UNL     1      34.215  14.703 124.006 -0.06 -0.00    +0.000 HD
DOCKED: ATOM     35  CM  UNL     1      35.213  16.544 123.642 -0.04 -0.00    +0.000 AC
DOCKED: ATOM     36  CM  UNL     1      34.820  17.844 125.290 -0.47 -0.00    +0.000 AC
DOCKED: ENDBRANCH  23  24
DOCKED: ENDBRANCH  22  23
DOCKED: ENDBRANCH   1  22
DOCKED: TORSDOF 11DOCKED: TER
DOCKED: ENDMDL
________________________________________________________________________________


	BEGINNING GENETIC ALGORITHM DOCKING 55 of 100
Run: 55 Seed: 1555106288 739121529 [ Run 55 of 100 GA/GALS ]
Beginning LAMARCKIAN GENETIC ALGORITHM (LGA), with a maximum of 2500000 energy evaluations.

Final-Value: -17.284


	FINAL GENETIC ALGORITHM DOCKED STATE
	_______________________________________________


Detailed state:  trans 36.674 16.652 122.133 quatxyzw 0.390021 0.015187 0.796851 0.461173 center 0.460 0.128 -0.007 ntor 11 9.7225 20.4397 70.4138 64.0685 20.6840 123.6198 -28.0262 -56.2138 -169.7459 -148.9667 29.7576
State:	 36.674  16.652 122.133   0.440  0.017  0.898 125.074      9.72   20.44   70.41   64.07   20.68  123.62  -28.03  -56.21 -169.75 -148.97   29.76

DOCKED: MODEL       55
DOCKED: USER    Run = 55
DOCKED: USER    DPF = ligand_dock.biased.dpf
DOCKED: USER  
DOCKED: USER    Estimated Free Energy of Binding    =  -10.88 kcal/mol  [=(1)+(2)+(3)-(4)]
DOCKED: USER    Estimated Inhibition Constant, Ki   =   10.56 nM (nanomolar)  [Temperature = 298.15 K]
DOCKED: USER    
DOCKED: USER    (1) Final Intermolecular Energy     =  -14.16 kcal/mol
DOCKED: USER        vdW + Hbond + desolv Energy     =  -14.16 kcal/mol
DOCKED: USER        Electrostatic Energy            =   +0.00 kcal/mol
DOCKED: USER    (2) Final Total Internal Energy     =   -3.12 kcal/mol
DOCKED: USER    (3) Torsional Free Energy           =   +3.28 kcal/mol
DOCKED: USER    (4) Unbound System's Energy  [=(2)] =   -3.12 kcal/mol
DOCKED: USER    
DOCKED: USER    
DOCKED: USER    NEWDPF move ligand.dum.pdbqt
DOCKED: USER    NEWDPF about 0.460000 0.128000 -0.007000
DOCKED: USER    NEWDPF tran0 36.673703 16.652303 122.132984
DOCKED: USER    NEWDPF quaternion0 0.390021 0.015187 0.796851 0.461173
DOCKED: USER    NEWDPF axisangle0 0.439555 0.017115 0.898053 125.074324
DOCKED: USER    NEWDPF quat0 0.439555 0.017115 0.898053 125.074324
DOCKED: USER    NEWDPF dihe0 9.72 20.44 70.41 64.07 20.68 123.62 -28.03 -56.21 -169.75 -148.97 29.76 
DOCKED: USER  keepresnum = 1 
DOCKED: USER  
DOCKED: REMARK  Name = 
DOCKED: REMARK  11 active torsions:
DOCKED: REMARK  status: ('A' for Active; 'I' for Inactive)
DOCKED: REMARK    1  A    between atoms: C_2  and  C_5
DOCKED: REMARK    2  A    between atoms: N_3  and  O_4
DOCKED: REMARK    3  A    between atoms: C_6  and  C_7
DOCKED: REMARK    4  A    between atoms: C_10  and  C_11
DOCKED: REMARK    5  A    between atoms: C_11  and  N_12
DOCKED: REMARK    6  A    between atoms: N_12  and  C_13
DOCKED: REMARK    7  A    between atoms: N_12  and  C_16
DOCKED: REMARK    8  A    between atoms: C_13  and  C_14
DOCKED: REMARK    9  A    between atoms: C_14  and  O_15
DOCKED: REMARK   10  A    between atoms: C_16  and  C_17
DOCKED: REMARK   11  A    between atoms: C_17  and  C_18
DOCKED: REMARK                            x       y       z     vdW  Elec       q    Type
DOCKED: REMARK                         _______ _______ _______ _____ _____    ______ ____
DOCKED: USER                              x       y       z     vdW  Elec       q    Type
DOCKED: USER                           _______ _______ _______ _____ _____    ______ ____
DOCKED: ROOT
DOCKED: ATOM      1  N   UNL     1      35.991  18.040 121.950 -0.20 -0.00    +0.000 N 
DOCKED: ATOM      2  H   UNL     1      35.403  17.244 121.701 -0.01 -0.00    +0.000 HD
DOCKED: ENDROOT
DOCKED: BRANCH   1   3
DOCKED: ATOM      3  C   UNL     1      37.259  17.520 122.507 -0.18 -0.00    +0.000 C 
DOCKED: BRANCH   3   7
DOCKED: ATOM      4  C   UNL     1      37.118  13.206 122.818 -0.51 -0.00    +0.000 A 
DOCKED: ATOM      5  C   UNL     1      37.781  13.822 121.744 -0.40 -0.00    +0.000 A 
DOCKED: ATOM      6  C   UNL     1      37.822  15.215 121.635 -0.26 -0.00    +0.000 A 
DOCKED: ATOM      7  C   UNL     1      37.205  16.019 122.604 -0.26 -0.00    +0.000 A 
DOCKED: ATOM      8  C   UNL     1      36.559  15.411 123.690 -0.35 -0.00    +0.000 A 
DOCKED: ATOM      9  C   UNL     1      36.517  14.018 123.800 -0.43 -0.00    +0.000 A 
DOCKED: ATOM     10  CM  UNL     1      37.167  14.615 122.715 +0.00 -0.00    +0.000 AC
DOCKED: BRANCH   4  11
DOCKED: ATOM     11  C   UNL     1      37.053  10.925 121.817 -0.53 -0.00    +0.000 C 
DOCKED: ATOM     12  C   UNL     1      37.114  11.723 122.892 -0.61 -0.00    +0.000 C 
DOCKED: BRANCH  10  13
DOCKED: ATOM     13  O   UNL     1      37.064   8.789 120.826 -2.66 -0.00    +0.000 OA
DOCKED: ATOM     14  C   UNL     1      37.049   9.449 121.899 -0.63 -0.00    +0.000 C 
DOCKED: ATOM     15  N   UNL     1      37.059   8.751 123.151 -0.69 -0.00    +0.000 N 
DOCKED: ATOM     16  H   UNL     1      37.152   9.253 123.992 -0.53 -0.00    +0.000 HD
DOCKED: BRANCH  14  16
DOCKED: ATOM     17  O   UNL     1      36.941   7.402 123.179 -2.13 -0.00    +0.000 OA
DOCKED: ATOM     18  H   UNL     1      37.013   7.053 122.276 -0.10 -0.00    +0.000 HD
DOCKED: ENDBRANCH  14  16
DOCKED: ENDBRANCH  10  13
DOCKED: ENDBRANCH   4  11
DOCKED: ENDBRANCH   3   7
DOCKED: ENDBRANCH   1   3
DOCKED: BRANCH   1  18
DOCKED: ATOM     19  C   UNL     1      35.221  18.794 122.968 -0.18 -0.00    +0.000 C 
DOCKED: BRANCH  18  19
DOCKED: ATOM     20  C   UNL     1      34.075  17.962 123.566 -0.31 -0.00    +0.000 C 
DOCKED: BRANCH  19  20
DOCKED: ATOM     21  O   UNL     1      33.827  16.815 122.799 -0.43 -0.00    +0.000 OA
DOCKED: ATOM     22  H   UNL     1      33.888  17.036 121.857 -0.03 -0.00    +0.000 HD
DOCKED: ENDBRANCH  19  20
DOCKED: ENDBRANCH  18  19
DOCKED: ENDBRANCH   1  18
DOCKED: BRANCH   1  22
DOCKED: ATOM     23  C   UNL     1      36.200  18.768 120.675 -0.17 -0.00    +0.000 C 
DOCKED: BRANCH  22  23
DOCKED: ATOM     24  C   UNL     1      35.382  18.215 119.491 -0.19 -0.00    +0.000 C 
DOCKED: BRANCH  23  24
DOCKED: ATOM     25  C   UNL     1      34.389  19.236 119.025 -0.19 -0.00    +0.000 A 
DOCKED: ATOM     26  C   UNL     1      34.675  20.474 118.456 -0.11 -0.00    +0.000 A 
DOCKED: ATOM     27  N   UNL     1      33.534  21.164 118.231 -0.15 -0.00    +0.000 N 
DOCKED: ATOM     28  C   UNL     1      32.533  20.380 118.665 -0.19 -0.00    +0.000 A 
DOCKED: ATOM     29  C   UNL     1      33.016  19.197 119.163 -0.28 -0.00    +0.000 A 
DOCKED: ATOM     30  C   UNL     1      32.172  18.225 119.701 -0.38 -0.00    +0.000 A 
DOCKED: ATOM     31  C   UNL     1      30.789  18.490 119.710 -0.43 -0.00    +0.000 A 
DOCKED: ATOM     32  C   UNL     1      30.290  19.706 119.193 -0.36 -0.00    +0.000 A 
DOCKED: ATOM     33  C   UNL     1      31.169  20.670 118.663 -0.24 -0.00    +0.000 A 
DOCKED: ATOM     34  H   UNL     1      33.454  22.060 117.830 -0.03 -0.00    +0.000 HD
DOCKED: ATOM     35  CM  UNL     1      33.626  20.125 118.693 +0.00 -0.00    +0.000 AC
DOCKED: ATOM     36  CM  UNL     1      31.661  19.445 119.182 +0.00 -0.00    +0.000 AC
DOCKED: ENDBRANCH  23  24
DOCKED: ENDBRANCH  22  23
DOCKED: ENDBRANCH   1  22
DOCKED: TORSDOF 11DOCKED: TER
DOCKED: ENDMDL
________________________________________________________________________________


	BEGINNING GENETIC ALGORITHM DOCKING 56 of 100
Run: 56 Seed: 729341980 15375553 [ Run 56 of 100 GA/GALS ]
Beginning LAMARCKIAN GENETIC ALGORITHM (LGA), with a maximum of 2500000 energy evaluations.

Final-Value: -15.896


	FINAL GENETIC ALGORITHM DOCKED STATE
	_______________________________________________


Detailed state:  trans 38.495 16.443 120.894 quatxyzw 0.493586 0.243557 -0.732761 0.400143 center 0.460 0.128 -0.007 ntor 11 5.9689 -79.6959 120.0025 41.3862 27.6260 18.6509 -25.4972 -116.3156 180.0000 -161.4297 165.0933
State:	 38.495  16.443 120.894   0.539  0.266 -0.800 132.826      5.97  -79.70  120.00   41.39   27.63   18.65  -25.50 -116.32  180.00 -161.43  165.09

DOCKED: MODEL       56
DOCKED: USER    Run = 56
DOCKED: USER    DPF = ligand_dock.biased.dpf
DOCKED: USER  
DOCKED: USER    Estimated Free Energy of Binding    =   -9.17 kcal/mol  [=(1)+(2)+(3)-(4)]
DOCKED: USER    Estimated Inhibition Constant, Ki   =  190.48 nM (nanomolar)  [Temperature = 298.15 K]
DOCKED: USER    
DOCKED: USER    (1) Final Intermolecular Energy     =  -12.45 kcal/mol
DOCKED: USER        vdW + Hbond + desolv Energy     =  -12.45 kcal/mol
DOCKED: USER        Electrostatic Energy            =   +0.00 kcal/mol
DOCKED: USER    (2) Final Total Internal Energy     =   -3.45 kcal/mol
DOCKED: USER    (3) Torsional Free Energy           =   +3.28 kcal/mol
DOCKED: USER    (4) Unbound System's Energy  [=(2)] =   -3.45 kcal/mol
DOCKED: USER    
DOCKED: USER    
DOCKED: USER    NEWDPF move ligand.dum.pdbqt
DOCKED: USER    NEWDPF about 0.460000 0.128000 -0.007000
DOCKED: USER    NEWDPF tran0 38.495144 16.442774 120.894199
DOCKED: USER    NEWDPF quaternion0 0.493586 0.243557 -0.732761 0.400143
DOCKED: USER    NEWDPF axisangle0 0.538583 0.265761 -0.799562 132.825743
DOCKED: USER    NEWDPF quat0 0.538583 0.265761 -0.799562 132.825743
DOCKED: USER    NEWDPF dihe0 5.97 -79.70 120.00 41.39 27.63 18.65 -25.50 -116.32 180.00 -161.43 165.09 
DOCKED: USER  keepresnum = 1 
DOCKED: USER  
DOCKED: REMARK  Name = 
DOCKED: REMARK  11 active torsions:
DOCKED: REMARK  status: ('A' for Active; 'I' for Inactive)
DOCKED: REMARK    1  A    between atoms: C_2  and  C_5
DOCKED: REMARK    2  A    between atoms: N_3  and  O_4
DOCKED: REMARK    3  A    between atoms: C_6  and  C_7
DOCKED: REMARK    4  A    between atoms: C_10  and  C_11
DOCKED: REMARK    5  A    between atoms: C_11  and  N_12
DOCKED: REMARK    6  A    between atoms: N_12  and  C_13
DOCKED: REMARK    7  A    between atoms: N_12  and  C_16
DOCKED: REMARK    8  A    between atoms: C_13  and  C_14
DOCKED: REMARK    9  A    between atoms: C_14  and  O_15
DOCKED: REMARK   10  A    between atoms: C_16  and  C_17
DOCKED: REMARK   11  A    between atoms: C_17  and  C_18
DOCKED: REMARK                            x       y       z     vdW  Elec       q    Type
DOCKED: REMARK                         _______ _______ _______ _____ _____    ______ ____
DOCKED: USER                              x       y       z     vdW  Elec       q    Type
DOCKED: USER                           _______ _______ _______ _____ _____    ______ ____
DOCKED: ROOT
DOCKED: ATOM      1  N   UNL     1      39.114  16.368 122.321 -0.21 -0.00    +0.000 N 
DOCKED: ATOM      2  H   UNL     1      39.736  16.756 121.611 +0.01 -0.00    +0.000 HD
DOCKED: ENDROOT
DOCKED: BRANCH   1   3
DOCKED: ATOM      3  C   UNL     1      37.794  16.131 121.698 -0.22 -0.00    +0.000 C 
DOCKED: BRANCH   3   7
DOCKED: ATOM      4  C   UNL     1      36.385  12.140 122.604 -0.56 -0.00    +0.000 A 
DOCKED: ATOM      5  C   UNL     1      36.117  13.206 123.478 -0.54 -0.00    +0.000 A 
DOCKED: ATOM      6  C   UNL     1      36.578  14.495 123.194 -0.43 -0.00    +0.000 A 
DOCKED: ATOM      7  C   UNL     1      37.310  14.743 122.024 -0.33 -0.00    +0.000 A 
DOCKED: ATOM      8  C   UNL     1      37.563  13.687 121.137 -0.38 -0.00    +0.000 A 
DOCKED: ATOM      9  C   UNL     1      37.104  12.397 121.420 -0.48 -0.00    +0.000 A 
DOCKED: ATOM     10  CM  UNL     1      36.843  13.445 122.309 +0.00 -0.00    +0.000 AC
DOCKED: BRANCH   4  11
DOCKED: ATOM     11  C   UNL     1      36.553   9.659 122.758 -0.71 -0.00    +0.000 C 
DOCKED: ATOM     12  C   UNL     1      35.864  10.793 122.947 -0.68 -0.00    +0.000 C 
DOCKED: BRANCH  10  13
DOCKED: ATOM     13  O   UNL     1      36.820   7.342 123.082 -2.07 -0.00    +0.000 OA
DOCKED: ATOM     14  C   UNL     1      36.028   8.321 123.103 -0.73 -0.00    +0.000 C 
DOCKED: ATOM     15  N   UNL     1      34.663   8.108 123.485 -0.62 -0.00    +0.000 N 
DOCKED: ATOM     16  H   UNL     1      34.061   8.878 123.605 -0.47 -0.00    +0.000 HD
DOCKED: BRANCH  14  16
DOCKED: ATOM     17  O   UNL     1      34.199   6.851 123.682 -0.81 -0.00    +0.000 OA
DOCKED: ATOM     18  H   UNL     1      34.934   6.222 123.616 -0.05 -0.00    +0.000 HD
DOCKED: ENDBRANCH  14  16
DOCKED: ENDBRANCH  10  13
DOCKED: ENDBRANCH   4  11
DOCKED: ENDBRANCH   3   7
DOCKED: ENDBRANCH   1   3
DOCKED: BRANCH   1  18
DOCKED: ATOM     19  C   UNL     1      39.036  17.402 123.381 -0.23 -0.00    +0.000 C 
DOCKED: BRANCH  18  19
DOCKED: ATOM     20  C   UNL     1      40.004  18.569 123.130 -0.14 -0.00    +0.000 C 
DOCKED: BRANCH  19  20
DOCKED: ATOM     21  O   UNL     1      40.120  18.846 121.760 -0.06 -0.00    +0.000 OA
DOCKED: ATOM     22  H   UNL     1      41.042  19.055 121.548 +0.00 -0.00    +0.000 HD
DOCKED: ENDBRANCH  19  20
DOCKED: ENDBRANCH  18  19
DOCKED: ENDBRANCH   1  18
DOCKED: BRANCH   1  22
DOCKED: ATOM     23  C   UNL     1      39.766  15.105 122.743 -0.34 -0.00    +0.000 C 
DOCKED: BRANCH  22  23
DOCKED: ATOM     24  C   UNL     1      41.041  14.756 121.949 -0.34 -0.00    +0.000 C 
DOCKED: BRANCH  23  24
DOCKED: ATOM     25  C   UNL     1      42.018  15.889 122.013 -0.36 -0.00    +0.000 A 
DOCKED: ATOM     26  C   UNL     1      42.702  16.335 123.142 -0.35 -0.00    +0.000 A 
DOCKED: ATOM     27  N   UNL     1      43.440  17.428 122.845 -0.32 -0.00    +0.000 N 
DOCKED: ATOM     28  C   UNL     1      43.217  17.685 121.544 -0.16 -0.00    +0.000 A 
DOCKED: ATOM     29  C   UNL     1      42.350  16.771 121.004 -0.18 -0.00    +0.000 A 
DOCKED: ATOM     30  C   UNL     1      41.940  16.843 119.672 -0.12 -0.00    +0.000 A 
DOCKED: ATOM     31  C   UNL     1      42.456  17.888 118.883 -0.05 -0.00    +0.000 A 
DOCKED: ATOM     32  C   UNL     1      43.353  18.827 119.437 -0.02 -0.00    +0.000 A 
DOCKED: ATOM     33  C   UNL     1      43.742  18.732 120.787 -0.06 -0.00    +0.000 A 
DOCKED: ATOM     34  H   UNL     1      44.022  17.933 123.457 -0.42 -0.00    +0.000 HD
DOCKED: ATOM     35  CM  UNL     1      42.768  16.842 122.133 +0.00 -0.00    +0.000 AC
DOCKED: ATOM     36  CM  UNL     1      42.844  17.791 120.221 +0.00 -0.00    +0.000 AC
DOCKED: ENDBRANCH  23  24
DOCKED: ENDBRANCH  22  23
DOCKED: ENDBRANCH   1  22
DOCKED: TORSDOF 11DOCKED: TER
DOCKED: ENDMDL
________________________________________________________________________________


	BEGINNING GENETIC ALGORITHM DOCKING 57 of 100
Run: 57 Seed: 757638660 1124526487 [ Run 57 of 100 GA/GALS ]
Beginning LAMARCKIAN GENETIC ALGORITHM (LGA), with a maximum of 2500000 energy evaluations.

Final-Value: -17.594


	FINAL GENETIC ALGORITHM DOCKED STATE
	_______________________________________________


Detailed state:  trans 38.209 14.946 122.638 quatxyzw -0.827347 0.531697 0.113752 -0.140908 center 0.460 0.128 -0.007 ntor 11 6.2832 -34.1268 65.8787 91.2541 7.0387 43.2856 -164.0114 -45.9136 50.6777 160.3788 46.9302
State:	 38.209  14.946 122.638  -0.836  0.537  0.115 -163.799      6.28  -34.13   65.88   91.25    7.04   43.29 -164.01  -45.91   50.68  160.38   46.93

DOCKED: MODEL       57
DOCKED: USER    Run = 57
DOCKED: USER    DPF = ligand_dock.biased.dpf
DOCKED: USER  
DOCKED: USER    Estimated Free Energy of Binding    =  -11.37 kcal/mol  [=(1)+(2)+(3)-(4)]
DOCKED: USER    Estimated Inhibition Constant, Ki   =    4.62 nM (nanomolar)  [Temperature = 298.15 K]
DOCKED: USER    
DOCKED: USER    (1) Final Intermolecular Energy     =  -14.65 kcal/mol
DOCKED: USER        vdW + Hbond + desolv Energy     =  -14.65 kcal/mol
DOCKED: USER        Electrostatic Energy            =   +0.00 kcal/mol
DOCKED: USER    (2) Final Total Internal Energy     =   -2.94 kcal/mol
DOCKED: USER    (3) Torsional Free Energy           =   +3.28 kcal/mol
DOCKED: USER    (4) Unbound System's Energy  [=(2)] =   -2.94 kcal/mol
DOCKED: USER    
DOCKED: USER    
DOCKED: USER    NEWDPF move ligand.dum.pdbqt
DOCKED: USER    NEWDPF about 0.460000 0.128000 -0.007000
DOCKED: USER    NEWDPF tran0 38.209035 14.945671 122.638461
DOCKED: USER    NEWDPF quaternion0 -0.827347 0.531697 0.113752 -0.140908
DOCKED: USER    NEWDPF axisangle0 -0.835685 0.537055 0.114899 -163.799172
DOCKED: USER    NEWDPF quat0 -0.835685 0.537055 0.114899 -163.799172
DOCKED: USER    NEWDPF dihe0 6.28 -34.13 65.88 91.25 7.04 43.29 -164.01 -45.91 50.68 160.38 46.93 
DOCKED: USER  keepresnum = 1 
DOCKED: USER  
DOCKED: REMARK  Name = 
DOCKED: REMARK  11 active torsions:
DOCKED: REMARK  status: ('A' for Active; 'I' for Inactive)
DOCKED: REMARK    1  A    between atoms: C_2  and  C_5
DOCKED: REMARK    2  A    between atoms: N_3  and  O_4
DOCKED: REMARK    3  A    between atoms: C_6  and  C_7
DOCKED: REMARK    4  A    between atoms: C_10  and  C_11
DOCKED: REMARK    5  A    between atoms: C_11  and  N_12
DOCKED: REMARK    6  A    between atoms: N_12  and  C_13
DOCKED: REMARK    7  A    between atoms: N_12  and  C_16
DOCKED: REMARK    8  A    between atoms: C_13  and  C_14
DOCKED: REMARK    9  A    between atoms: C_14  and  O_15
DOCKED: REMARK   10  A    between atoms: C_16  and  C_17
DOCKED: REMARK   11  A    between atoms: C_17  and  C_18
DOCKED: REMARK                            x       y       z     vdW  Elec       q    Type
DOCKED: REMARK                         _______ _______ _______ _____ _____    ______ ____
DOCKED: USER                              x       y       z     vdW  Elec       q    Type
DOCKED: USER                           _______ _______ _______ _____ _____    ______ ____
DOCKED: ROOT
DOCKED: ATOM      1  N   UNL     1      38.962  16.227 123.103 -0.27 -0.00    +0.000 N 
DOCKED: ATOM      2  H   UNL     1      39.138  15.403 123.678 -0.00 -0.00    +0.000 HD
DOCKED: ENDROOT
DOCKED: BRANCH   1   3
DOCKED: ATOM      3  C   UNL     1      38.119  15.820 121.958 -0.27 -0.00    +0.000 C 
DOCKED: BRANCH   3   7
DOCKED: ATOM      4  C   UNL     1      36.463  11.876 122.615 -0.58 -0.00    +0.000 A 
DOCKED: ATOM      5  C   UNL     1      36.373  12.862 123.611 -0.57 -0.00    +0.000 A 
DOCKED: ATOM      6  C   UNL     1      36.914  14.134 123.407 -0.45 -0.00    +0.000 A 
DOCKED: ATOM      7  C   UNL     1      37.550  14.447 122.196 -0.37 -0.00    +0.000 A 
DOCKED: ATOM      8  C   UNL     1      37.625  13.474 121.190 -0.40 -0.00    +0.000 A 
DOCKED: ATOM      9  C   UNL     1      37.085  12.200 121.392 -0.49 -0.00    +0.000 A 
DOCKED: ATOM     10  CM  UNL     1      37.002  13.166 122.402 +0.00 -0.00    +0.000 AC
DOCKED: BRANCH   4  11
DOCKED: ATOM     11  C   UNL     1      36.574   9.411 122.962 -0.70 -0.00    +0.000 C 
DOCKED: ATOM     12  C   UNL     1      35.862  10.544 122.878 -0.68 -0.00    +0.000 C 
DOCKED: BRANCH  10  13
DOCKED: ATOM     13  O   UNL     1      36.690   7.064 123.101 -1.77 -0.00    +0.000 OA
DOCKED: ATOM     14  C   UNL     1      35.969   8.089 123.226 -0.72 -0.00    +0.000 C 
DOCKED: ATOM     15  N   UNL     1      34.605   7.939 123.643 -0.62 -0.00    +0.000 N 
DOCKED: ATOM     16  H   UNL     1      34.063   8.735 123.843 -0.46 -0.00    +0.000 HD
DOCKED: BRANCH  14  16
DOCKED: ATOM     17  O   UNL     1      34.062   6.704 123.762 -0.84 -0.00    +0.000 OA
DOCKED: ATOM     18  H   UNL     1      34.750   6.034 123.626 -0.11 -0.00    +0.000 HD
DOCKED: ENDBRANCH  14  16
DOCKED: ENDBRANCH  10  13
DOCKED: ENDBRANCH   4  11
DOCKED: ENDBRANCH   3   7
DOCKED: ENDBRANCH   1   3
DOCKED: BRANCH   1  18
DOCKED: ATOM     19  C   UNL     1      40.300  16.684 122.655 -0.29 -0.00    +0.000 C 
DOCKED: BRANCH  18  19
DOCKED: ATOM     20  C   UNL     1      41.195  15.518 122.206 -0.45 -0.00    +0.000 C 
DOCKED: BRANCH  19  20
DOCKED: ATOM     21  O   UNL     1      40.722  14.295 122.704 -1.06 +0.00    +0.000 OA
DOCKED: ATOM     22  H   UNL     1      41.183  14.081 123.529 -0.09 -0.00    +0.000 HD
DOCKED: ENDBRANCH  19  20
DOCKED: ENDBRANCH  18  19
DOCKED: ENDBRANCH   1  18
DOCKED: BRANCH   1  22
DOCKED: ATOM     23  C   UNL     1      38.260  17.172 124.003 -0.20 -0.00    +0.000 C 
DOCKED: BRANCH  22  23
DOCKED: ATOM     24  C   UNL     1      37.010  17.826 123.382 -0.21 -0.00    +0.000 C 
DOCKED: BRANCH  23  24
DOCKED: ATOM     25  C   UNL     1      35.818  17.607 124.263 -0.27 -0.00    +0.000 A 
DOCKED: ATOM     26  C   UNL     1      35.147  16.404 124.470 -0.41 -0.00    +0.000 A 
DOCKED: ATOM     27  N   UNL     1      34.070  16.597 125.265 -0.48 -0.00    +0.000 N 
DOCKED: ATOM     28  C   UNL     1      34.046  17.911 125.549 -0.34 -0.00    +0.000 A 
DOCKED: ATOM     29  C   UNL     1      35.094  18.561 124.950 -0.25 -0.00    +0.000 A 
DOCKED: ATOM     30  C   UNL     1      35.271  19.940 125.071 -0.17 -0.00    +0.000 A 
DOCKED: ATOM     31  C   UNL     1      34.338  20.654 125.846 -0.15 -0.00    +0.000 A 
DOCKED: ATOM     32  C   UNL     1      33.261  19.984 126.468 -0.20 -0.00    +0.000 A 
DOCKED: ATOM     33  C   UNL     1      33.106  18.593 126.320 -0.27 -0.00    +0.000 A 
DOCKED: ATOM     34  H   UNL     1      33.432  15.913 125.574 -0.06 -0.00    +0.000 HD
DOCKED: ATOM     35  CM  UNL     1      34.810  17.390 124.911 -0.44 -0.00    +0.000 AC
DOCKED: ATOM     36  CM  UNL     1      34.186  19.274 125.701 -0.06 -0.00    +0.000 AC
DOCKED: ENDBRANCH  23  24
DOCKED: ENDBRANCH  22  23
DOCKED: ENDBRANCH   1  22
DOCKED: TORSDOF 11DOCKED: TER
DOCKED: ENDMDL
________________________________________________________________________________


	BEGINNING GENETIC ALGORITHM DOCKING 58 of 100
Run: 58 Seed: 1199804184 1894871954 [ Run 58 of 100 GA/GALS ]
Beginning LAMARCKIAN GENETIC ALGORITHM (LGA), with a maximum of 2500000 energy evaluations.

Final-Value: -15.746


	FINAL GENETIC ALGORITHM DOCKED STATE
	_______________________________________________


Detailed state:  trans 38.948 14.913 119.080 quatxyzw -0.055325 0.124390 0.705491 0.695521 center 0.460 0.128 -0.007 ntor 11 9.0007 -163.7095 91.5097 56.1563 54.6843 -179.1722 174.1240 -165.6565 -179.4912 176.0307 -45.5797
State:	 38.948  14.913 119.080  -0.077  0.173  0.982 91.863      9.00 -163.71   91.51   56.16   54.68 -179.17  174.12 -165.66 -179.49  176.03  -45.58

DOCKED: MODEL       58
DOCKED: USER    Run = 58
DOCKED: USER    DPF = ligand_dock.biased.dpf
DOCKED: USER  
DOCKED: USER    Estimated Free Energy of Binding    =   -9.17 kcal/mol  [=(1)+(2)+(3)-(4)]
DOCKED: USER    Estimated Inhibition Constant, Ki   =  188.51 nM (nanomolar)  [Temperature = 298.15 K]
DOCKED: USER    
DOCKED: USER    (1) Final Intermolecular Energy     =  -12.46 kcal/mol
DOCKED: USER        vdW + Hbond + desolv Energy     =  -12.46 kcal/mol
DOCKED: USER        Electrostatic Energy            =   +0.00 kcal/mol
DOCKED: USER    (2) Final Total Internal Energy     =   -3.29 kcal/mol
DOCKED: USER    (3) Torsional Free Energy           =   +3.28 kcal/mol
DOCKED: USER    (4) Unbound System's Energy  [=(2)] =   -3.29 kcal/mol
DOCKED: USER    
DOCKED: USER    
DOCKED: USER    NEWDPF move ligand.dum.pdbqt
DOCKED: USER    NEWDPF about 0.460000 0.128000 -0.007000
DOCKED: USER    NEWDPF tran0 38.947706 14.912747 119.080281
DOCKED: USER    NEWDPF quaternion0 -0.055325 0.124390 0.705491 0.695521
DOCKED: USER    NEWDPF axisangle0 -0.076999 0.173123 0.981886 91.862566
DOCKED: USER    NEWDPF quat0 -0.076999 0.173123 0.981886 91.862566
DOCKED: USER    NEWDPF dihe0 9.00 -163.71 91.51 56.16 54.68 -179.17 174.12 -165.66 -179.49 176.03 -45.58 
DOCKED: USER  keepresnum = 1 
DOCKED: USER  
DOCKED: REMARK  Name = 
DOCKED: REMARK  11 active torsions:
DOCKED: REMARK  status: ('A' for Active; 'I' for Inactive)
DOCKED: REMARK    1  A    between atoms: C_2  and  C_5
DOCKED: REMARK    2  A    between atoms: N_3  and  O_4
DOCKED: REMARK    3  A    between atoms: C_6  and  C_7
DOCKED: REMARK    4  A    between atoms: C_10  and  C_11
DOCKED: REMARK    5  A    between atoms: C_11  and  N_12
DOCKED: REMARK    6  A    between atoms: N_12  and  C_13
DOCKED: REMARK    7  A    between atoms: N_12  and  C_16
DOCKED: REMARK    8  A    between atoms: C_13  and  C_14
DOCKED: REMARK    9  A    between atoms: C_14  and  O_15
DOCKED: REMARK   10  A    between atoms: C_16  and  C_17
DOCKED: REMARK   11  A    between atoms: C_17  and  C_18
DOCKED: REMARK                            x       y       z     vdW  Elec       q    Type
DOCKED: REMARK                         _______ _______ _______ _____ _____    ______ ____
DOCKED: USER                              x       y       z     vdW  Elec       q    Type
DOCKED: USER                           _______ _______ _______ _____ _____    ______ ____
DOCKED: ROOT
DOCKED: ATOM      1  N   UNL     1      37.770  15.844 118.668 -0.14 -0.00    +0.000 N 
DOCKED: ATOM      2  H   UNL     1      38.062  15.189 117.944 -0.01 -0.00    +0.000 HD
DOCKED: ENDROOT
DOCKED: BRANCH   1   3
DOCKED: ATOM      3  C   UNL     1      38.543  15.552 119.895 -0.20 -0.00    +0.000 C 
DOCKED: BRANCH   3   7
DOCKED: ATOM      4  C   UNL     1      36.868  12.144 121.972 -0.51 -0.00    +0.000 A 
DOCKED: ATOM      5  C   UNL     1      37.436  11.993 120.696 -0.47 -0.00    +0.000 A 
DOCKED: ATOM      6  C   UNL     1      37.970  13.092 120.018 -0.34 -0.00    +0.000 A 
DOCKED: ATOM      7  C   UNL     1      37.953  14.364 120.608 -0.30 -0.00    +0.000 A 
DOCKED: ATOM      8  C   UNL     1      37.407  14.519 121.890 -0.34 -0.00    +0.000 A 
DOCKED: ATOM      9  C   UNL     1      36.871  13.421 122.570 -0.47 -0.00    +0.000 A 
DOCKED: ATOM     10  CM  UNL     1      37.418  13.256 121.292 +0.00 -0.00    +0.000 AC
DOCKED: BRANCH   4  11
DOCKED: ATOM     11  C   UNL     1      36.691   9.689 122.354 -0.71 -0.00    +0.000 C 
DOCKED: ATOM     12  C   UNL     1      36.324  10.943 122.653 -0.69 -0.00    +0.000 C 
DOCKED: BRANCH  10  13
DOCKED: ATOM     13  O   UNL     1      36.922   7.534 123.276 -2.17 -0.00    +0.000 OA
DOCKED: ATOM     14  C   UNL     1      36.146   8.497 123.037 -0.74 -0.00    +0.000 C 
DOCKED: ATOM     15  N   UNL     1      34.777   8.414 123.459 -0.60 -0.00    +0.000 N 
DOCKED: ATOM     16  H   UNL     1      34.189   9.198 123.372 -0.47 -0.00    +0.000 HD
DOCKED: BRANCH  14  16
DOCKED: ATOM     17  O   UNL     1      34.294   7.260 123.978 -0.77 -0.00    +0.000 OA
DOCKED: ATOM     18  H   UNL     1      35.026   6.641 124.126 -0.05 -0.00    +0.000 HD
DOCKED: ENDBRANCH  14  16
DOCKED: ENDBRANCH  10  13
DOCKED: ENDBRANCH   4  11
DOCKED: ENDBRANCH   3   7
DOCKED: ENDBRANCH   1   3
DOCKED: BRANCH   1  18
DOCKED: ATOM     19  C   UNL     1      36.323  15.590 118.866 -0.19 -0.00    +0.000 C 
DOCKED: BRANCH  18  19
DOCKED: ATOM     20  C   UNL     1      35.839  14.347 118.102 -0.29 -0.00    +0.000 C 
DOCKED: BRANCH  19  20
DOCKED: ATOM     21  O   UNL     1      36.915  13.656 117.526 -0.42 -0.00    +0.000 OA
DOCKED: ATOM     22  H   UNL     1      36.810  12.705 117.682 -0.04 -0.00    +0.000 HD
DOCKED: ENDBRANCH  19  20
DOCKED: ENDBRANCH  18  19
DOCKED: ENDBRANCH   1  18
DOCKED: BRANCH   1  22
DOCKED: ATOM     23  C   UNL     1      38.088  17.183 118.116 -0.07 -0.00    +0.000 C 
DOCKED: BRANCH  22  23
DOCKED: ATOM     24  C   UNL     1      38.796  17.149 116.747 -0.07 -0.00    +0.000 C 
DOCKED: BRANCH  23  24
DOCKED: ATOM     25  C   UNL     1      38.865  15.743 116.232 -0.16 -0.00    +0.000 A 
DOCKED: ATOM     26  C   UNL     1      39.913  14.844 116.409 -0.20 -0.00    +0.000 A 
DOCKED: ATOM     27  N   UNL     1      39.666  13.695 115.740 -0.41 -0.00    +0.000 N 
DOCKED: ATOM     28  C   UNL     1      38.479  13.866 115.132 -0.39 -0.00    +0.000 A 
DOCKED: ATOM     29  C   UNL     1      37.962  15.106 115.404 -0.20 -0.00    +0.000 A 
DOCKED: ATOM     30  C   UNL     1      36.749  15.533 114.863 -0.12 -0.00    +0.000 A 
DOCKED: ATOM     31  C   UNL     1      36.054  14.639 114.027 -0.18 -0.00    +0.000 A 
DOCKED: ATOM     32  C   UNL     1      36.583  13.359 113.750 -0.30 -0.00    +0.000 A 
DOCKED: ATOM     33  C   UNL     1      37.814  12.961 114.306 -0.29 -0.00    +0.000 A 
DOCKED: ATOM     34  H   UNL     1      40.239  12.896 115.706 -0.13 -0.00    +0.000 HD
DOCKED: ATOM     35  CM  UNL     1      38.999  14.620 115.782 +0.00 -0.00    +0.000 AC
DOCKED: ATOM     36  CM  UNL     1      37.273  14.244 114.580 +0.00 -0.00    +0.000 AC
DOCKED: ENDBRANCH  23  24
DOCKED: ENDBRANCH  22  23
DOCKED: ENDBRANCH   1  22
DOCKED: TORSDOF 11DOCKED: TER
DOCKED: ENDMDL
________________________________________________________________________________


	BEGINNING GENETIC ALGORITHM DOCKING 59 of 100
Run: 59 Seed: 1607202437 557916874 [ Run 59 of 100 GA/GALS ]
Beginning LAMARCKIAN GENETIC ALGORITHM (LGA), with a maximum of 2500000 energy evaluations.

Final-Value: -17.879


	FINAL GENETIC ALGORITHM DOCKED STATE
	_______________________________________________


Detailed state:  trans 36.866 16.553 123.174 quatxyzw 0.667599 -0.363978 -0.599393 -0.250120 center 0.460 0.128 -0.007 ntor 11 12.1836 176.6595 66.5876 29.5661 171.2863 158.8582 3.3290 -96.1906 145.4680 -107.0196 16.0686
State:	 36.866  16.553 123.174   0.690 -0.376 -0.619 -151.031     12.18  176.66   66.59   29.57  171.29  158.86    3.33  -96.19  145.47 -107.02   16.07

DOCKED: MODEL       59
DOCKED: USER    Run = 59
DOCKED: USER    DPF = ligand_dock.biased.dpf
DOCKED: USER  
DOCKED: USER    Estimated Free Energy of Binding    =  -10.72 kcal/mol  [=(1)+(2)+(3)-(4)]
DOCKED: USER    Estimated Inhibition Constant, Ki   =   13.77 nM (nanomolar)  [Temperature = 298.15 K]
DOCKED: USER    
DOCKED: USER    (1) Final Intermolecular Energy     =  -14.01 kcal/mol
DOCKED: USER        vdW + Hbond + desolv Energy     =  -14.01 kcal/mol
DOCKED: USER        Electrostatic Energy            =   +0.00 kcal/mol
DOCKED: USER    (2) Final Total Internal Energy     =   -3.87 kcal/mol
DOCKED: USER    (3) Torsional Free Energy           =   +3.28 kcal/mol
DOCKED: USER    (4) Unbound System's Energy  [=(2)] =   -3.87 kcal/mol
DOCKED: USER    
DOCKED: USER    
DOCKED: USER    NEWDPF move ligand.dum.pdbqt
DOCKED: USER    NEWDPF about 0.460000 0.128000 -0.007000
DOCKED: USER    NEWDPF tran0 36.865575 16.553290 123.174286
DOCKED: USER    NEWDPF quaternion0 0.667599 -0.363978 -0.599393 -0.250120
DOCKED: USER    NEWDPF axisangle0 0.689515 -0.375927 -0.619070 -151.030727
DOCKED: USER    NEWDPF quat0 0.689515 -0.375927 -0.619070 -151.030727
DOCKED: USER    NEWDPF dihe0 12.18 176.66 66.59 29.57 171.29 158.86 3.33 -96.19 145.47 -107.02 16.07 
DOCKED: USER  keepresnum = 1 
DOCKED: USER  
DOCKED: REMARK  Name = 
DOCKED: REMARK  11 active torsions:
DOCKED: REMARK  status: ('A' for Active; 'I' for Inactive)
DOCKED: REMARK    1  A    between atoms: C_2  and  C_5
DOCKED: REMARK    2  A    between atoms: N_3  and  O_4
DOCKED: REMARK    3  A    between atoms: C_6  and  C_7
DOCKED: REMARK    4  A    between atoms: C_10  and  C_11
DOCKED: REMARK    5  A    between atoms: C_11  and  N_12
DOCKED: REMARK    6  A    between atoms: N_12  and  C_13
DOCKED: REMARK    7  A    between atoms: N_12  and  C_16
DOCKED: REMARK    8  A    between atoms: C_13  and  C_14
DOCKED: REMARK    9  A    between atoms: C_14  and  O_15
DOCKED: REMARK   10  A    between atoms: C_16  and  C_17
DOCKED: REMARK   11  A    between atoms: C_17  and  C_18
DOCKED: REMARK                            x       y       z     vdW  Elec       q    Type
DOCKED: REMARK                         _______ _______ _______ _____ _____    ______ ____
DOCKED: USER                              x       y       z     vdW  Elec       q    Type
DOCKED: USER                           _______ _______ _______ _____ _____    ______ ____
DOCKED: ROOT
DOCKED: ATOM      1  N   UNL     1      37.091  18.046 122.795 -0.14 -0.00    +0.000 N 
DOCKED: ATOM      2  H   UNL     1      37.903  17.447 122.647 +0.00 -0.00    +0.000 HD
DOCKED: ENDROOT
DOCKED: BRANCH   1   3
DOCKED: ATOM      3  C   UNL     1      35.959  17.195 123.221 -0.31 -0.00    +0.000 C 
DOCKED: BRANCH   3   7
DOCKED: ATOM      4  C   UNL     1      36.745  13.059 122.218 -0.45 -0.00    +0.000 A 
DOCKED: ATOM      5  C   UNL     1      36.099  13.391 123.420 -0.52 -0.00    +0.000 A 
DOCKED: ATOM      6  C   UNL     1      35.851  14.725 123.752 -0.47 -0.00    +0.000 A 
DOCKED: ATOM      7  C   UNL     1      36.239  15.755 122.882 -0.32 -0.00    +0.000 A 
DOCKED: ATOM      8  C   UNL     1      36.864  15.430 121.671 -0.22 -0.00    +0.000 A 
DOCKED: ATOM      9  C   UNL     1      37.114  14.095 121.337 -0.30 -0.00    +0.000 A 
DOCKED: ATOM     10  CM  UNL     1      36.485  14.409 122.547 +0.00 -0.00    +0.000 AC
DOCKED: BRANCH   4  11
DOCKED: ATOM     11  C   UNL     1      36.603  10.622 122.715 -0.68 -0.00    +0.000 C 
DOCKED: ATOM     12  C   UNL     1      36.974  11.626 121.908 -0.58 -0.00    +0.000 C 
DOCKED: BRANCH  10  13
DOCKED: ATOM     13  O   UNL     1      36.940   8.858 121.192 -2.67 -0.00    +0.000 OA
DOCKED: ATOM     14  C   UNL     1      36.835   9.196 122.400 -0.70 -0.00    +0.000 C 
DOCKED: ATOM     15  N   UNL     1      36.971   8.198 123.421 -0.72 -0.00    +0.000 N 
DOCKED: ATOM     16  H   UNL     1      36.994   8.464 124.368 -0.44 -0.00    +0.000 HD
DOCKED: BRANCH  14  16
DOCKED: ATOM     17  O   UNL     1      37.068   6.890 123.084 -1.70 -0.00    +0.000 OA
DOCKED: ATOM     18  H   UNL     1      37.222   6.813 122.129 -0.25 -0.00    +0.000 HD
DOCKED: ENDBRANCH  14  16
DOCKED: ENDBRANCH  10  13
DOCKED: ENDBRANCH   4  11
DOCKED: ENDBRANCH   3   7
DOCKED: ENDBRANCH   1   3
DOCKED: BRANCH   1  18
DOCKED: ATOM     19  C   UNL     1      36.827  18.680 121.480 -0.15 -0.00    +0.000 C 
DOCKED: BRANCH  18  19
DOCKED: ATOM     20  C   UNL     1      38.043  18.604 120.542 -0.06 -0.00    +0.000 C 
DOCKED: BRANCH  19  20
DOCKED: ATOM     21  O   UNL     1      39.218  18.329 121.257 -0.06 -0.00    +0.000 OA
DOCKED: ATOM     22  H   UNL     1      39.570  17.469 120.983 +0.01 -0.00    +0.000 HD
DOCKED: ENDBRANCH  19  20
DOCKED: ENDBRANCH  18  19
DOCKED: ENDBRANCH   1  18
DOCKED: BRANCH   1  22
DOCKED: ATOM     23  C   UNL     1      37.508  18.991 123.859 -0.14 -0.00    +0.000 C 
DOCKED: BRANCH  22  23
DOCKED: ATOM     24  C   UNL     1      38.375  18.354 124.964 -0.19 -0.00    +0.000 C 
DOCKED: BRANCH  23  24
DOCKED: ATOM     25  C   UNL     1      39.769  18.127 124.464 -0.22 -0.00    +0.000 A 
DOCKED: ATOM     26  C   UNL     1      40.865  18.967 124.646 -0.20 -0.00    +0.000 A 
DOCKED: ATOM     27  N   UNL     1      41.944  18.483 123.990 -0.21 -0.00    +0.000 N 
DOCKED: ATOM     28  C   UNL     1      41.536  17.355 123.384 -0.31 -0.00    +0.000 A 
DOCKED: ATOM     29  C   UNL     1      40.213  17.108 123.644 -0.21 -0.00    +0.000 A 
DOCKED: ATOM     30  C   UNL     1      39.548  16.007 123.103 -0.15 -0.00    +0.000 A 
DOCKED: ATOM     31  C   UNL     1      40.286  15.137 122.278 -0.39 -0.00    +0.000 A 
DOCKED: ATOM     32  C   UNL     1      41.651  15.388 122.013 -0.40 -0.00    +0.000 A 
DOCKED: ATOM     33  C   UNL     1      42.290  16.512 122.569 -0.37 -0.00    +0.000 A 
DOCKED: ATOM     34  H   UNL     1      42.845  18.878 123.963 -0.47 -0.00    +0.000 HD
DOCKED: ATOM     35  CM  UNL     1      40.900  18.023 124.024 +0.00 -0.00    +0.000 AC
DOCKED: ATOM     36  CM  UNL     1      40.921  16.251 122.832 +0.00 -0.00    +0.000 AC
DOCKED: ENDBRANCH  23  24
DOCKED: ENDBRANCH  22  23
DOCKED: ENDBRANCH   1  22
DOCKED: TORSDOF 11DOCKED: TER
DOCKED: ENDMDL
________________________________________________________________________________


	BEGINNING GENETIC ALGORITHM DOCKING 60 of 100
Run: 60 Seed: 1284128394 403732926 [ Run 60 of 100 GA/GALS ]
Beginning LAMARCKIAN GENETIC ALGORITHM (LGA), with a maximum of 2500000 energy evaluations.

Final-Value: -16.684


	FINAL GENETIC ALGORITHM DOCKED STATE
	_______________________________________________


Detailed state:  trans 36.809 18.564 121.759 quatxyzw -0.392813 -0.544187 0.721108 -0.171936 center 0.460 0.128 -0.007 ntor 11 180.0000 115.3553 103.6649 65.6533 58.6482 -93.2428 166.4954 38.6769 -171.6125 179.9470 -180.0000
State:	 36.809  18.564 121.759  -0.399 -0.552  0.732 -160.199    180.00  115.36  103.66   65.65   58.65  -93.24  166.50   38.68 -171.61  179.95 -180.00

DOCKED: MODEL       60
DOCKED: USER    Run = 60
DOCKED: USER    DPF = ligand_dock.biased.dpf
DOCKED: USER  
DOCKED: USER    Estimated Free Energy of Binding    =  -10.83 kcal/mol  [=(1)+(2)+(3)-(4)]
DOCKED: USER    Estimated Inhibition Constant, Ki   =   11.47 nM (nanomolar)  [Temperature = 298.15 K]
DOCKED: USER    
DOCKED: USER    (1) Final Intermolecular Energy     =  -14.11 kcal/mol
DOCKED: USER        vdW + Hbond + desolv Energy     =  -14.11 kcal/mol
DOCKED: USER        Electrostatic Energy            =   +0.00 kcal/mol
DOCKED: USER    (2) Final Total Internal Energy     =   -2.57 kcal/mol
DOCKED: USER    (3) Torsional Free Energy           =   +3.28 kcal/mol
DOCKED: USER    (4) Unbound System's Energy  [=(2)] =   -2.57 kcal/mol
DOCKED: USER    
DOCKED: USER    
DOCKED: USER    NEWDPF move ligand.dum.pdbqt
DOCKED: USER    NEWDPF about 0.460000 0.128000 -0.007000
DOCKED: USER    NEWDPF tran0 36.809380 18.563699 121.758933
DOCKED: USER    NEWDPF quaternion0 -0.392813 -0.544187 0.721108 -0.171936
DOCKED: USER    NEWDPF axisangle0 -0.398751 -0.552414 0.732009 -160.199149
DOCKED: USER    NEWDPF quat0 -0.398751 -0.552414 0.732009 -160.199149
DOCKED: USER    NEWDPF dihe0 180.00 115.36 103.66 65.65 58.65 -93.24 166.50 38.68 -171.61 179.95 -180.00 
DOCKED: USER  keepresnum = 1 
DOCKED: USER  
DOCKED: REMARK  Name = 
DOCKED: REMARK  11 active torsions:
DOCKED: REMARK  status: ('A' for Active; 'I' for Inactive)
DOCKED: REMARK    1  A    between atoms: C_2  and  C_5
DOCKED: REMARK    2  A    between atoms: N_3  and  O_4
DOCKED: REMARK    3  A    between atoms: C_6  and  C_7
DOCKED: REMARK    4  A    between atoms: C_10  and  C_11
DOCKED: REMARK    5  A    between atoms: C_11  and  N_12
DOCKED: REMARK    6  A    between atoms: N_12  and  C_13
DOCKED: REMARK    7  A    between atoms: N_12  and  C_16
DOCKED: REMARK    8  A    between atoms: C_13  and  C_14
DOCKED: REMARK    9  A    between atoms: C_14  and  O_15
DOCKED: REMARK   10  A    between atoms: C_16  and  C_17
DOCKED: REMARK   11  A    between atoms: C_17  and  C_18
DOCKED: REMARK                            x       y       z     vdW  Elec       q    Type
DOCKED: REMARK                         _______ _______ _______ _____ _____    ______ ____
DOCKED: USER                              x       y       z     vdW  Elec       q    Type
DOCKED: USER                           _______ _______ _______ _____ _____    ______ ____
DOCKED: ROOT
DOCKED: ATOM      1  N   UNL     1      37.184  18.372 123.258 -0.14 -0.00    +0.000 N 
DOCKED: ATOM      2  H   UNL     1      37.468  19.269 122.864 +0.00 -0.00    +0.000 HD
DOCKED: ENDROOT
DOCKED: BRANCH   1   3
DOCKED: ATOM      3  C   UNL     1      36.407  17.642 122.233 -0.21 -0.00    +0.000 C 
DOCKED: BRANCH   3   7
DOCKED: ATOM      4  C   UNL     1      37.104  13.382 122.545 -0.47 -0.00    +0.000 A 
DOCKED: ATOM      5  C   UNL     1      36.396  14.064 123.548 -0.47 -0.00    +0.000 A 
DOCKED: ATOM      6  C   UNL     1      36.176  15.441 123.456 -0.39 -0.00    +0.000 A 
DOCKED: ATOM      7  C   UNL     1      36.655  16.162 122.352 -0.25 -0.00    +0.000 A 
DOCKED: ATOM      8  C   UNL     1      37.344  15.484 121.337 -0.22 -0.00    +0.000 A 
DOCKED: ATOM      9  C   UNL     1      37.566  14.106 121.428 -0.35 -0.00    +0.000 A 
DOCKED: ATOM     10  CM  UNL     1      36.873  14.773 122.444 +0.00 -0.00    +0.000 AC
DOCKED: BRANCH   4  11
DOCKED: ATOM     11  C   UNL     1      36.661  11.006 121.940 -0.62 -0.00    +0.000 C 
DOCKED: ATOM     12  C   UNL     1      37.301  11.918 122.686 -0.52 -0.00    +0.000 C 
DOCKED: BRANCH  10  13
DOCKED: ATOM     13  O   UNL     1      36.943   8.847 121.043 -2.67 -0.00    +0.000 OA
DOCKED: ATOM     14  C   UNL     1      36.863   9.549 122.086 -0.66 -0.00    +0.000 C 
DOCKED: ATOM     15  N   UNL     1      36.996   8.918 123.367 -0.61 -0.00    +0.000 N 
DOCKED: ATOM     16  H   UNL     1      37.038   9.467 124.182 -0.57 -0.00    +0.000 HD
DOCKED: BRANCH  14  16
DOCKED: ATOM     17  O   UNL     1      37.065   7.568 123.456 -2.21 -0.00    +0.000 OA
DOCKED: ATOM     18  H   UNL     1      37.154   7.311 124.387 -0.55 -0.00    +0.000 HD
DOCKED: ENDBRANCH  14  16
DOCKED: ENDBRANCH  10  13
DOCKED: ENDBRANCH   4  11
DOCKED: ENDBRANCH   3   7
DOCKED: ENDBRANCH   1   3
DOCKED: BRANCH   1  18
DOCKED: ATOM     19  C   UNL     1      36.347  18.708 124.435 -0.21 -0.00    +0.000 C 
DOCKED: BRANCH  18  19
DOCKED: ATOM     20  C   UNL     1      35.846  20.161 124.398 -0.18 -0.00    +0.000 C 
DOCKED: BRANCH  19  20
DOCKED: ATOM     21  O   UNL     1      35.918  20.689 123.101 -0.36 -0.00    +0.000 OA
DOCKED: ATOM     22  H   UNL     1      35.440  20.109 122.488 -0.02 -0.00    +0.000 HD
DOCKED: ENDBRANCH  19  20
DOCKED: ENDBRANCH  18  19
DOCKED: ENDBRANCH   1  18
DOCKED: BRANCH   1  22
DOCKED: ATOM     23  C   UNL     1      38.456  17.685 123.586 -0.21 -0.00    +0.000 C 
DOCKED: BRANCH  22  23
DOCKED: ATOM     24  C   UNL     1      39.716  18.541 123.346 -0.15 -0.00    +0.000 C 
DOCKED: BRANCH  23  24
DOCKED: ATOM     25  C   UNL     1      40.876  17.666 122.981 -0.21 -0.00    +0.000 A 
DOCKED: ATOM     26  C   UNL     1      41.906  17.256 123.824 -0.28 -0.00    +0.000 A 
DOCKED: ATOM     27  N   UNL     1      42.822  16.539 123.134 -0.44 -0.00    +0.000 N 
DOCKED: ATOM     28  C   UNL     1      42.388  16.505 121.863 -0.29 -0.00    +0.000 A 
DOCKED: ATOM     29  C   UNL     1      41.206  17.187 121.728 -0.16 -0.00    +0.000 A 
DOCKED: ATOM     30  C   UNL     1      40.567  17.319 120.495 -0.09 -0.00    +0.000 A 
DOCKED: ATOM     31  C   UNL     1      41.172  16.715 119.377 -0.11 -0.00    +0.000 A 
DOCKED: ATOM     32  C   UNL     1      42.387  16.008 119.514 -0.13 -0.00    +0.000 A 
DOCKED: ATOM     33  C   UNL     1      43.010  15.899 120.772 -0.23 -0.00    +0.000 A 
DOCKED: ATOM     34  H   UNL     1      43.641  16.126 123.492 -0.10 +0.00    +0.000 HD
DOCKED: ATOM     35  CM  UNL     1      41.871  17.015 122.719 +0.00 -0.00    +0.000 AC
DOCKED: ATOM     36  CM  UNL     1      41.788  16.605 120.625 +0.00 -0.00    +0.000 AC
DOCKED: ENDBRANCH  23  24
DOCKED: ENDBRANCH  22  23
DOCKED: ENDBRANCH   1  22
DOCKED: TORSDOF 11DOCKED: TER
DOCKED: ENDMDL
________________________________________________________________________________


	BEGINNING GENETIC ALGORITHM DOCKING 61 of 100
Run: 61 Seed: 1756734061 1475334730 [ Run 61 of 100 GA/GALS ]
Beginning LAMARCKIAN GENETIC ALGORITHM (LGA), with a maximum of 2500000 energy evaluations.

Final-Value: -17.144


	FINAL GENETIC ALGORITHM DOCKED STATE
	_______________________________________________


Detailed state:  trans 38.061 15.395 121.794 quatxyzw -0.706588 0.706145 -0.044499 0.010563 center 0.460 0.128 -0.007 ntor 11 -1.3358 113.6800 96.7219 54.0402 11.9321 38.0110 36.2915 116.4615 168.6893 169.0478 15.1608
State:	 38.061  15.395 121.794  -0.707  0.706 -0.045 178.790     -1.34  113.68   96.72   54.04   11.93   38.01   36.29  116.46  168.69  169.05   15.16

DOCKED: MODEL       61
DOCKED: USER    Run = 61
DOCKED: USER    DPF = ligand_dock.biased.dpf
DOCKED: USER  
DOCKED: USER    Estimated Free Energy of Binding    =  -10.15 kcal/mol  [=(1)+(2)+(3)-(4)]
DOCKED: USER    Estimated Inhibition Constant, Ki   =   36.51 nM (nanomolar)  [Temperature = 298.15 K]
DOCKED: USER    
DOCKED: USER    (1) Final Intermolecular Energy     =  -13.43 kcal/mol
DOCKED: USER        vdW + Hbond + desolv Energy     =  -13.43 kcal/mol
DOCKED: USER        Electrostatic Energy            =   +0.00 kcal/mol
DOCKED: USER    (2) Final Total Internal Energy     =   -3.72 kcal/mol
DOCKED: USER    (3) Torsional Free Energy           =   +3.28 kcal/mol
DOCKED: USER    (4) Unbound System's Energy  [=(2)] =   -3.72 kcal/mol
DOCKED: USER    
DOCKED: USER    
DOCKED: USER    NEWDPF move ligand.dum.pdbqt
DOCKED: USER    NEWDPF about 0.460000 0.128000 -0.007000
DOCKED: USER    NEWDPF tran0 38.060784 15.394699 121.793690
DOCKED: USER    NEWDPF quaternion0 -0.706588 0.706145 -0.044499 0.010563
DOCKED: USER    NEWDPF axisangle0 -0.706628 0.706185 -0.044501 178.789565
DOCKED: USER    NEWDPF quat0 -0.706628 0.706185 -0.044501 178.789565
DOCKED: USER    NEWDPF dihe0 -1.34 113.68 96.72 54.04 11.93 38.01 36.29 116.46 168.69 169.05 15.16 
DOCKED: USER  keepresnum = 1 
DOCKED: USER  
DOCKED: REMARK  Name = 
DOCKED: REMARK  11 active torsions:
DOCKED: REMARK  status: ('A' for Active; 'I' for Inactive)
DOCKED: REMARK    1  A    between atoms: C_2  and  C_5
DOCKED: REMARK    2  A    between atoms: N_3  and  O_4
DOCKED: REMARK    3  A    between atoms: C_6  and  C_7
DOCKED: REMARK    4  A    between atoms: C_10  and  C_11
DOCKED: REMARK    5  A    between atoms: C_11  and  N_12
DOCKED: REMARK    6  A    between atoms: N_12  and  C_13
DOCKED: REMARK    7  A    between atoms: N_12  and  C_16
DOCKED: REMARK    8  A    between atoms: C_13  and  C_14
DOCKED: REMARK    9  A    between atoms: C_14  and  O_15
DOCKED: REMARK   10  A    between atoms: C_16  and  C_17
DOCKED: REMARK   11  A    between atoms: C_17  and  C_18
DOCKED: REMARK                            x       y       z     vdW  Elec       q    Type
DOCKED: REMARK                         _______ _______ _______ _____ _____    ______ ____
DOCKED: USER                              x       y       z     vdW  Elec       q    Type
DOCKED: USER                           _______ _______ _______ _____ _____    ______ ____
DOCKED: ROOT
DOCKED: ATOM      1  N   UNL     1      39.305  16.331 121.790 -0.18 -0.00    +0.000 N 
DOCKED: ATOM      2  H   UNL     1      39.163  15.821 122.662 -0.01 -0.00    +0.000 HD
DOCKED: ENDROOT
DOCKED: BRANCH   1   3
DOCKED: ATOM      3  C   UNL     1      38.294  15.868 120.815 -0.21 -0.00    +0.000 C 
DOCKED: BRANCH   3   7
DOCKED: ATOM      4  C   UNL     1      36.640  12.058 122.033 -0.52 -0.00    +0.000 A 
DOCKED: ATOM      5  C   UNL     1      36.558  13.175 122.881 -0.51 -0.00    +0.000 A 
DOCKED: ATOM      6  C   UNL     1      37.099  14.404 122.496 -0.39 -0.00    +0.000 A 
DOCKED: ATOM      7  C   UNL     1      37.725  14.543 121.249 -0.31 -0.00    +0.000 A 
DOCKED: ATOM      8  C   UNL     1      37.792  13.438 120.388 -0.39 -0.00    +0.000 A 
DOCKED: ATOM      9  C   UNL     1      37.252  12.206 120.772 -0.47 -0.00    +0.000 A 
DOCKED: ATOM     10  CM  UNL     1      37.178  13.304 121.636 +0.00 -0.00    +0.000 AC
DOCKED: BRANCH   4  11
DOCKED: ATOM     11  C   UNL     1      36.735   9.640 122.625 -0.70 -0.00    +0.000 C 
DOCKED: ATOM     12  C   UNL     1      36.041  10.778 122.486 -0.67 -0.00    +0.000 C 
DOCKED: BRANCH  10  13
DOCKED: ATOM     13  O   UNL     1      36.849   7.334 123.086 -2.07 -0.00    +0.000 OA
DOCKED: ATOM     14  C   UNL     1      36.132   8.369 123.078 -0.74 -0.00    +0.000 C 
DOCKED: ATOM     15  N   UNL     1      34.773   8.283 123.530 -0.58 -0.00    +0.000 N 
DOCKED: ATOM     16  H   UNL     1      34.236   9.102 123.625 -0.48 -0.00    +0.000 HD
DOCKED: BRANCH  14  16
DOCKED: ATOM     17  O   UNL     1      34.230   7.079 123.827 -0.80 -0.00    +0.000 OA
DOCKED: ATOM     18  H   UNL     1      34.882   6.380 123.659 -0.04 -0.00    +0.000 HD
DOCKED: ENDBRANCH  14  16
DOCKED: ENDBRANCH  10  13
DOCKED: ENDBRANCH   4  11
DOCKED: ENDBRANCH   3   7
DOCKED: ENDBRANCH   1   3
DOCKED: BRANCH   1  18
DOCKED: ATOM     19  C   UNL     1      40.679  15.984 121.352 -0.27 -0.00    +0.000 C 
DOCKED: BRANCH  18  19
DOCKED: ATOM     20  C   UNL     1      41.319  14.906 122.241 -0.49 -0.00    +0.000 C 
DOCKED: BRANCH  19  20
DOCKED: ATOM     21  O   UNL     1      40.367  14.309 123.079 -0.88 -0.00    +0.000 OA
DOCKED: ATOM     22  H   UNL     1      39.620  13.993 122.547 -0.03 -0.00    +0.000 HD
DOCKED: ENDBRANCH  19  20
DOCKED: ENDBRANCH  18  19
DOCKED: ENDBRANCH   1  18
DOCKED: BRANCH   1  22
DOCKED: ATOM     23  C   UNL     1      39.118  17.756 122.151 -0.13 -0.00    +0.000 C 
DOCKED: BRANCH  22  23
DOCKED: ATOM     24  C   UNL     1      38.437  17.977 123.517 -0.19 -0.00    +0.000 C 
DOCKED: BRANCH  23  24
DOCKED: ATOM     25  C   UNL     1      36.985  17.615 123.437 -0.20 -0.00    +0.000 A 
DOCKED: ATOM     26  C   UNL     1      36.291  16.769 124.299 -0.22 -0.00    +0.000 A 
DOCKED: ATOM     27  N   UNL     1      35.016  16.610 123.877 -0.40 -0.00    +0.000 N 
DOCKED: ATOM     28  C   UNL     1      34.903  17.335 122.751 -0.33 -0.00    +0.000 A 
DOCKED: ATOM     29  C   UNL     1      36.086  17.958 122.447 -0.20 -0.00    +0.000 A 
DOCKED: ATOM     30  C   UNL     1      36.231  18.747 121.305 -0.16 -0.00    +0.000 A 
DOCKED: ATOM     31  C   UNL     1      35.110  18.899 120.468 -0.21 -0.00    +0.000 A 
DOCKED: ATOM     32  C   UNL     1      33.889  18.262 120.783 -0.31 -0.00    +0.000 A 
DOCKED: ATOM     33  C   UNL     1      33.778  17.466 121.938 -0.27 -0.00    +0.000 A 
DOCKED: ATOM     34  H   UNL     1      34.313  16.073 124.309 -0.03 -0.00    +0.000 HD
DOCKED: ATOM     35  CM  UNL     1      35.829  17.237 123.378 -0.03 -0.00    +0.000 AC
DOCKED: ATOM     36  CM  UNL     1      34.999  18.112 121.615 +0.00 -0.00    +0.000 AC
DOCKED: ENDBRANCH  23  24
DOCKED: ENDBRANCH  22  23
DOCKED: ENDBRANCH   1  22
DOCKED: TORSDOF 11DOCKED: TER
DOCKED: ENDMDL
________________________________________________________________________________


	BEGINNING GENETIC ALGORITHM DOCKING 62 of 100
Run: 62 Seed: 764958038 1999356348 [ Run 62 of 100 GA/GALS ]
Beginning LAMARCKIAN GENETIC ALGORITHM (LGA), with a maximum of 2500000 energy evaluations.

Final-Value: -16.921


	FINAL GENETIC ALGORITHM DOCKED STATE
	_______________________________________________


Detailed state:  trans 36.659 16.719 121.109 quatxyzw -0.334716 -0.212490 -0.875192 -0.277223 center 0.460 0.128 -0.007 ntor 11 5.1694 179.6750 129.5779 38.9836 -10.0503 145.9298 -14.6585 105.7011 -152.9361 -171.9564 48.8530
State:	 36.659  16.719 121.109  -0.348 -0.221 -0.911 -147.811      5.17  179.67  129.58   38.98  -10.05  145.93  -14.66  105.70 -152.94 -171.96   48.85

DOCKED: MODEL       62
DOCKED: USER    Run = 62
DOCKED: USER    DPF = ligand_dock.biased.dpf
DOCKED: USER  
DOCKED: USER    Estimated Free Energy of Binding    =  -10.02 kcal/mol  [=(1)+(2)+(3)-(4)]
DOCKED: USER    Estimated Inhibition Constant, Ki   =   44.95 nM (nanomolar)  [Temperature = 298.15 K]
DOCKED: USER    
DOCKED: USER    (1) Final Intermolecular Energy     =  -13.30 kcal/mol
DOCKED: USER        vdW + Hbond + desolv Energy     =  -13.30 kcal/mol
DOCKED: USER        Electrostatic Energy            =   +0.00 kcal/mol
DOCKED: USER    (2) Final Total Internal Energy     =   -3.62 kcal/mol
DOCKED: USER    (3) Torsional Free Energy           =   +3.28 kcal/mol
DOCKED: USER    (4) Unbound System's Energy  [=(2)] =   -3.62 kcal/mol
DOCKED: USER    
DOCKED: USER    
DOCKED: USER    NEWDPF move ligand.dum.pdbqt
DOCKED: USER    NEWDPF about 0.460000 0.128000 -0.007000
DOCKED: USER    NEWDPF tran0 36.658907 16.719065 121.108984
DOCKED: USER    NEWDPF quaternion0 -0.334716 -0.212490 -0.875192 -0.277223
DOCKED: USER    NEWDPF axisangle0 -0.348370 -0.221158 -0.910894 -147.810893
DOCKED: USER    NEWDPF quat0 -0.348370 -0.221158 -0.910894 -147.810893
DOCKED: USER    NEWDPF dihe0 5.17 179.67 129.58 38.98 -10.05 145.93 -14.66 105.70 -152.94 -171.96 48.85 
DOCKED: USER  keepresnum = 1 
DOCKED: USER  
DOCKED: REMARK  Name = 
DOCKED: REMARK  11 active torsions:
DOCKED: REMARK  status: ('A' for Active; 'I' for Inactive)
DOCKED: REMARK    1  A    between atoms: C_2  and  C_5
DOCKED: REMARK    2  A    between atoms: N_3  and  O_4
DOCKED: REMARK    3  A    between atoms: C_6  and  C_7
DOCKED: REMARK    4  A    between atoms: C_10  and  C_11
DOCKED: REMARK    5  A    between atoms: C_11  and  N_12
DOCKED: REMARK    6  A    between atoms: N_12  and  C_13
DOCKED: REMARK    7  A    between atoms: N_12  and  C_16
DOCKED: REMARK    8  A    between atoms: C_13  and  C_14
DOCKED: REMARK    9  A    between atoms: C_14  and  O_15
DOCKED: REMARK   10  A    between atoms: C_16  and  C_17
DOCKED: REMARK   11  A    between atoms: C_17  and  C_18
DOCKED: REMARK                            x       y       z     vdW  Elec       q    Type
DOCKED: REMARK                         _______ _______ _______ _____ _____    ______ ____
DOCKED: USER                              x       y       z     vdW  Elec       q    Type
DOCKED: USER                           _______ _______ _______ _____ _____    ______ ____
DOCKED: ROOT
DOCKED: ATOM      1  N   UNL     1      36.455  17.976 120.213 -0.12 -0.00    +0.000 N 
DOCKED: ATOM      2  H   UNL     1      35.769  17.236 120.064 -0.01 -0.00    +0.000 HD
DOCKED: ENDROOT
DOCKED: BRANCH   1   3
DOCKED: ATOM      3  C   UNL     1      37.327  17.577 121.339 -0.13 -0.00    +0.000 C 
DOCKED: BRANCH   3   7
DOCKED: ATOM      4  C   UNL     1      36.859  13.363 122.204 -0.43 -0.00    +0.000 A 
DOCKED: ATOM      5  C   UNL     1      37.619  13.784 121.100 -0.37 -0.00    +0.000 A 
DOCKED: ATOM      6  C   UNL     1      37.765  15.144 120.812 -0.24 -0.00    +0.000 A 
DOCKED: ATOM      7  C   UNL     1      37.159  16.109 121.629 -0.20 -0.00    +0.000 A 
DOCKED: ATOM      8  C   UNL     1      36.417  15.697 122.744 -0.31 -0.00    +0.000 A 
DOCKED: ATOM      9  C   UNL     1      36.269  14.337 123.034 -0.41 -0.00    +0.000 A 
DOCKED: ATOM     10  CM  UNL     1      37.015  14.739 121.921 +0.00 -0.00    +0.000 AC
DOCKED: BRANCH   4  11
DOCKED: ATOM     11  C   UNL     1      37.103  10.959 121.595 -0.47 -0.00    +0.000 C 
DOCKED: ATOM     12  C   UNL     1      36.744  11.907 122.472 -0.63 -0.00    +0.000 C 
DOCKED: BRANCH  10  13
DOCKED: ATOM     13  O   UNL     1      36.843   8.726 120.895 -2.54 -0.00    +0.000 OA
DOCKED: ATOM     14  C   UNL     1      36.985   9.511 121.869 -0.62 -0.00    +0.000 C 
DOCKED: ATOM     15  N   UNL     1      37.057   8.974 123.197 -0.65 -0.00    +0.000 N 
DOCKED: ATOM     16  H   UNL     1      37.270   9.565 123.954 -0.51 -0.00    +0.000 HD
DOCKED: BRANCH  14  16
DOCKED: ATOM     17  O   UNL     1      36.831   7.656 123.410 -2.17 -0.00    +0.000 OA
DOCKED: ATOM     18  H   UNL     1      36.716   7.206 122.558 -0.05 -0.00    +0.000 HD
DOCKED: ENDBRANCH  14  16
DOCKED: ENDBRANCH  10  13
DOCKED: ENDBRANCH   4  11
DOCKED: ENDBRANCH   3   7
DOCKED: ENDBRANCH   1   3
DOCKED: BRANCH   1  18
DOCKED: ATOM     19  C   UNL     1      35.663  19.185 120.542 -0.18 -0.00    +0.000 C 
DOCKED: BRANCH  18  19
DOCKED: ATOM     20  C   UNL     1      34.156  18.970 120.330 -0.24 -0.00    +0.000 C 
DOCKED: BRANCH  19  20
DOCKED: ATOM     21  O   UNL     1      33.739  17.741 120.863 -0.36 -0.00    +0.000 OA
DOCKED: ATOM     22  H   UNL     1      33.081  17.896 121.557 -0.05 -0.00    +0.000 HD
DOCKED: ENDBRANCH  19  20
DOCKED: ENDBRANCH  18  19
DOCKED: ENDBRANCH   1  18
DOCKED: BRANCH   1  22
DOCKED: ATOM     23  C   UNL     1      37.201  18.061 118.934 -0.07 -0.00    +0.000 C 
DOCKED: BRANCH  22  23
DOCKED: ATOM     24  C   UNL     1      36.429  17.519 117.715 -0.09 -0.00    +0.000 C 
DOCKED: BRANCH  23  24
DOCKED: ATOM     25  C   UNL     1      36.562  16.028 117.636 -0.14 -0.00    +0.000 A 
DOCKED: ATOM     26  C   UNL     1      35.872  15.091 118.400 -0.08 -0.00    +0.000 A 
DOCKED: ATOM     27  N   UNL     1      36.304  13.841 118.115 -0.38 -0.00    +0.000 N 
DOCKED: ATOM     28  C   UNL     1      37.270  13.983 117.191 -0.33 -0.00    +0.000 A 
DOCKED: ATOM     29  C   UNL     1      37.461  15.304 116.878 -0.17 -0.00    +0.000 A 
DOCKED: ATOM     30  C   UNL     1      38.431  15.712 115.962 -0.15 -0.00    +0.000 A 
DOCKED: ATOM     31  C   UNL     1      39.214  14.714 115.351 -0.31 -0.00    +0.000 A 
DOCKED: ATOM     32  C   UNL     1      39.015  13.353 115.668 -0.45 -0.00    +0.000 A 
DOCKED: ATOM     33  C   UNL     1      38.032  12.975 116.602 -0.34 -0.00    +0.000 A 
DOCKED: ATOM     34  H   UNL     1      35.977  12.999 118.505 -0.11 -0.00    +0.000 HD
DOCKED: ATOM     35  CM  UNL     1      36.681  14.817 117.659 +0.00 -0.00    +0.000 AC
DOCKED: ATOM     36  CM  UNL     1      38.237  14.340 116.275 +0.00 -0.00    +0.000 AC
DOCKED: ENDBRANCH  23  24
DOCKED: ENDBRANCH  22  23
DOCKED: ENDBRANCH   1  22
DOCKED: TORSDOF 11DOCKED: TER
DOCKED: ENDMDL
________________________________________________________________________________


	BEGINNING GENETIC ALGORITHM DOCKING 63 of 100
Run: 63 Seed: 122221143 368913757 [ Run 63 of 100 GA/GALS ]
Beginning LAMARCKIAN GENETIC ALGORITHM (LGA), with a maximum of 2500000 energy evaluations.

Final-Value: -16.944


	FINAL GENETIC ALGORITHM DOCKED STATE
	_______________________________________________


Detailed state:  trans 39.018 16.886 122.612 quatxyzw -0.853572 0.336379 0.297423 -0.264204 center 0.460 0.128 -0.007 ntor 11 -3.1163 -127.5073 115.4787 19.8519 168.3792 -129.3335 -27.1091 -82.1309 20.3346 94.3987 57.1274
State:	 39.018  16.886 122.612  -0.885  0.349  0.308 -149.361     -3.12 -127.51  115.48   19.85  168.38 -129.33  -27.11  -82.13   20.33   94.40   57.13

DOCKED: MODEL       63
DOCKED: USER    Run = 63
DOCKED: USER    DPF = ligand_dock.biased.dpf
DOCKED: USER  
DOCKED: USER    Estimated Free Energy of Binding    =  -10.27 kcal/mol  [=(1)+(2)+(3)-(4)]
DOCKED: USER    Estimated Inhibition Constant, Ki   =   29.74 nM (nanomolar)  [Temperature = 298.15 K]
DOCKED: USER    
DOCKED: USER    (1) Final Intermolecular Energy     =  -13.55 kcal/mol
DOCKED: USER        vdW + Hbond + desolv Energy     =  -13.55 kcal/mol
DOCKED: USER        Electrostatic Energy            =   +0.00 kcal/mol
DOCKED: USER    (2) Final Total Internal Energy     =   -3.39 kcal/mol
DOCKED: USER    (3) Torsional Free Energy           =   +3.28 kcal/mol
DOCKED: USER    (4) Unbound System's Energy  [=(2)] =   -3.39 kcal/mol
DOCKED: USER    
DOCKED: USER    
DOCKED: USER    NEWDPF move ligand.dum.pdbqt
DOCKED: USER    NEWDPF about 0.460000 0.128000 -0.007000
DOCKED: USER    NEWDPF tran0 39.018076 16.886057 122.612445
DOCKED: USER    NEWDPF quaternion0 -0.853572 0.336379 0.297423 -0.264204
DOCKED: USER    NEWDPF axisangle0 -0.885020 0.348772 0.308380 -149.360647
DOCKED: USER    NEWDPF quat0 -0.885020 0.348772 0.308380 -149.360647
DOCKED: USER    NEWDPF dihe0 -3.12 -127.51 115.48 19.85 168.38 -129.33 -27.11 -82.13 20.33 94.40 57.13 
DOCKED: USER  keepresnum = 1 
DOCKED: USER  
DOCKED: REMARK  Name = 
DOCKED: REMARK  11 active torsions:
DOCKED: REMARK  status: ('A' for Active; 'I' for Inactive)
DOCKED: REMARK    1  A    between atoms: C_2  and  C_5
DOCKED: REMARK    2  A    between atoms: N_3  and  O_4
DOCKED: REMARK    3  A    between atoms: C_6  and  C_7
DOCKED: REMARK    4  A    between atoms: C_10  and  C_11
DOCKED: REMARK    5  A    between atoms: C_11  and  N_12
DOCKED: REMARK    6  A    between atoms: N_12  and  C_13
DOCKED: REMARK    7  A    between atoms: N_12  and  C_16
DOCKED: REMARK    8  A    between atoms: C_13  and  C_14
DOCKED: REMARK    9  A    between atoms: C_14  and  O_15
DOCKED: REMARK   10  A    between atoms: C_16  and  C_17
DOCKED: REMARK   11  A    between atoms: C_17  and  C_18
DOCKED: REMARK                            x       y       z     vdW  Elec       q    Type
DOCKED: REMARK                         _______ _______ _______ _____ _____    ______ ____
DOCKED: USER                              x       y       z     vdW  Elec       q    Type
DOCKED: USER                           _______ _______ _______ _____ _____    ______ ____
DOCKED: ROOT
DOCKED: ATOM      1  N   UNL     1      39.374  18.060 123.572 -0.17 -0.00    +0.000 N 
DOCKED: ATOM      2  H   UNL     1      39.919  17.211 123.723 -0.01 -0.00    +0.000 HD
DOCKED: ENDROOT
DOCKED: BRANCH   1   3
DOCKED: ATOM      3  C   UNL     1      38.515  17.851 122.386 -0.13 -0.00    +0.000 C 
DOCKED: BRANCH   3   7
DOCKED: ATOM      4  C   UNL     1      37.837  13.624 121.753 -0.41 -0.00    +0.000 A 
DOCKED: ATOM      5  C   UNL     1      38.885  14.062 122.579 -0.28 -0.00    +0.000 A 
DOCKED: ATOM      6  C   UNL     1      39.113  15.426 122.779 -0.28 -0.00    +0.000 A 
DOCKED: ATOM      7  C   UNL     1      38.290  16.379 122.162 -0.20 -0.00    +0.000 A 
DOCKED: ATOM      8  C   UNL     1      37.230  15.949 121.353 -0.20 -0.00    +0.000 A 
DOCKED: ATOM      9  C   UNL     1      37.001  14.584 121.150 -0.20 -0.00    +0.000 A 
DOCKED: ATOM     10  CM  UNL     1      38.059  15.004 121.963 +0.00 -0.00    +0.000 AC
DOCKED: BRANCH   4  11
DOCKED: ATOM     11  C   UNL     1      37.148  11.363 122.542 -0.52 -0.00    +0.000 C 
DOCKED: ATOM     12  C   UNL     1      37.632  12.164 121.582 -0.33 -0.00    +0.000 C 
DOCKED: BRANCH  10  13
DOCKED: ATOM     13  O   UNL     1      36.706   9.474 121.207 -2.41 -0.00    +0.000 OA
DOCKED: ATOM     14  C   UNL     1      36.945   9.910 122.364 -0.62 -0.00    +0.000 C 
DOCKED: ATOM     15  N   UNL     1      37.040   8.984 123.455 -0.59 -0.00    +0.000 N 
DOCKED: ATOM     16  H   UNL     1      37.327   9.298 124.342 -0.60 -0.00    +0.000 HD
DOCKED: BRANCH  14  16
DOCKED: ATOM     17  O   UNL     1      36.735   7.678 123.267 -2.16 -0.00    +0.000 OA
DOCKED: ATOM     18  H   UNL     1      36.426   7.546 122.357 -0.02 -0.00    +0.000 HD
DOCKED: ENDBRANCH  14  16
DOCKED: ENDBRANCH  10  13
DOCKED: ENDBRANCH   4  11
DOCKED: ENDBRANCH   3   7
DOCKED: ENDBRANCH   1   3
DOCKED: BRANCH   1  18
DOCKED: ATOM     19  C   UNL     1      40.371  19.131 123.337 -0.12 -0.00    +0.000 C 
DOCKED: BRANCH  18  19
DOCKED: ATOM     20  C   UNL     1      41.709  18.846 124.039 -0.17 -0.00    +0.000 C 
DOCKED: BRANCH  19  20
DOCKED: ATOM     21  O   UNL     1      41.954  17.468 124.123 -0.70 -0.00    +0.000 OA
DOCKED: ATOM     22  H   UNL     1      42.855  17.318 124.448 -0.63 -0.00    +0.000 HD
DOCKED: ENDBRANCH  19  20
DOCKED: ENDBRANCH  18  19
DOCKED: ENDBRANCH   1  18
DOCKED: BRANCH   1  22
DOCKED: ATOM     23  C   UNL     1      38.579  18.223 124.813 -0.20 -0.00    +0.000 C 
DOCKED: BRANCH  22  23
DOCKED: ATOM     24  C   UNL     1      37.393  19.198 124.680 -0.15 -0.00    +0.000 C 
DOCKED: BRANCH  23  24
DOCKED: ATOM     25  C   UNL     1      36.166  18.464 124.231 -0.20 -0.00    +0.000 A 
DOCKED: ATOM     26  C   UNL     1      35.472  17.490 124.944 -0.28 -0.00    +0.000 A 
DOCKED: ATOM     27  N   UNL     1      34.462  16.990 124.198 -0.42 -0.00    +0.000 N 
DOCKED: ATOM     28  C   UNL     1      34.520  17.628 123.016 -0.36 -0.00    +0.000 A 
DOCKED: ATOM     29  C   UNL     1      35.552  18.531 122.996 -0.23 -0.00    +0.000 A 
DOCKED: ATOM     30  C   UNL     1      35.837  19.299 121.866 -0.15 -0.00    +0.000 A 
DOCKED: ATOM     31  C   UNL     1      35.018  19.126 120.734 -0.09 -0.00    +0.000 A 
DOCKED: ATOM     32  C   UNL     1      33.952  18.200 120.755 -0.31 -0.00    +0.000 A 
DOCKED: ATOM     33  C   UNL     1      33.695  17.435 121.909 -0.21 -0.00    +0.000 A 
DOCKED: ATOM     34  H   UNL     1      33.814  16.298 124.466 -0.02 -0.00    +0.000 HD
DOCKED: ATOM     35  CM  UNL     1      35.209  17.794 123.887 -0.18 -0.00    +0.000 AC
DOCKED: ATOM     36  CM  UNL     1      34.762  18.370 121.879 +0.00 -0.00    +0.000 AC
DOCKED: ENDBRANCH  23  24
DOCKED: ENDBRANCH  22  23
DOCKED: ENDBRANCH   1  22
DOCKED: TORSDOF 11DOCKED: TER
DOCKED: ENDMDL
________________________________________________________________________________


	BEGINNING GENETIC ALGORITHM DOCKING 64 of 100
Run: 64 Seed: 1047674834 1377622705 [ Run 64 of 100 GA/GALS ]
Beginning LAMARCKIAN GENETIC ALGORITHM (LGA), with a maximum of 2500000 energy evaluations.

Final-Value: -17.368


	FINAL GENETIC ALGORITHM DOCKED STATE
	_______________________________________________


Detailed state:  trans 37.138 16.539 123.272 quatxyzw -0.240809 0.102821 0.848135 0.460550 center 0.460 0.128 -0.007 ntor 11 36.3159 129.0038 96.6332 53.0357 -136.3585 -111.0645 3.5068 136.1305 -166.9924 -179.3647 14.2921
State:	 37.138  16.539 123.272  -0.271  0.116  0.956 125.155     36.32  129.00   96.63   53.04 -136.36 -111.06    3.51  136.13 -166.99 -179.36   14.29

DOCKED: MODEL       64
DOCKED: USER    Run = 64
DOCKED: USER    DPF = ligand_dock.biased.dpf
DOCKED: USER  
DOCKED: USER    Estimated Free Energy of Binding    =  -10.29 kcal/mol  [=(1)+(2)+(3)-(4)]
DOCKED: USER    Estimated Inhibition Constant, Ki   =   28.60 nM (nanomolar)  [Temperature = 298.15 K]
DOCKED: USER    
DOCKED: USER    (1) Final Intermolecular Energy     =  -13.57 kcal/mol
DOCKED: USER        vdW + Hbond + desolv Energy     =  -13.57 kcal/mol
DOCKED: USER        Electrostatic Energy            =   +0.00 kcal/mol
DOCKED: USER    (2) Final Total Internal Energy     =   -3.79 kcal/mol
DOCKED: USER    (3) Torsional Free Energy           =   +3.28 kcal/mol
DOCKED: USER    (4) Unbound System's Energy  [=(2)] =   -3.79 kcal/mol
DOCKED: USER    
DOCKED: USER    
DOCKED: USER    NEWDPF move ligand.dum.pdbqt
DOCKED: USER    NEWDPF about 0.460000 0.128000 -0.007000
DOCKED: USER    NEWDPF tran0 37.137650 16.538654 123.271711
DOCKED: USER    NEWDPF quaternion0 -0.240809 0.102821 0.848135 0.460550
DOCKED: USER    NEWDPF axisangle0 -0.271294 0.115838 0.955501 125.154772
DOCKED: USER    NEWDPF quat0 -0.271294 0.115838 0.955501 125.154772
DOCKED: USER    NEWDPF dihe0 36.32 129.00 96.63 53.04 -136.36 -111.06 3.51 136.13 -166.99 -179.36 14.29 
DOCKED: USER  keepresnum = 1 
DOCKED: USER  
DOCKED: REMARK  Name = 
DOCKED: REMARK  11 active torsions:
DOCKED: REMARK  status: ('A' for Active; 'I' for Inactive)
DOCKED: REMARK    1  A    between atoms: C_2  and  C_5
DOCKED: REMARK    2  A    between atoms: N_3  and  O_4
DOCKED: REMARK    3  A    between atoms: C_6  and  C_7
DOCKED: REMARK    4  A    between atoms: C_10  and  C_11
DOCKED: REMARK    5  A    between atoms: C_11  and  N_12
DOCKED: REMARK    6  A    between atoms: N_12  and  C_13
DOCKED: REMARK    7  A    between atoms: N_12  and  C_16
DOCKED: REMARK    8  A    between atoms: C_13  and  C_14
DOCKED: REMARK    9  A    between atoms: C_14  and  O_15
DOCKED: REMARK   10  A    between atoms: C_16  and  C_17
DOCKED: REMARK   11  A    between atoms: C_17  and  C_18
DOCKED: REMARK                            x       y       z     vdW  Elec       q    Type
DOCKED: REMARK                         _______ _______ _______ _____ _____    ______ ____
DOCKED: USER                              x       y       z     vdW  Elec       q    Type
DOCKED: USER                           _______ _______ _______ _____ _____    ______ ____
DOCKED: ROOT
DOCKED: ATOM      1  N   UNL     1      36.661  18.006 123.064 -0.17 -0.00    +0.000 N 
DOCKED: ATOM      2  H   UNL     1      36.891  17.511 122.202 +0.00 -0.00    +0.000 HD
DOCKED: ENDROOT
DOCKED: BRANCH   1   3
DOCKED: ATOM      3  C   UNL     1      36.775  17.053 124.188 -0.24 -0.00    +0.000 C 
DOCKED: BRANCH   3   7
DOCKED: ATOM      4  C   UNL     1      36.590  12.975 122.748 -0.51 -0.00    +0.000 A 
DOCKED: ATOM      5  C   UNL     1      37.706  13.781 122.467 -0.44 -0.00    +0.000 A 
DOCKED: ATOM      6  C   UNL     1      37.766  15.101 122.923 -0.35 -0.00    +0.000 A 
DOCKED: ATOM      7  C   UNL     1      36.712  15.638 123.676 -0.32 -0.00    +0.000 A 
DOCKED: ATOM      8  C   UNL     1      35.605  14.833 123.978 -0.48 -0.00    +0.000 A 
DOCKED: ATOM      9  C   UNL     1      35.543  13.513 123.523 -0.39 -0.00    +0.000 A 
DOCKED: ATOM     10  CM  UNL     1      36.654  14.307 123.219 +0.00 -0.00    +0.000 AC
DOCKED: BRANCH   4  11
DOCKED: ATOM     11  C   UNL     1      37.063  10.537 122.945 -0.60 -0.00    +0.000 C 
DOCKED: ATOM     12  C   UNL     1      36.581  11.577 122.250 -0.63 -0.00    +0.000 C 
DOCKED: BRANCH  10  13
DOCKED: ATOM     13  O   UNL     1      37.064   8.959 121.197 -2.70 -0.00    +0.000 OA
DOCKED: ATOM     14  C   UNL     1      37.050   9.147 122.443 -0.66 -0.00    +0.000 C 
DOCKED: ATOM     15  N   UNL     1      37.051   8.014 123.322 -0.75 -0.00    +0.000 N 
DOCKED: ATOM     16  H   UNL     1      37.145   8.146 124.292 -0.37 -0.00    +0.000 HD
DOCKED: BRANCH  14  16
DOCKED: ATOM     17  O   UNL     1      36.925   6.763 122.819 -1.49 -0.00    +0.000 OA
DOCKED: ATOM     18  H   UNL     1      37.392   6.707 121.971 -0.40 -0.00    +0.000 HD
DOCKED: ENDBRANCH  14  16
DOCKED: ENDBRANCH  10  13
DOCKED: ENDBRANCH   4  11
DOCKED: ENDBRANCH   3   7
DOCKED: ENDBRANCH   1   3
DOCKED: BRANCH   1  18
DOCKED: ATOM     19  C   UNL     1      35.265  18.473 122.888 -0.27 -0.00    +0.000 C 
DOCKED: BRANCH  18  19
DOCKED: ATOM     20  C   UNL     1      34.638  17.957 121.583 -0.35 -0.00    +0.000 C 
DOCKED: BRANCH  19  20
DOCKED: ATOM     21  O   UNL     1      35.427  16.953 121.004 -0.25 -0.00    +0.000 OA
DOCKED: ATOM     22  H   UNL     1      35.405  16.161 121.562 -0.01 -0.00    +0.000 HD
DOCKED: ENDBRANCH  19  20
DOCKED: ENDBRANCH  18  19
DOCKED: ENDBRANCH   1  18
DOCKED: BRANCH   1  22
DOCKED: ATOM     23  C   UNL     1      37.665  19.094 123.153 -0.12 -0.00    +0.000 C 
DOCKED: BRANCH  22  23
DOCKED: ATOM     24  C   UNL     1      38.527  19.262 121.886 -0.06 -0.00    +0.000 C 
DOCKED: BRANCH  23  24
DOCKED: ATOM     25  C   UNL     1      39.138  17.951 121.496 -0.07 -0.00    +0.000 A 
DOCKED: ATOM     26  C   UNL     1      38.647  17.053 120.552 -0.08 -0.00    +0.000 A 
DOCKED: ATOM     27  N   UNL     1      39.413  15.939 120.518 -0.17 -0.00    +0.000 N 
DOCKED: ATOM     28  C   UNL     1      40.374  16.120 121.441 -0.22 -0.00    +0.000 A 
DOCKED: ATOM     29  C   UNL     1      40.235  17.333 122.064 -0.15 -0.00    +0.000 A 
DOCKED: ATOM     30  C   UNL     1      41.097  17.741 123.083 -0.23 -0.00    +0.000 A 
DOCKED: ATOM     31  C   UNL     1      42.134  16.865 123.453 -0.32 -0.00    +0.000 A 
DOCKED: ATOM     32  C   UNL     1      42.281  15.616 122.809 -0.43 -0.00    +0.000 A 
DOCKED: ATOM     33  C   UNL     1      41.390  15.231 121.789 -0.33 -0.00    +0.000 A 
DOCKED: ATOM     34  H   UNL     1      39.292  15.155 119.935 -0.03 -0.00    +0.000 HD
DOCKED: ATOM     35  CM  UNL     1      39.557  16.849 121.192 +0.00 -0.00    +0.000 AC
DOCKED: ATOM     36  CM  UNL     1      41.252  16.484 122.439 +0.00 -0.00    +0.000 AC
DOCKED: ENDBRANCH  23  24
DOCKED: ENDBRANCH  22  23
DOCKED: ENDBRANCH   1  22
DOCKED: TORSDOF 11DOCKED: TER
DOCKED: ENDMDL
________________________________________________________________________________


	BEGINNING GENETIC ALGORITHM DOCKING 65 of 100
Run: 65 Seed: 149304151 2024859255 [ Run 65 of 100 GA/GALS ]
Beginning LAMARCKIAN GENETIC ALGORITHM (LGA), with a maximum of 2500000 energy evaluations.

Final-Value: -15.156


	FINAL GENETIC ALGORITHM DOCKED STATE
	_______________________________________________


Detailed state:  trans 37.802 16.516 120.850 quatxyzw -0.469480 -0.605983 0.602765 0.221468 center 0.460 0.128 -0.007 ntor 11 144.8149 130.1416 -53.1179 -72.6755 156.6016 115.4007 -122.2106 96.9075 146.0722 -101.8126 -141.2018
State:	 37.802  16.516 120.850  -0.481 -0.621  0.618 154.409    144.81  130.14  -53.12  -72.68  156.60  115.40 -122.21   96.91  146.07 -101.81 -141.20

DOCKED: MODEL       65
DOCKED: USER    Run = 65
DOCKED: USER    DPF = ligand_dock.biased.dpf
DOCKED: USER  
DOCKED: USER    Estimated Free Energy of Binding    =  -10.35 kcal/mol  [=(1)+(2)+(3)-(4)]
DOCKED: USER    Estimated Inhibition Constant, Ki   =   25.73 nM (nanomolar)  [Temperature = 298.15 K]
DOCKED: USER    
DOCKED: USER    (1) Final Intermolecular Energy     =  -13.64 kcal/mol
DOCKED: USER        vdW + Hbond + desolv Energy     =  -13.64 kcal/mol
DOCKED: USER        Electrostatic Energy            =   +0.00 kcal/mol
DOCKED: USER    (2) Final Total Internal Energy     =   -1.52 kcal/mol
DOCKED: USER    (3) Torsional Free Energy           =   +3.28 kcal/mol
DOCKED: USER    (4) Unbound System's Energy  [=(2)] =   -1.52 kcal/mol
DOCKED: USER    
DOCKED: USER    
DOCKED: USER    NEWDPF move ligand.dum.pdbqt
DOCKED: USER    NEWDPF about 0.460000 0.128000 -0.007000
DOCKED: USER    NEWDPF tran0 37.802130 16.516392 120.849517
DOCKED: USER    NEWDPF quaternion0 -0.469480 -0.605983 0.602765 0.221468
DOCKED: USER    NEWDPF axisangle0 -0.481435 -0.621414 0.618114 154.409409
DOCKED: USER    NEWDPF quat0 -0.481435 -0.621414 0.618114 154.409409
DOCKED: USER    NEWDPF dihe0 144.81 130.14 -53.12 -72.68 156.60 115.40 -122.21 96.91 146.07 -101.81 -141.20 
DOCKED: USER  keepresnum = 1 
DOCKED: USER  
DOCKED: REMARK  Name = 
DOCKED: REMARK  11 active torsions:
DOCKED: REMARK  status: ('A' for Active; 'I' for Inactive)
DOCKED: REMARK    1  A    between atoms: C_2  and  C_5
DOCKED: REMARK    2  A    between atoms: N_3  and  O_4
DOCKED: REMARK    3  A    between atoms: C_6  and  C_7
DOCKED: REMARK    4  A    between atoms: C_10  and  C_11
DOCKED: REMARK    5  A    between atoms: C_11  and  N_12
DOCKED: REMARK    6  A    between atoms: N_12  and  C_13
DOCKED: REMARK    7  A    between atoms: N_12  and  C_16
DOCKED: REMARK    8  A    between atoms: C_13  and  C_14
DOCKED: REMARK    9  A    between atoms: C_14  and  O_15
DOCKED: REMARK   10  A    between atoms: C_16  and  C_17
DOCKED: REMARK   11  A    between atoms: C_17  and  C_18
DOCKED: REMARK                            x       y       z     vdW  Elec       q    Type
DOCKED: REMARK                         _______ _______ _______ _____ _____    ______ ____
DOCKED: USER                              x       y       z     vdW  Elec       q    Type
DOCKED: USER                           _______ _______ _______ _____ _____    ______ ____
DOCKED: ROOT
DOCKED: ATOM      1  N   UNL     1      37.195  16.451 122.282 -0.21 -0.00    +0.000 N 
DOCKED: ATOM      2  H   UNL     1      37.263  17.393 121.895 +0.00 -0.00    +0.000 HD
DOCKED: ENDROOT
DOCKED: BRANCH   1   3
DOCKED: ATOM      3  C   UNL     1      37.616  15.492 121.238 -0.26 -0.00    +0.000 C 
DOCKED: BRANCH   3   7
DOCKED: ATOM      4  C   UNL     1      37.072  11.433 122.640 -0.53 -0.00    +0.000 A 
DOCKED: ATOM      5  C   UNL     1      36.908  11.746 121.281 -0.47 -0.00    +0.000 A 
DOCKED: ATOM      6  C   UNL     1      37.074  13.057 120.825 -0.41 -0.00    +0.000 A 
DOCKED: ATOM      7  C   UNL     1      37.416  14.080 121.721 -0.37 -0.00    +0.000 A 
DOCKED: ATOM      8  C   UNL     1      37.601  13.771 123.076 -0.47 -0.00    +0.000 A 
DOCKED: ATOM      9  C   UNL     1      37.435  12.461 123.534 -0.47 -0.00    +0.000 A 
DOCKED: ATOM     10  CM  UNL     1      37.251  12.758 122.180 +0.00 -0.00    +0.000 AC
DOCKED: BRANCH   4  11
DOCKED: ATOM     11  C   UNL     1      35.896   9.237 122.645 -0.70 -0.00    +0.000 C 
DOCKED: ATOM     12  C   UNL     1      36.894  10.024 123.071 -0.62 -0.00    +0.000 C 
DOCKED: BRANCH  10  13
DOCKED: ATOM     13  O   UNL     1      36.752   7.112 123.190 -1.82 -0.00    +0.000 OA
DOCKED: ATOM     14  C   UNL     1      35.726   7.834 123.077 -0.75 -0.00    +0.000 C 
DOCKED: ATOM     15  N   UNL     1      34.442   7.281 123.397 -0.69 -0.00    +0.000 N 
DOCKED: ATOM     16  H   UNL     1      33.648   7.861 123.412 -0.11 -0.00    +0.000 HD
DOCKED: BRANCH  14  16
DOCKED: ATOM     17  O   UNL     1      34.320   5.961 123.678 -0.87 -0.00    +0.000 OA
DOCKED: ATOM     18  H   UNL     1      33.641   5.838 124.359 -0.63 -0.00    +0.000 HD
DOCKED: ENDBRANCH  14  16
DOCKED: ENDBRANCH  10  13
DOCKED: ENDBRANCH   4  11
DOCKED: ENDBRANCH   3   7
DOCKED: ENDBRANCH   1   3
DOCKED: BRANCH   1  18
DOCKED: ATOM     19  C   UNL     1      35.766  16.274 122.636 -0.33 -0.00    +0.000 C 
DOCKED: BRANCH  18  19
DOCKED: ATOM     20  C   UNL     1      35.568  15.980 124.132 -0.46 -0.00    +0.000 C 
DOCKED: BRANCH  19  20
DOCKED: ATOM     21  O   UNL     1      34.616  14.969 124.328 -0.66 -0.00    +0.000 OA
DOCKED: ATOM     22  H   UNL     1      34.973  14.123 124.019 -0.05 -0.00    +0.000 HD
DOCKED: ENDBRANCH  19  20
DOCKED: ENDBRANCH  18  19
DOCKED: ENDBRANCH   1  18
DOCKED: BRANCH   1  22
DOCKED: ATOM     23  C   UNL     1      38.119  16.453 123.442 -0.28 -0.00    +0.000 C 
DOCKED: BRANCH  22  23
DOCKED: ATOM     24  C   UNL     1      39.415  17.256 123.215 -0.24 -0.00    +0.000 C 
DOCKED: BRANCH  23  24
DOCKED: ATOM     25  C   UNL     1      40.491  16.364 122.674 -0.29 -0.00    +0.000 A 
DOCKED: ATOM     26  C   UNL     1      40.635  14.999 122.909 -0.25 -0.00    +0.000 A 
DOCKED: ATOM     27  N   UNL     1      41.764  14.537 122.326 -0.51 -0.00    +0.000 N 
DOCKED: ATOM     28  C   UNL     1      42.341  15.599 121.738 -0.35 -0.00    +0.000 A 
DOCKED: ATOM     29  C   UNL     1      41.597  16.734 121.934 -0.24 -0.00    +0.000 A 
DOCKED: ATOM     30  C   UNL     1      42.003  17.975 121.443 -0.10 -0.00    +0.000 A 
DOCKED: ATOM     31  C   UNL     1      43.210  18.031 120.721 -0.08 -0.00    +0.000 A 
DOCKED: ATOM     32  C   UNL     1      43.975  16.862 120.514 -0.17 -0.00    +0.000 A 
DOCKED: ATOM     33  C   UNL     1      43.541  15.626 121.029 -0.20 -0.00    +0.000 A 
DOCKED: ATOM     34  H   UNL     1      42.096  13.610 122.330 -0.05 -0.00    +0.000 HD
DOCKED: ATOM     35  CM  UNL     1      41.379  15.611 122.316 +0.00 -0.00    +0.000 AC
DOCKED: ATOM     36  CM  UNL     1      42.778  16.804 121.229 +0.00 -0.00    +0.000 AC
DOCKED: ENDBRANCH  23  24
DOCKED: ENDBRANCH  22  23
DOCKED: ENDBRANCH   1  22
DOCKED: TORSDOF 11DOCKED: TER
DOCKED: ENDMDL
________________________________________________________________________________


	BEGINNING GENETIC ALGORITHM DOCKING 66 of 100
Run: 66 Seed: 544518832 848001571 [ Run 66 of 100 GA/GALS ]
Beginning LAMARCKIAN GENETIC ALGORITHM (LGA), with a maximum of 2500000 energy evaluations.

Final-Value: -16.896


	FINAL GENETIC ALGORITHM DOCKED STATE
	_______________________________________________


Detailed state:  trans 37.115 16.266 122.000 quatxyzw -0.600296 0.681934 -0.414251 -0.054833 center 0.460 0.128 -0.007 ntor 11 7.8862 -27.4454 -33.5035 180.0000 75.6949 144.2828 180.0000 180.0000 157.3780 -28.6856 -10.9726
State:	 37.115  16.266 122.000  -0.601  0.683 -0.415 -173.713      7.89  -27.45  -33.50  180.00   75.69  144.28  180.00  180.00  157.38  -28.69  -10.97

DOCKED: MODEL       66
DOCKED: USER    Run = 66
DOCKED: USER    DPF = ligand_dock.biased.dpf
DOCKED: USER  
DOCKED: USER    Estimated Free Energy of Binding    =  -10.75 kcal/mol  [=(1)+(2)+(3)-(4)]
DOCKED: USER    Estimated Inhibition Constant, Ki   =   13.22 nM (nanomolar)  [Temperature = 298.15 K]
DOCKED: USER    
DOCKED: USER    (1) Final Intermolecular Energy     =  -14.03 kcal/mol
DOCKED: USER        vdW + Hbond + desolv Energy     =  -14.03 kcal/mol
DOCKED: USER        Electrostatic Energy            =   +0.00 kcal/mol
DOCKED: USER    (2) Final Total Internal Energy     =   -2.87 kcal/mol
DOCKED: USER    (3) Torsional Free Energy           =   +3.28 kcal/mol
DOCKED: USER    (4) Unbound System's Energy  [=(2)] =   -2.87 kcal/mol
DOCKED: USER    
DOCKED: USER    
DOCKED: USER    NEWDPF move ligand.dum.pdbqt
DOCKED: USER    NEWDPF about 0.460000 0.128000 -0.007000
DOCKED: USER    NEWDPF tran0 37.114700 16.266171 121.999670
DOCKED: USER    NEWDPF quaternion0 -0.600296 0.681934 -0.414251 -0.054833
DOCKED: USER    NEWDPF axisangle0 -0.601201 0.682962 -0.414875 -173.713470
DOCKED: USER    NEWDPF quat0 -0.601201 0.682962 -0.414875 -173.713470
DOCKED: USER    NEWDPF dihe0 7.89 -27.45 -33.50 180.00 75.69 144.28 180.00 180.00 157.38 -28.69 -10.97 
DOCKED: USER  keepresnum = 1 
DOCKED: USER  
DOCKED: REMARK  Name = 
DOCKED: REMARK  11 active torsions:
DOCKED: REMARK  status: ('A' for Active; 'I' for Inactive)
DOCKED: REMARK    1  A    between atoms: C_2  and  C_5
DOCKED: REMARK    2  A    between atoms: N_3  and  O_4
DOCKED: REMARK    3  A    between atoms: C_6  and  C_7
DOCKED: REMARK    4  A    between atoms: C_10  and  C_11
DOCKED: REMARK    5  A    between atoms: C_11  and  N_12
DOCKED: REMARK    6  A    between atoms: N_12  and  C_13
DOCKED: REMARK    7  A    between atoms: N_12  and  C_16
DOCKED: REMARK    8  A    between atoms: C_13  and  C_14
DOCKED: REMARK    9  A    between atoms: C_14  and  O_15
DOCKED: REMARK   10  A    between atoms: C_16  and  C_17
DOCKED: REMARK   11  A    between atoms: C_17  and  C_18
DOCKED: REMARK                            x       y       z     vdW  Elec       q    Type
DOCKED: REMARK                         _______ _______ _______ _____ _____    ______ ____
DOCKED: USER                              x       y       z     vdW  Elec       q    Type
DOCKED: USER                           _______ _______ _______ _____ _____    ______ ____
DOCKED: ROOT
DOCKED: ATOM      1  N   UNL     1      38.328  17.158 122.396 -0.15 -0.00    +0.000 N 
DOCKED: ATOM      2  H   UNL     1      37.614  17.071 123.120 -0.00 -0.00    +0.000 HD
DOCKED: ENDROOT
DOCKED: BRANCH   1   3
DOCKED: ATOM      3  C   UNL     1      37.952  16.278 121.268 -0.19 -0.00    +0.000 C 
DOCKED: BRANCH   3   7
DOCKED: ATOM      4  C   UNL     1      36.686  12.427 122.786 -0.56 -0.00    +0.000 A 
DOCKED: ATOM      5  C   UNL     1      37.478  12.513 121.628 -0.44 -0.00    +0.000 A 
DOCKED: ATOM      6  C   UNL     1      37.881  13.754 121.130 -0.37 -0.00    +0.000 A 
DOCKED: ATOM      7  C   UNL     1      37.506  14.936 121.786 -0.30 -0.00    +0.000 A 
DOCKED: ATOM      8  C   UNL     1      36.734  14.857 122.953 -0.39 -0.00    +0.000 A 
DOCKED: ATOM      9  C   UNL     1      36.329  13.616 123.453 -0.52 -0.00    +0.000 A 
DOCKED: ATOM     10  CM  UNL     1      37.103  13.684 122.289 +0.00 -0.00    +0.000 AC
DOCKED: BRANCH   4  11
DOCKED: ATOM     11  C   UNL     1      36.398   9.964 122.550 -0.69 -0.00    +0.000 C 
DOCKED: ATOM     12  C   UNL     1      36.293  11.084 123.279 -0.70 -0.00    +0.000 C 
DOCKED: BRANCH  10  13
DOCKED: ATOM     13  O   UNL     1      36.877   7.721 123.082 -2.27 -0.00    +0.000 OA
DOCKED: ATOM     14  C   UNL     1      36.005   8.629 123.048 -0.72 -0.00    +0.000 C 
DOCKED: ATOM     15  N   UNL     1      34.680   8.345 123.517 -0.58 -0.00    +0.000 N 
DOCKED: ATOM     16  H   UNL     1      34.020   9.071 123.592 -0.52 -0.00    +0.000 HD
DOCKED: BRANCH  14  16
DOCKED: ATOM     17  O   UNL     1      34.335   7.080 123.857 -0.80 -0.00    +0.000 OA
DOCKED: ATOM     18  H   UNL     1      35.124   6.516 123.845 -0.03 -0.00    +0.000 HD
DOCKED: ENDBRANCH  14  16
DOCKED: ENDBRANCH  10  13
DOCKED: ENDBRANCH   4  11
DOCKED: ENDBRANCH   3   7
DOCKED: ENDBRANCH   1   3
DOCKED: BRANCH   1  18
DOCKED: ATOM     19  C   UNL     1      39.590  16.713 123.034 -0.27 -0.00    +0.000 C 
DOCKED: BRANCH  18  19
DOCKED: ATOM     20  C   UNL     1      40.362  15.710 122.162 -0.37 -0.00    +0.000 C 
DOCKED: BRANCH  19  20
DOCKED: ATOM     21  O   UNL     1      40.491  14.471 122.807 -1.01 -0.00    +0.000 OA
DOCKED: ATOM     22  H   UNL     1      41.291  14.472 123.353 -0.07 +0.00    +0.000 HD
DOCKED: ENDBRANCH  19  20
DOCKED: ENDBRANCH  18  19
DOCKED: ENDBRANCH   1  18
DOCKED: BRANCH   1  22
DOCKED: ATOM     23  C   UNL     1      38.306  18.591 122.015 -0.08 -0.00    +0.000 C 
DOCKED: BRANCH  22  23
DOCKED: ATOM     24  C   UNL     1      36.949  19.286 122.249 -0.15 -0.00    +0.000 C 
DOCKED: BRANCH  23  24
DOCKED: ATOM     25  C   UNL     1      35.907  18.277 122.625 -0.21 -0.00    +0.000 A 
DOCKED: ATOM     26  C   UNL     1      35.110  17.541 121.752 -0.28 -0.00    +0.000 A 
DOCKED: ATOM     27  N   UNL     1      34.226  16.786 122.444 -0.37 -0.00    +0.000 N 
DOCKED: ATOM     28  C   UNL     1      34.449  17.049 123.743 -0.41 -0.00    +0.000 A 
DOCKED: ATOM     29  C   UNL     1      35.463  17.959 123.893 -0.27 -0.00    +0.000 A 
DOCKED: ATOM     30  C   UNL     1      35.863  18.416 125.150 -0.21 -0.00    +0.000 A 
DOCKED: ATOM     31  C   UNL     1      35.194  17.902 126.277 -0.10 -0.00    +0.000 A 
DOCKED: ATOM     32  C   UNL     1      34.153  16.960 126.123 -0.32 -0.00    +0.000 A 
DOCKED: ATOM     33  C   UNL     1      33.768  16.525 124.841 -0.16 -0.00    +0.000 A 
DOCKED: ATOM     34  H   UNL     1      33.556  16.169 122.071 -0.01 -0.00    +0.000 HD
DOCKED: ATOM     35  CM  UNL     1      35.005  17.499 122.877 -0.02 -0.00    +0.000 AC
DOCKED: ATOM     36  CM  UNL     1      34.815  17.468 125.005 -0.46 -0.00    +0.000 AC
DOCKED: ENDBRANCH  23  24
DOCKED: ENDBRANCH  22  23
DOCKED: ENDBRANCH   1  22
DOCKED: TORSDOF 11DOCKED: TER
DOCKED: ENDMDL
________________________________________________________________________________


	BEGINNING GENETIC ALGORITHM DOCKING 67 of 100
Run: 67 Seed: 808896475 1229366417 [ Run 67 of 100 GA/GALS ]
Beginning LAMARCKIAN GENETIC ALGORITHM (LGA), with a maximum of 2500000 energy evaluations.

Final-Value: -17.328


	FINAL GENETIC ALGORITHM DOCKED STATE
	_______________________________________________


Detailed state:  trans 36.928 16.987 123.715 quatxyzw 0.810364 -0.429199 -0.388899 -0.088636 center 0.460 0.128 -0.007 ntor 11 48.8207 -36.3562 155.1761 180.0000 81.0390 -124.1820 -111.7209 -99.1265 158.5463 -128.0232 21.1556
State:	 36.928  16.987 123.715   0.814 -0.431 -0.390 -169.830     48.82  -36.36  155.18  180.00   81.04 -124.18 -111.72  -99.13  158.55 -128.02   21.16

DOCKED: MODEL       67
DOCKED: USER    Run = 67
DOCKED: USER    DPF = ligand_dock.biased.dpf
DOCKED: USER  
DOCKED: USER    Estimated Free Energy of Binding    =  -12.10 kcal/mol  [=(1)+(2)+(3)-(4)]
DOCKED: USER    Estimated Inhibition Constant, Ki   =    1.34 nM (nanomolar)  [Temperature = 298.15 K]
DOCKED: USER    
DOCKED: USER    (1) Final Intermolecular Energy     =  -15.38 kcal/mol
DOCKED: USER        vdW + Hbond + desolv Energy     =  -15.38 kcal/mol
DOCKED: USER        Electrostatic Energy            =   +0.00 kcal/mol
DOCKED: USER    (2) Final Total Internal Energy     =   -1.94 kcal/mol
DOCKED: USER    (3) Torsional Free Energy           =   +3.28 kcal/mol
DOCKED: USER    (4) Unbound System's Energy  [=(2)] =   -1.94 kcal/mol
DOCKED: USER    
DOCKED: USER    
DOCKED: USER    NEWDPF move ligand.dum.pdbqt
DOCKED: USER    NEWDPF about 0.460000 0.128000 -0.007000
DOCKED: USER    NEWDPF tran0 36.928342 16.986624 123.714993
DOCKED: USER    NEWDPF quaternion0 0.810364 -0.429199 -0.388899 -0.088636
DOCKED: USER    NEWDPF axisangle0 0.813566 -0.430895 -0.390436 -169.829739
DOCKED: USER    NEWDPF quat0 0.813566 -0.430895 -0.390436 -169.829739
DOCKED: USER    NEWDPF dihe0 48.82 -36.36 155.18 180.00 81.04 -124.18 -111.72 -99.13 158.55 -128.02 21.16 
DOCKED: USER  keepresnum = 1 
DOCKED: USER  
DOCKED: REMARK  Name = 
DOCKED: REMARK  11 active torsions:
DOCKED: REMARK  status: ('A' for Active; 'I' for Inactive)
DOCKED: REMARK    1  A    between atoms: C_2  and  C_5
DOCKED: REMARK    2  A    between atoms: N_3  and  O_4
DOCKED: REMARK    3  A    between atoms: C_6  and  C_7
DOCKED: REMARK    4  A    between atoms: C_10  and  C_11
DOCKED: REMARK    5  A    between atoms: C_11  and  N_12
DOCKED: REMARK    6  A    between atoms: N_12  and  C_13
DOCKED: REMARK    7  A    between atoms: N_12  and  C_16
DOCKED: REMARK    8  A    between atoms: C_13  and  C_14
DOCKED: REMARK    9  A    between atoms: C_14  and  O_15
DOCKED: REMARK   10  A    between atoms: C_16  and  C_17
DOCKED: REMARK   11  A    between atoms: C_17  and  C_18
DOCKED: REMARK                            x       y       z     vdW  Elec       q    Type
DOCKED: REMARK                         _______ _______ _______ _____ _____    ______ ____
DOCKED: USER                              x       y       z     vdW  Elec       q    Type
DOCKED: USER                           _______ _______ _______ _____ _____    ______ ____
DOCKED: ROOT
DOCKED: ATOM      1  N   UNL     1      37.407  18.467 123.645 -0.14 -0.00    +0.000 N 
DOCKED: ATOM      2  H   UNL     1      38.124  17.805 123.944 -0.01 -0.00    +0.000 HD
DOCKED: ENDROOT
DOCKED: BRANCH   1   3
DOCKED: ATOM      3  C   UNL     1      36.195  17.701 123.282 -0.26 -0.00    +0.000 C 
DOCKED: BRANCH   3   7
DOCKED: ATOM      4  C   UNL     1      37.121  13.486 122.954 -0.49 -0.00    +0.000 A 
DOCKED: ATOM      5  C   UNL     1      36.154  13.935 123.869 -0.47 -0.00    +0.000 A 
DOCKED: ATOM      6  C   UNL     1      35.858  15.296 123.984 -0.42 -0.00    +0.000 A 
DOCKED: ATOM      7  C   UNL     1      36.520  16.235 123.180 -0.30 -0.00    +0.000 A 
DOCKED: ATOM      8  C   UNL     1      37.471  15.792 122.250 -0.26 -0.00    +0.000 A 
DOCKED: ATOM      9  C   UNL     1      37.769  14.431 122.133 -0.37 -0.00    +0.000 A 
DOCKED: ATOM     10  CM  UNL     1      36.815  14.863 123.061 +0.00 -0.00    +0.000 AC
DOCKED: BRANCH   4  11
DOCKED: ATOM     11  C   UNL     1      36.583  11.162 122.235 -0.64 -0.00    +0.000 C 
DOCKED: ATOM     12  C   UNL     1      37.390  12.029 122.863 -0.51 -0.00    +0.000 C 
DOCKED: BRANCH  10  13
DOCKED: ATOM     13  O   UNL     1      37.067   9.208 121.013 -2.74 -0.00    +0.000 OA
DOCKED: ATOM     14  C   UNL     1      36.858   9.712 122.148 -0.65 -0.00    +0.000 C 
DOCKED: ATOM     15  N   UNL     1      36.921   8.873 123.310 -0.63 -0.00    +0.000 N 
DOCKED: ATOM     16  H   UNL     1      36.863   9.272 124.207 -0.52 -0.00    +0.000 HD
DOCKED: BRANCH  14  16
DOCKED: ATOM     17  O   UNL     1      37.063   7.533 123.174 -2.24 -0.00    +0.000 OA
DOCKED: ATOM     18  H   UNL     1      37.786   7.346 122.555 -0.26 -0.00    +0.000 HD
DOCKED: ENDBRANCH  14  16
DOCKED: ENDBRANCH  10  13
DOCKED: ENDBRANCH   4  11
DOCKED: ENDBRANCH   3   7
DOCKED: ENDBRANCH   1   3
DOCKED: BRANCH   1  18
DOCKED: ATOM     19  C   UNL     1      37.982  19.162 122.468 -0.09 -0.00    +0.000 C 
DOCKED: BRANCH  18  19
DOCKED: ATOM     20  C   UNL     1      36.999  19.219 121.287 -0.13 -0.00    +0.000 C 
DOCKED: BRANCH  19  20
DOCKED: ATOM     21  O   UNL     1      35.940  20.100 121.552 -0.75 +0.00    +0.000 OA
DOCKED: ATOM     22  H   UNL     1      35.175  19.599 121.874 -0.02 -0.00    +0.000 HD
DOCKED: ENDBRANCH  19  20
DOCKED: ENDBRANCH  18  19
DOCKED: ENDBRANCH   1  18
DOCKED: BRANCH   1  22
DOCKED: ATOM     23  C   UNL     1      37.184  19.338 124.823 -0.15 -0.00    +0.000 C 
DOCKED: BRANCH  22  23
DOCKED: ATOM     24  C   UNL     1      37.532  18.677 126.172 -0.09 -0.00    +0.000 C 
DOCKED: BRANCH  23  24
DOCKED: ATOM     25  C   UNL     1      39.018  18.558 126.324 -0.13 -0.00    +0.000 A 
DOCKED: ATOM     26  C   UNL     1      39.965  18.617 125.304 -0.23 -0.00    +0.000 A 
DOCKED: ATOM     27  N   UNL     1      41.203  18.391 125.799 -0.34 -0.00    +0.000 N 
DOCKED: ATOM     28  C   UNL     1      41.045  18.176 127.116 -0.38 -0.00    +0.000 A 
DOCKED: ATOM     29  C   UNL     1      39.724  18.264 127.473 -0.24 -0.00    +0.000 A 
DOCKED: ATOM     30  C   UNL     1      39.300  18.051 128.786 -0.26 -0.00    +0.000 A 
DOCKED: ATOM     31  C   UNL     1      40.281  17.750 129.750 -0.32 -0.00    +0.000 A 
DOCKED: ATOM     32  C   UNL     1      41.642  17.665 129.384 -0.42 -0.00    +0.000 A 
DOCKED: ATOM     33  C   UNL     1      42.037  17.878 128.049 -0.41 -0.00    +0.000 A 
DOCKED: ATOM     34  H   UNL     1      42.049  18.385 125.295 -0.49 -0.00    +0.000 HD
DOCKED: ATOM     35  CM  UNL     1      40.224  18.400 126.384 +0.00 -0.00    +0.000 AC
DOCKED: ATOM     36  CM  UNL     1      40.672  17.964 128.426 +0.00 -0.00    +0.000 AC
DOCKED: ENDBRANCH  23  24
DOCKED: ENDBRANCH  22  23
DOCKED: ENDBRANCH   1  22
DOCKED: TORSDOF 11DOCKED: TER
DOCKED: ENDMDL
________________________________________________________________________________


	BEGINNING GENETIC ALGORITHM DOCKING 68 of 100
Run: 68 Seed: 1385332047 70518920 [ Run 68 of 100 GA/GALS ]
Beginning LAMARCKIAN GENETIC ALGORITHM (LGA), with a maximum of 2500000 energy evaluations.

Final-Value: -17.489


	FINAL GENETIC ALGORITHM DOCKED STATE
	_______________________________________________


Detailed state:  trans 36.650 16.967 123.681 quatxyzw -0.928298 0.254041 -0.046832 -0.267455 center 0.460 0.128 -0.007 ntor 11 17.3287 -147.2250 73.6061 89.9830 69.0021 -135.4573 141.9808 -56.4284 132.9999 -180.0000 42.2705
State:	 36.650  16.967 123.681  -0.963  0.264 -0.049 -148.974     17.33 -147.23   73.61   89.98   69.00 -135.46  141.98  -56.43  133.00 -180.00   42.27

DOCKED: MODEL       68
DOCKED: USER    Run = 68
DOCKED: USER    DPF = ligand_dock.biased.dpf
DOCKED: USER  
DOCKED: USER    Estimated Free Energy of Binding    =  -11.44 kcal/mol  [=(1)+(2)+(3)-(4)]
DOCKED: USER    Estimated Inhibition Constant, Ki   =    4.09 nM (nanomolar)  [Temperature = 298.15 K]
DOCKED: USER    
DOCKED: USER    (1) Final Intermolecular Energy     =  -14.73 kcal/mol
DOCKED: USER        vdW + Hbond + desolv Energy     =  -14.73 kcal/mol
DOCKED: USER        Electrostatic Energy            =   +0.00 kcal/mol
DOCKED: USER    (2) Final Total Internal Energy     =   -2.76 kcal/mol
DOCKED: USER    (3) Torsional Free Energy           =   +3.28 kcal/mol
DOCKED: USER    (4) Unbound System's Energy  [=(2)] =   -2.76 kcal/mol
DOCKED: USER    
DOCKED: USER    
DOCKED: USER    NEWDPF move ligand.dum.pdbqt
DOCKED: USER    NEWDPF about 0.460000 0.128000 -0.007000
DOCKED: USER    NEWDPF tran0 36.649657 16.967168 123.680573
DOCKED: USER    NEWDPF quaternion0 -0.928298 0.254041 -0.046832 -0.267455
DOCKED: USER    NEWDPF axisangle0 -0.963394 0.263645 -0.048603 -148.974197
DOCKED: USER    NEWDPF quat0 -0.963394 0.263645 -0.048603 -148.974197
DOCKED: USER    NEWDPF dihe0 17.33 -147.23 73.61 89.98 69.00 -135.46 141.98 -56.43 133.00 -180.00 42.27 
DOCKED: USER  keepresnum = 1 
DOCKED: USER  
DOCKED: REMARK  Name = 
DOCKED: REMARK  11 active torsions:
DOCKED: REMARK  status: ('A' for Active; 'I' for Inactive)
DOCKED: REMARK    1  A    between atoms: C_2  and  C_5
DOCKED: REMARK    2  A    between atoms: N_3  and  O_4
DOCKED: REMARK    3  A    between atoms: C_6  and  C_7
DOCKED: REMARK    4  A    between atoms: C_10  and  C_11
DOCKED: REMARK    5  A    between atoms: C_11  and  N_12
DOCKED: REMARK    6  A    between atoms: N_12  and  C_13
DOCKED: REMARK    7  A    between atoms: N_12  and  C_16
DOCKED: REMARK    8  A    between atoms: C_13  and  C_14
DOCKED: REMARK    9  A    between atoms: C_14  and  O_15
DOCKED: REMARK   10  A    between atoms: C_16  and  C_17
DOCKED: REMARK   11  A    between atoms: C_17  and  C_18
DOCKED: REMARK                            x       y       z     vdW  Elec       q    Type
DOCKED: REMARK                         _______ _______ _______ _____ _____    ______ ____
DOCKED: USER                              x       y       z     vdW  Elec       q    Type
DOCKED: USER                           _______ _______ _______ _____ _____    ______ ____
DOCKED: ROOT
DOCKED: ATOM      1  N   UNL     1      36.393  18.334 124.382 -0.20 -0.00    +0.000 N 
DOCKED: ATOM      2  H   UNL     1      36.661  17.579 125.014 -0.02 -0.00    +0.000 HD
DOCKED: ENDROOT
DOCKED: BRANCH   1   3
DOCKED: ATOM      3  C   UNL     1      36.470  17.824 122.996 -0.22 -0.00    +0.000 C 
DOCKED: BRANCH   3   7
DOCKED: ATOM      4  C   UNL     1      37.156  13.551 122.982 -0.49 -0.00    +0.000 A 
DOCKED: ATOM      5  C   UNL     1      35.930  14.075 123.425 -0.47 -0.00    +0.000 A 
DOCKED: ATOM      6  C   UNL     1      35.708  15.454 123.439 -0.42 -0.00    +0.000 A 
DOCKED: ATOM      7  C   UNL     1      36.706  16.337 123.003 -0.28 -0.00    +0.000 A 
DOCKED: ATOM      8  C   UNL     1      37.924  15.820 122.540 -0.27 -0.00    +0.000 A 
DOCKED: ATOM      9  C   UNL     1      38.149  14.440 122.525 -0.40 -0.00    +0.000 A 
DOCKED: ATOM     10  CM  UNL     1      36.929  14.947 122.985 +0.00 -0.00    +0.000 AC
DOCKED: BRANCH   4  11
DOCKED: ATOM     11  C   UNL     1      36.639  11.245 122.192 -0.64 -0.00    +0.000 C 
DOCKED: ATOM     12  C   UNL     1      37.337  12.078 122.977 -0.55 -0.00    +0.000 C 
DOCKED: BRANCH  10  13
DOCKED: ATOM     13  O   UNL     1      37.029   9.200 121.092 -2.73 -0.00    +0.000 OA
DOCKED: ATOM     14  C   UNL     1      36.825   9.779 122.192 -0.65 -0.00    +0.000 C 
DOCKED: ATOM     15  N   UNL     1      36.809   9.004 123.398 -0.58 -0.00    +0.000 N 
DOCKED: ATOM     16  H   UNL     1      36.754   9.456 124.271 -0.43 -0.00    +0.000 HD
DOCKED: BRANCH  14  16
DOCKED: ATOM     17  O   UNL     1      36.870   7.652 123.340 -2.19 -0.00    +0.000 OA
DOCKED: ATOM     18  H   UNL     1      37.190   7.381 122.465 -0.10 -0.00    +0.000 HD
DOCKED: ENDBRANCH  14  16
DOCKED: ENDBRANCH  10  13
DOCKED: ENDBRANCH   4  11
DOCKED: ENDBRANCH   3   7
DOCKED: ENDBRANCH   1   3
DOCKED: BRANCH   1  18
DOCKED: ATOM     19  C   UNL     1      37.383  19.412 124.618 -0.14 -0.00    +0.000 C 
DOCKED: BRANCH  18  19
DOCKED: ATOM     20  C   UNL     1      38.814  18.870 124.759 -0.17 -0.00    +0.000 C 
DOCKED: BRANCH  19  20
DOCKED: ATOM     21  O   UNL     1      38.818  17.472 124.875 -0.23 -0.00    +0.000 OA
DOCKED: ATOM     22  H   UNL     1      39.652  17.121 124.527 -0.03 -0.00    +0.000 HD
DOCKED: ENDBRANCH  19  20
DOCKED: ENDBRANCH  18  19
DOCKED: ENDBRANCH   1  18
DOCKED: BRANCH   1  22
DOCKED: ATOM     23  C   UNL     1      35.005  18.678 124.773 -0.29 -0.00    +0.000 C 
DOCKED: BRANCH  22  23
DOCKED: ATOM     24  C   UNL     1      34.054  17.467 124.854 -0.43 -0.00    +0.000 C 
DOCKED: BRANCH  23  24
DOCKED: ATOM     25  C   UNL     1      33.591  17.264 126.265 -0.33 -0.00    +0.000 A 
DOCKED: ATOM     26  C   UNL     1      33.696  16.095 127.014 -0.07 -0.00    +0.000 A 
DOCKED: ATOM     27  N   UNL     1      33.102  16.253 128.219 -0.44 -0.00    +0.000 N 
DOCKED: ATOM     28  C   UNL     1      32.611  17.504 128.231 -0.30 -0.00    +0.000 A 
DOCKED: ATOM     29  C   UNL     1      32.884  18.150 127.053 -0.24 -0.00    +0.000 A 
DOCKED: ATOM     30  C   UNL     1      32.452  19.455 126.812 -0.24 -0.00    +0.000 A 
DOCKED: ATOM     31  C   UNL     1      31.727  20.103 127.829 -0.18 -0.00    +0.000 A 
DOCKED: ATOM     32  C   UNL     1      31.449  19.440 129.044 -0.14 -0.00    +0.000 A 
DOCKED: ATOM     33  C   UNL     1      31.893  18.121 129.254 -0.22 -0.00    +0.000 A 
DOCKED: ATOM     34  H   UNL     1      33.042  15.586 128.940 -0.63 -0.00    +0.000 HD
DOCKED: ATOM     35  CM  UNL     1      33.174  17.028 127.384 +0.00 -0.00    +0.000 AC
DOCKED: ATOM     36  CM  UNL     1      32.169  18.796 128.038 +0.00 -0.00    +0.000 AC
DOCKED: ENDBRANCH  23  24
DOCKED: ENDBRANCH  22  23
DOCKED: ENDBRANCH   1  22
DOCKED: TORSDOF 11DOCKED: TER
DOCKED: ENDMDL
________________________________________________________________________________


	BEGINNING GENETIC ALGORITHM DOCKING 69 of 100
Run: 69 Seed: 140933100 1422354643 [ Run 69 of 100 GA/GALS ]
Beginning LAMARCKIAN GENETIC ALGORITHM (LGA), with a maximum of 2500000 energy evaluations.

Final-Value: -17.795


	FINAL GENETIC ALGORITHM DOCKED STATE
	_______________________________________________


Detailed state:  trans 36.505 16.617 122.949 quatxyzw -0.223224 0.279903 0.882171 0.305940 center 0.460 0.128 -0.007 ntor 11 20.4766 26.0601 167.8429 74.6517 13.2148 67.7122 171.2691 135.1159 -160.8330 -179.9259 41.9383
State:	 36.505  16.617 122.949  -0.234  0.294  0.927 144.371     20.48   26.06  167.84   74.65   13.21   67.71  171.27  135.12 -160.83 -179.93   41.94

DOCKED: MODEL       69
DOCKED: USER    Run = 69
DOCKED: USER    DPF = ligand_dock.biased.dpf
DOCKED: USER  
DOCKED: USER    Estimated Free Energy of Binding    =  -10.76 kcal/mol  [=(1)+(2)+(3)-(4)]
DOCKED: USER    Estimated Inhibition Constant, Ki   =   12.95 nM (nanomolar)  [Temperature = 298.15 K]
DOCKED: USER    
DOCKED: USER    (1) Final Intermolecular Energy     =  -14.04 kcal/mol
DOCKED: USER        vdW + Hbond + desolv Energy     =  -14.04 kcal/mol
DOCKED: USER        Electrostatic Energy            =   +0.00 kcal/mol
DOCKED: USER    (2) Final Total Internal Energy     =   -3.75 kcal/mol
DOCKED: USER    (3) Torsional Free Energy           =   +3.28 kcal/mol
DOCKED: USER    (4) Unbound System's Energy  [=(2)] =   -3.75 kcal/mol
DOCKED: USER    
DOCKED: USER    
DOCKED: USER    NEWDPF move ligand.dum.pdbqt
DOCKED: USER    NEWDPF about 0.460000 0.128000 -0.007000
DOCKED: USER    NEWDPF tran0 36.505450 16.616909 122.948692
DOCKED: USER    NEWDPF quaternion0 -0.223224 0.279903 0.882171 0.305940
DOCKED: USER    NEWDPF axisangle0 -0.234467 0.294000 0.926601 144.370547
DOCKED: USER    NEWDPF quat0 -0.234467 0.294000 0.926601 144.370547
DOCKED: USER    NEWDPF dihe0 20.48 26.06 167.84 74.65 13.21 67.71 171.27 135.12 -160.83 -179.93 41.94 
DOCKED: USER  keepresnum = 1 
DOCKED: USER  
DOCKED: REMARK  Name = 
DOCKED: REMARK  11 active torsions:
DOCKED: REMARK  status: ('A' for Active; 'I' for Inactive)
DOCKED: REMARK    1  A    between atoms: C_2  and  C_5
DOCKED: REMARK    2  A    between atoms: N_3  and  O_4
DOCKED: REMARK    3  A    between atoms: C_6  and  C_7
DOCKED: REMARK    4  A    between atoms: C_10  and  C_11
DOCKED: REMARK    5  A    between atoms: C_11  and  N_12
DOCKED: REMARK    6  A    between atoms: N_12  and  C_13
DOCKED: REMARK    7  A    between atoms: N_12  and  C_16
DOCKED: REMARK    8  A    between atoms: C_13  and  C_14
DOCKED: REMARK    9  A    between atoms: C_14  and  O_15
DOCKED: REMARK   10  A    between atoms: C_16  and  C_17
DOCKED: REMARK   11  A    between atoms: C_17  and  C_18
DOCKED: REMARK                            x       y       z     vdW  Elec       q    Type
DOCKED: REMARK                         _______ _______ _______ _____ _____    ______ ____
DOCKED: USER                              x       y       z     vdW  Elec       q    Type
DOCKED: USER                           _______ _______ _______ _____ _____    ______ ____
DOCKED: ROOT
DOCKED: ATOM      1  N   UNL     1      36.661  18.052 122.365 -0.15 -0.00    +0.000 N 
DOCKED: ATOM      2  H   UNL     1      36.764  17.304 121.679 +0.00 -0.00    +0.000 HD
DOCKED: ENDROOT
DOCKED: BRANCH   1   3
DOCKED: ATOM      3  C   UNL     1      36.282  17.443 123.658 -0.28 -0.00    +0.000 C 
DOCKED: BRANCH   3   7
DOCKED: ATOM      4  C   UNL     1      36.536  13.128 123.439 -0.55 -0.00    +0.000 A 
DOCKED: ATOM      5  C   UNL     1      37.700  13.914 123.397 -0.38 -0.00    +0.000 A 
DOCKED: ATOM      6  C   UNL     1      37.622  15.308 123.459 -0.28 -0.00    +0.000 A 
DOCKED: ATOM      7  C   UNL     1      36.377  15.943 123.572 -0.34 -0.00    +0.000 A 
DOCKED: ATOM      8  C   UNL     1      35.213  15.164 123.634 -0.47 -0.00    +0.000 A 
DOCKED: ATOM      9  C   UNL     1      35.288  13.769 123.572 -0.21 -0.00    +0.000 A 
DOCKED: ATOM     10  CM  UNL     1      36.456  14.538 123.512 +0.00 -0.00    +0.000 AC
DOCKED: BRANCH   4  11
DOCKED: ATOM     11  C   UNL     1      36.654  10.947 122.240 -0.65 -0.00    +0.000 C 
DOCKED: ATOM     12  C   UNL     1      36.675  11.651 123.380 -0.70 -0.00    +0.000 C 
DOCKED: BRANCH  10  13
DOCKED: ATOM     13  O   UNL     1      36.690   8.902 121.073 -2.61 -0.00    +0.000 OA
DOCKED: ATOM     14  C   UNL     1      36.793   9.476 122.189 -0.68 -0.00    +0.000 C 
DOCKED: ATOM     15  N   UNL     1      37.068   8.692 123.358 -0.66 -0.00    +0.000 N 
DOCKED: ATOM     16  H   UNL     1      37.252   9.137 124.216 -0.59 -0.00    +0.000 HD
DOCKED: BRANCH  14  16
DOCKED: ATOM     17  O   UNL     1      37.074   7.339 123.283 -2.12 -0.00    +0.000 OA
DOCKED: ATOM     18  H   UNL     1      37.200   7.068 122.361 -0.15 -0.00    +0.000 HD
DOCKED: ENDBRANCH  14  16
DOCKED: ENDBRANCH  10  13
DOCKED: ENDBRANCH   4  11
DOCKED: ENDBRANCH   3   7
DOCKED: ENDBRANCH   1   3
DOCKED: BRANCH   1  18
DOCKED: ATOM     19  C   UNL     1      35.581  18.921 121.839 -0.23 -0.00    +0.000 C 
DOCKED: BRANCH  18  19
DOCKED: ATOM     20  C   UNL     1      34.602  18.152 120.937 -0.33 -0.00    +0.000 C 
DOCKED: BRANCH  19  20
DOCKED: ATOM     21  O   UNL     1      33.626  17.490 121.697 -0.47 -0.00    +0.000 OA
DOCKED: ATOM     22  H   UNL     1      34.017  17.182 122.528 -0.03 -0.00    +0.000 HD
DOCKED: ENDBRANCH  19  20
DOCKED: ENDBRANCH  18  19
DOCKED: ENDBRANCH   1  18
DOCKED: BRANCH   1  22
DOCKED: ATOM     23  C   UNL     1      37.994  18.698 122.423 -0.10 -0.00    +0.000 C 
DOCKED: BRANCH  22  23
DOCKED: ATOM     24  C   UNL     1      38.925  18.331 121.249 -0.06 -0.00    +0.000 C 
DOCKED: BRANCH  23  24
DOCKED: ATOM     25  C   UNL     1      39.035  16.843 121.119 -0.11 -0.00    +0.000 A 
DOCKED: ATOM     26  C   UNL     1      40.039  16.035 121.646 -0.23 -0.00    +0.000 A 
DOCKED: ATOM     27  N   UNL     1      39.860  14.750 121.264 -0.30 -0.00    +0.000 N 
DOCKED: ATOM     28  C   UNL     1      38.761  14.742 120.489 -0.25 -0.00    +0.000 A 
DOCKED: ATOM     29  C   UNL     1      38.233  16.002 120.373 -0.16 -0.00    +0.000 A 
DOCKED: ATOM     30  C   UNL     1      37.104  16.259 119.594 -0.14 -0.00    +0.000 A 
DOCKED: ATOM     31  C   UNL     1      36.505  15.171 118.931 -0.18 -0.00    +0.000 A 
DOCKED: ATOM     32  C   UNL     1      37.045  13.872 119.055 -0.35 -0.00    +0.000 A 
DOCKED: ATOM     33  C   UNL     1      38.190  13.648 119.842 -0.24 -0.00    +0.000 A 
DOCKED: ATOM     34  H   UNL     1      40.420  13.978 121.504 -0.03 +0.00    +0.000 HD
DOCKED: ATOM     35  CM  UNL     1      39.207  15.645 120.987 +0.00 -0.00    +0.000 AC
DOCKED: ATOM     36  CM  UNL     1      37.639  14.949 119.714 +0.00 -0.00    +0.000 AC
DOCKED: ENDBRANCH  23  24
DOCKED: ENDBRANCH  22  23
DOCKED: ENDBRANCH   1  22
DOCKED: TORSDOF 11DOCKED: TER
DOCKED: ENDMDL
________________________________________________________________________________


	BEGINNING GENETIC ALGORITHM DOCKING 70 of 100
Run: 70 Seed: 615936882 1384368044 [ Run 70 of 100 GA/GALS ]
Beginning LAMARCKIAN GENETIC ALGORITHM (LGA), with a maximum of 2500000 energy evaluations.

Final-Value: -17.897


	FINAL GENETIC ALGORITHM DOCKED STATE
	_______________________________________________


Detailed state:  trans 36.584 16.378 123.710 quatxyzw 0.547223 -0.258991 -0.734167 -0.307360 center 0.460 0.128 -0.007 ntor 11 30.5223 -75.0266 45.3239 104.3203 117.6557 158.6716 160.9556 101.8402 -132.7350 -35.3543 28.3468
State:	 36.584  16.378 123.710   0.575 -0.272 -0.772 -144.200     30.52  -75.03   45.32  104.32  117.66  158.67  160.96  101.84 -132.73  -35.35   28.35

DOCKED: MODEL       70
DOCKED: USER    Run = 70
DOCKED: USER    DPF = ligand_dock.biased.dpf
DOCKED: USER  
DOCKED: USER    Estimated Free Energy of Binding    =  -11.31 kcal/mol  [=(1)+(2)+(3)-(4)]
DOCKED: USER    Estimated Inhibition Constant, Ki   =    5.12 nM (nanomolar)  [Temperature = 298.15 K]
DOCKED: USER    
DOCKED: USER    (1) Final Intermolecular Energy     =  -14.59 kcal/mol
DOCKED: USER        vdW + Hbond + desolv Energy     =  -14.59 kcal/mol
DOCKED: USER        Electrostatic Energy            =   +0.00 kcal/mol
DOCKED: USER    (2) Final Total Internal Energy     =   -3.31 kcal/mol
DOCKED: USER    (3) Torsional Free Energy           =   +3.28 kcal/mol
DOCKED: USER    (4) Unbound System's Energy  [=(2)] =   -3.31 kcal/mol
DOCKED: USER    
DOCKED: USER    
DOCKED: USER    NEWDPF move ligand.dum.pdbqt
DOCKED: USER    NEWDPF about 0.460000 0.128000 -0.007000
DOCKED: USER    NEWDPF tran0 36.583677 16.377596 123.710171
DOCKED: USER    NEWDPF quaternion0 0.547223 -0.258991 -0.734167 -0.307360
DOCKED: USER    NEWDPF axisangle0 0.575060 -0.272165 -0.771513 -144.199604
DOCKED: USER    NEWDPF quat0 0.575060 -0.272165 -0.771513 -144.199604
DOCKED: USER    NEWDPF dihe0 30.52 -75.03 45.32 104.32 117.66 158.67 160.96 101.84 -132.73 -35.35 28.35 
DOCKED: USER  keepresnum = 1 
DOCKED: USER  
DOCKED: REMARK  Name = 
DOCKED: REMARK  11 active torsions:
DOCKED: REMARK  status: ('A' for Active; 'I' for Inactive)
DOCKED: REMARK    1  A    between atoms: C_2  and  C_5
DOCKED: REMARK    2  A    between atoms: N_3  and  O_4
DOCKED: REMARK    3  A    between atoms: C_6  and  C_7
DOCKED: REMARK    4  A    between atoms: C_10  and  C_11
DOCKED: REMARK    5  A    between atoms: C_11  and  N_12
DOCKED: REMARK    6  A    between atoms: N_12  and  C_13
DOCKED: REMARK    7  A    between atoms: N_12  and  C_16
DOCKED: REMARK    8  A    between atoms: C_13  and  C_14
DOCKED: REMARK    9  A    between atoms: C_14  and  O_15
DOCKED: REMARK   10  A    between atoms: C_16  and  C_17
DOCKED: REMARK   11  A    between atoms: C_17  and  C_18
DOCKED: REMARK                            x       y       z     vdW  Elec       q    Type
DOCKED: REMARK                         _______ _______ _______ _____ _____    ______ ____
DOCKED: USER                              x       y       z     vdW  Elec       q    Type
DOCKED: USER                           _______ _______ _______ _____ _____    ______ ____
DOCKED: ROOT
DOCKED: ATOM      1  N   UNL     1      36.582  17.907 123.418 -0.19 -0.00    +0.000 N 
DOCKED: ATOM      2  H   UNL     1      37.281  17.379 122.896 +0.00 -0.00    +0.000 HD
DOCKED: ENDROOT
DOCKED: BRANCH   1   3
DOCKED: ATOM      3  C   UNL     1      35.755  16.948 124.183 -0.36 -0.00    +0.000 C 
DOCKED: BRANCH   3   7
DOCKED: ATOM      4  C   UNL     1      36.872  12.900 123.136 -0.55 -0.00    +0.000 A 
DOCKED: ATOM      5  C   UNL     1      35.541  13.212 123.459 -0.37 -0.00    +0.000 A 
DOCKED: ATOM      6  C   UNL     1      35.177  14.516 123.806 -0.47 -0.00    +0.000 A 
DOCKED: ATOM      7  C   UNL     1      36.139  15.536 123.829 -0.39 -0.00    +0.000 A 
DOCKED: ATOM      8  C   UNL     1      37.465  15.237 123.487 -0.29 -0.00    +0.000 A 
DOCKED: ATOM      9  C   UNL     1      37.831  13.933 123.140 -0.43 -0.00    +0.000 A 
DOCKED: ATOM     10  CM  UNL     1      36.504  14.223 123.476 +0.00 -0.00    +0.000 AC
DOCKED: BRANCH   4  11
DOCKED: ATOM     11  C   UNL     1      36.302  10.510 122.726 -0.69 -0.00    +0.000 C 
DOCKED: ATOM     12  C   UNL     1      37.203  11.502 122.764 -0.52 -0.00    +0.000 C 
DOCKED: BRANCH  10  13
DOCKED: ATOM     13  O   UNL     1      36.767   8.839 121.133 -2.63 -0.00    +0.000 OA
DOCKED: ATOM     14  C   UNL     1      36.639   9.119 122.354 -0.74 -0.00    +0.000 C 
DOCKED: ATOM     15  N   UNL     1      36.850   8.094 123.334 -0.73 -0.00    +0.000 N 
DOCKED: ATOM     16  H   UNL     1      36.855   8.323 124.291 -0.38 -0.00    +0.000 HD
DOCKED: BRANCH  14  16
DOCKED: ATOM     17  O   UNL     1      37.045   6.811 122.945 -1.57 -0.00    +0.000 OA
DOCKED: ATOM     18  H   UNL     1      37.479   6.799 122.078 -0.35 -0.00    +0.000 HD
DOCKED: ENDBRANCH  14  16
DOCKED: ENDBRANCH  10  13
DOCKED: ENDBRANCH   4  11
DOCKED: ENDBRANCH   3   7
DOCKED: ENDBRANCH   1   3
DOCKED: BRANCH   1  18
DOCKED: ATOM     19  C   UNL     1      35.780  18.616 122.392 -0.24 -0.00    +0.000 C 
DOCKED: BRANCH  18  19
DOCKED: ATOM     20  C   UNL     1      35.167  17.653 121.363 -0.30 -0.00    +0.000 C 
DOCKED: BRANCH  19  20
DOCKED: ATOM     21  O   UNL     1      36.064  16.627 121.031 -0.24 -0.00    +0.000 OA
DOCKED: ATOM     22  H   UNL     1      36.061  16.492 120.071 -0.01 -0.00    +0.000 HD
DOCKED: ENDBRANCH  19  20
DOCKED: ENDBRANCH  18  19
DOCKED: ENDBRANCH   1  18
DOCKED: BRANCH   1  22
DOCKED: ATOM     23  C   UNL     1      37.367  18.797 124.306 -0.17 -0.00    +0.000 C 
DOCKED: BRANCH  22  23
DOCKED: ATOM     24  C   UNL     1      38.573  19.469 123.620 -0.09 -0.00    +0.000 C 
DOCKED: BRANCH  23  24
DOCKED: ATOM     25  C   UNL     1      39.773  18.574 123.684 -0.15 -0.00    +0.000 A 
DOCKED: ATOM     26  C   UNL     1      40.889  18.737 124.499 -0.22 -0.00    +0.000 A 
DOCKED: ATOM     27  N   UNL     1      41.810  17.783 124.233 -0.30 -0.00    +0.000 N 
DOCKED: ATOM     28  C   UNL     1      41.292  17.030 123.248 -0.31 -0.00    +0.000 A 
DOCKED: ATOM     29  C   UNL     1      40.052  17.485 122.882 -0.19 -0.00    +0.000 A 
DOCKED: ATOM     30  C   UNL     1      39.319  16.884 121.857 -0.15 -0.00    +0.000 A 
DOCKED: ATOM     31  C   UNL     1      39.892  15.775 121.207 -0.22 -0.00    +0.000 A 
DOCKED: ATOM     32  C   UNL     1      41.167  15.302 121.587 -0.28 -0.00    +0.000 A 
DOCKED: ATOM     33  C   UNL     1      41.884  15.934 122.620 -0.43 -0.00    +0.000 A 
DOCKED: ATOM     34  H   UNL     1      42.683  17.665 124.672 -0.63 -0.00    +0.000 HD
DOCKED: ATOM     35  CM  UNL     1      40.797  17.917 123.726 +0.00 -0.00    +0.000 AC
DOCKED: ATOM     36  CM  UNL     1      40.601  16.401 122.234 +0.00 -0.00    +0.000 AC
DOCKED: ENDBRANCH  23  24
DOCKED: ENDBRANCH  22  23
DOCKED: ENDBRANCH   1  22
DOCKED: TORSDOF 11DOCKED: TER
DOCKED: ENDMDL
________________________________________________________________________________


	BEGINNING GENETIC ALGORITHM DOCKING 71 of 100
Run: 71 Seed: 586890213 1116854097 [ Run 71 of 100 GA/GALS ]
Beginning LAMARCKIAN GENETIC ALGORITHM (LGA), with a maximum of 2500000 energy evaluations.

Final-Value: -15.654


	FINAL GENETIC ALGORITHM DOCKED STATE
	_______________________________________________


Detailed state:  trans 38.127 18.749 122.172 quatxyzw -0.503251 -0.708764 0.416216 0.266751 center 0.460 0.128 -0.007 ntor 11 6.4531 -173.5014 -33.1308 -78.4831 -164.8863 173.9203 180.0000 -51.2907 86.3209 49.2802 -127.7236
State:	 38.127  18.749 122.172  -0.522 -0.735  0.432 149.058      6.45 -173.50  -33.13  -78.48 -164.89  173.92  180.00  -51.29   86.32   49.28 -127.72

DOCKED: MODEL       71
DOCKED: USER    Run = 71
DOCKED: USER    DPF = ligand_dock.biased.dpf
DOCKED: USER  
DOCKED: USER    Estimated Free Energy of Binding    =  -10.11 kcal/mol  [=(1)+(2)+(3)-(4)]
DOCKED: USER    Estimated Inhibition Constant, Ki   =   38.66 nM (nanomolar)  [Temperature = 298.15 K]
DOCKED: USER    
DOCKED: USER    (1) Final Intermolecular Energy     =  -13.39 kcal/mol
DOCKED: USER        vdW + Hbond + desolv Energy     =  -13.39 kcal/mol
DOCKED: USER        Electrostatic Energy            =   +0.00 kcal/mol
DOCKED: USER    (2) Final Total Internal Energy     =   -2.26 kcal/mol
DOCKED: USER    (3) Torsional Free Energy           =   +3.28 kcal/mol
DOCKED: USER    (4) Unbound System's Energy  [=(2)] =   -2.26 kcal/mol
DOCKED: USER    
DOCKED: USER    
DOCKED: USER    NEWDPF move ligand.dum.pdbqt
DOCKED: USER    NEWDPF about 0.460000 0.128000 -0.007000
DOCKED: USER    NEWDPF tran0 38.127196 18.748554 122.171985
DOCKED: USER    NEWDPF quaternion0 -0.503251 -0.708764 0.416216 0.266751
DOCKED: USER    NEWDPF axisangle0 -0.522172 -0.735411 0.431864 149.057905
DOCKED: USER    NEWDPF quat0 -0.522172 -0.735411 0.431864 149.057905
DOCKED: USER    NEWDPF dihe0 6.45 -173.50 -33.13 -78.48 -164.89 173.92 180.00 -51.29 86.32 49.28 -127.72 
DOCKED: USER  keepresnum = 1 
DOCKED: USER  
DOCKED: REMARK  Name = 
DOCKED: REMARK  11 active torsions:
DOCKED: REMARK  status: ('A' for Active; 'I' for Inactive)
DOCKED: REMARK    1  A    between atoms: C_2  and  C_5
DOCKED: REMARK    2  A    between atoms: N_3  and  O_4
DOCKED: REMARK    3  A    between atoms: C_6  and  C_7
DOCKED: REMARK    4  A    between atoms: C_10  and  C_11
DOCKED: REMARK    5  A    between atoms: C_11  and  N_12
DOCKED: REMARK    6  A    between atoms: N_12  and  C_13
DOCKED: REMARK    7  A    between atoms: N_12  and  C_16
DOCKED: REMARK    8  A    between atoms: C_13  and  C_14
DOCKED: REMARK    9  A    between atoms: C_14  and  O_15
DOCKED: REMARK   10  A    between atoms: C_16  and  C_17
DOCKED: REMARK   11  A    between atoms: C_17  and  C_18
DOCKED: REMARK                            x       y       z     vdW  Elec       q    Type
DOCKED: REMARK                         _______ _______ _______ _____ _____    ______ ____
DOCKED: USER                              x       y       z     vdW  Elec       q    Type
DOCKED: USER                           _______ _______ _______ _____ _____    ______ ____
DOCKED: ROOT
DOCKED: ATOM      1  N   UNL     1      37.291  18.114 123.322 -0.15 -0.00    +0.000 N 
DOCKED: ATOM      2  H   UNL     1      37.218  19.129 123.258 +0.00 -0.00    +0.000 HD
DOCKED: ENDROOT
DOCKED: BRANCH   1   3
DOCKED: ATOM      3  C   UNL     1      38.106  17.637 122.184 -0.14 -0.00    +0.000 C 
DOCKED: BRANCH   3   7
DOCKED: ATOM      4  C   UNL     1      37.417  13.412 121.547 -0.41 -0.00    +0.000 A 
DOCKED: ATOM      5  C   UNL     1      37.966  13.871 122.756 -0.44 -0.00    +0.000 A 
DOCKED: ATOM      6  C   UNL     1      38.198  15.233 122.963 -0.32 -0.00    +0.000 A 
DOCKED: ATOM      7  C   UNL     1      37.878  16.165 121.965 -0.20 -0.00    +0.000 A 
DOCKED: ATOM      8  C   UNL     1      37.311  15.716 120.764 -0.19 -0.00    +0.000 A 
DOCKED: ATOM      9  C   UNL     1      37.079  14.353 120.555 -0.24 -0.00    +0.000 A 
DOCKED: ATOM     10  CM  UNL     1      37.641  14.792 121.758 +0.00 -0.00    +0.000 AC
DOCKED: BRANCH   4  11
DOCKED: ATOM     11  C   UNL     1      37.186  11.082 122.400 -0.42 -0.00    +0.000 C 
DOCKED: ATOM     12  C   UNL     1      37.181  11.956 121.383 -0.53 -0.00    +0.000 C 
DOCKED: BRANCH  10  13
DOCKED: ATOM     13  O   UNL     1      36.699   9.198 121.074 -2.61 -0.00    +0.000 OA
DOCKED: ATOM     14  C   UNL     1      36.949   9.633 122.229 -0.63 -0.00    +0.000 C 
DOCKED: ATOM     15  N   UNL     1      37.022   8.711 123.325 -0.66 -0.00    +0.000 N 
DOCKED: ATOM     16  H   UNL     1      37.317   9.022 124.210 -0.59 -0.00    +0.000 HD
DOCKED: BRANCH  14  16
DOCKED: ATOM     17  O   UNL     1      36.687   7.411 123.143 -2.03 -0.00    +0.000 OA
DOCKED: ATOM     18  H   UNL     1      36.519   7.250 122.201 -0.04 -0.00    +0.000 HD
DOCKED: ENDBRANCH  14  16
DOCKED: ENDBRANCH  10  13
DOCKED: ENDBRANCH   4  11
DOCKED: ENDBRANCH   3   7
DOCKED: ENDBRANCH   1   3
DOCKED: BRANCH   1  18
DOCKED: ATOM     19  C   UNL     1      35.898  17.614 123.239 -0.28 -0.00    +0.000 C 
DOCKED: BRANCH  18  19
DOCKED: ATOM     20  C   UNL     1      35.539  16.689 124.413 -0.38 -0.00    +0.000 C 
DOCKED: BRANCH  19  20
DOCKED: ATOM     21  O   UNL     1      35.229  15.397 123.965 -0.56 -0.00    +0.000 OA
DOCKED: ATOM     22  H   UNL     1      35.783  14.752 124.430 -0.05 -0.00    +0.000 HD
DOCKED: ENDBRANCH  19  20
DOCKED: ENDBRANCH  18  19
DOCKED: ENDBRANCH   1  18
DOCKED: BRANCH   1  22
DOCKED: ATOM     23  C   UNL     1      37.955  17.866 124.624 -0.15 -0.00    +0.000 C 
DOCKED: BRANCH  22  23
DOCKED: ATOM     24  C   UNL     1      39.475  17.627 124.523 -0.19 -0.00    +0.000 C 
DOCKED: BRANCH  23  24
DOCKED: ATOM     25  C   UNL     1      40.217  18.657 125.319 -0.24 -0.00    +0.000 A 
DOCKED: ATOM     26  C   UNL     1      40.626  19.912 124.878 -0.11 -0.00    +0.000 A 
DOCKED: ATOM     27  N   UNL     1      41.339  20.540 125.841 -0.12 -0.00    +0.000 N 
DOCKED: ATOM     28  C   UNL     1      41.396  19.688 126.878 -0.19 -0.00    +0.000 A 
DOCKED: ATOM     29  C   UNL     1      40.728  18.524 126.595 -0.32 -0.00    +0.000 A 
DOCKED: ATOM     30  C   UNL     1      40.669  17.469 127.506 -0.24 -0.00    +0.000 A 
DOCKED: ATOM     31  C   UNL     1      41.314  17.637 128.746 -0.47 -0.00    +0.000 A 
DOCKED: ATOM     32  C   UNL     1      41.998  18.837 129.040 -0.29 -0.00    +0.000 A 
DOCKED: ATOM     33  C   UNL     1      42.045  19.880 128.097 -0.18 -0.00    +0.000 A 
DOCKED: ATOM     34  H   UNL     1      41.735  21.440 125.791 -0.00 -0.00    +0.000 HD
DOCKED: ATOM     35  CM  UNL     1      40.877  19.499 125.900 +0.00 -0.00    +0.000 AC
DOCKED: ATOM     36  CM  UNL     1      41.358  18.673 127.811 +0.00 -0.00    +0.000 AC
DOCKED: ENDBRANCH  23  24
DOCKED: ENDBRANCH  22  23
DOCKED: ENDBRANCH   1  22
DOCKED: TORSDOF 11DOCKED: TER
DOCKED: ENDMDL
________________________________________________________________________________


	BEGINNING GENETIC ALGORITHM DOCKING 72 of 100
Run: 72 Seed: 2071371807 638681524 [ Run 72 of 100 GA/GALS ]
Beginning LAMARCKIAN GENETIC ALGORITHM (LGA), with a maximum of 2500000 energy evaluations.

Final-Value: -17.043


	FINAL GENETIC ALGORITHM DOCKED STATE
	_______________________________________________


Detailed state:  trans 36.187 16.752 120.863 quatxyzw 0.307659 -0.142019 0.691347 0.638135 center 0.460 0.128 -0.007 ntor 11 13.2090 -52.0686 -132.1378 85.7812 162.0631 -175.7197 -68.5241 -95.6988 177.4319 19.9712 7.5745
State:	 36.187  16.752 120.863   0.400 -0.184  0.898 100.694     13.21  -52.07 -132.14   85.78  162.06 -175.72  -68.52  -95.70  177.43   19.97    7.57

DOCKED: MODEL       72
DOCKED: USER    Run = 72
DOCKED: USER    DPF = ligand_dock.biased.dpf
DOCKED: USER  
DOCKED: USER    Estimated Free Energy of Binding    =  -11.59 kcal/mol  [=(1)+(2)+(3)-(4)]
DOCKED: USER    Estimated Inhibition Constant, Ki   =    3.17 nM (nanomolar)  [Temperature = 298.15 K]
DOCKED: USER    
DOCKED: USER    (1) Final Intermolecular Energy     =  -14.88 kcal/mol
DOCKED: USER        vdW + Hbond + desolv Energy     =  -14.88 kcal/mol
DOCKED: USER        Electrostatic Energy            =   +0.00 kcal/mol
DOCKED: USER    (2) Final Total Internal Energy     =   -2.17 kcal/mol
DOCKED: USER    (3) Torsional Free Energy           =   +3.28 kcal/mol
DOCKED: USER    (4) Unbound System's Energy  [=(2)] =   -2.17 kcal/mol
DOCKED: USER    
DOCKED: USER    
DOCKED: USER    NEWDPF move ligand.dum.pdbqt
DOCKED: USER    NEWDPF about 0.460000 0.128000 -0.007000
DOCKED: USER    NEWDPF tran0 36.186666 16.752480 120.862738
DOCKED: USER    NEWDPF quaternion0 0.307659 -0.142019 0.691347 0.638135
DOCKED: USER    NEWDPF axisangle0 0.399597 -0.184458 0.897941 100.694216
DOCKED: USER    NEWDPF quat0 0.399597 -0.184458 0.897941 100.694216
DOCKED: USER    NEWDPF dihe0 13.21 -52.07 -132.14 85.78 162.06 -175.72 -68.52 -95.70 177.43 19.97 7.57 
DOCKED: USER  keepresnum = 1 
DOCKED: USER  
DOCKED: REMARK  Name = 
DOCKED: REMARK  11 active torsions:
DOCKED: REMARK  status: ('A' for Active; 'I' for Inactive)
DOCKED: REMARK    1  A    between atoms: C_2  and  C_5
DOCKED: REMARK    2  A    between atoms: N_3  and  O_4
DOCKED: REMARK    3  A    between atoms: C_6  and  C_7
DOCKED: REMARK    4  A    between atoms: C_10  and  C_11
DOCKED: REMARK    5  A    between atoms: C_11  and  N_12
DOCKED: REMARK    6  A    between atoms: N_12  and  C_13
DOCKED: REMARK    7  A    between atoms: N_12  and  C_16
DOCKED: REMARK    8  A    between atoms: C_13  and  C_14
DOCKED: REMARK    9  A    between atoms: C_14  and  O_15
DOCKED: REMARK   10  A    between atoms: C_16  and  C_17
DOCKED: REMARK   11  A    between atoms: C_17  and  C_18
DOCKED: REMARK                            x       y       z     vdW  Elec       q    Type
DOCKED: REMARK                         _______ _______ _______ _____ _____    ______ ____
DOCKED: USER                              x       y       z     vdW  Elec       q    Type
DOCKED: USER                           _______ _______ _______ _____ _____    ______ ____
DOCKED: ROOT
DOCKED: ATOM      1  N   UNL     1      35.188  17.838 121.361 -0.27 -0.00    +0.000 N 
DOCKED: ATOM      2  H   UNL     1      34.763  17.101 120.798 -0.02 -0.00    +0.000 HD
DOCKED: ENDROOT
DOCKED: BRANCH   1   3
DOCKED: ATOM      3  C   UNL     1      36.612  17.497 121.570 -0.19 -0.00    +0.000 C 
DOCKED: BRANCH   3   7
DOCKED: ATOM      4  C   UNL     1      37.142  13.210 121.302 -0.41 -0.00    +0.000 A 
DOCKED: ATOM      5  C   UNL     1      36.882  13.821 122.540 -0.43 -0.00    +0.000 A 
DOCKED: ATOM      6  C   UNL     1      36.719  15.205 122.633 -0.33 -0.00    +0.000 A 
DOCKED: ATOM      7  C   UNL     1      36.805  16.006 121.485 -0.20 -0.00    +0.000 A 
DOCKED: ATOM      8  C   UNL     1      37.043  15.402 120.243 -0.19 -0.00    +0.000 A 
DOCKED: ATOM      9  C   UNL     1      37.207  14.017 120.148 -0.30 -0.00    +0.000 A 
DOCKED: ATOM     10  CM  UNL     1      36.966  14.611 121.392 +0.00 -0.00    +0.000 AC
DOCKED: BRANCH   4  11
DOCKED: ATOM     11  C   UNL     1      36.752  10.902 122.156 -0.62 -0.00    +0.000 C 
DOCKED: ATOM     12  C   UNL     1      37.296  11.735 121.257 -0.49 -0.00    +0.000 C 
DOCKED: BRANCH  10  13
DOCKED: ATOM     13  O   UNL     1      36.960   8.875 120.977 -2.68 -0.00    +0.000 OA
DOCKED: ATOM     14  C   UNL     1      36.910   9.434 122.104 -0.66 -0.00    +0.000 C 
DOCKED: ATOM     15  N   UNL     1      37.035   8.634 123.289 -0.67 -0.00    +0.000 N 
DOCKED: ATOM     16  H   UNL     1      37.100   9.069 124.169 -0.56 -0.00    +0.000 HD
DOCKED: BRANCH  14  16
DOCKED: ATOM     17  O   UNL     1      37.063   7.283 123.197 -2.08 -0.00    +0.000 OA
DOCKED: ATOM     18  H   UNL     1      37.198   7.025 122.272 -0.15 -0.00    +0.000 HD
DOCKED: ENDBRANCH  14  16
DOCKED: ENDBRANCH  10  13
DOCKED: ENDBRANCH   4  11
DOCKED: ENDBRANCH   3   7
DOCKED: ENDBRANCH   1   3
DOCKED: BRANCH   1  18
DOCKED: ATOM     19  C   UNL     1      34.437  17.838 122.639 -0.39 -0.00    +0.000 C 
DOCKED: BRANCH  18  19
DOCKED: ATOM     20  C   UNL     1      34.065  16.418 123.097 -0.35 -0.00    +0.000 C 
DOCKED: BRANCH  19  20
DOCKED: ATOM     21  O   UNL     1      34.143  16.298 124.492 -0.57 -0.00    +0.000 OA
DOCKED: ATOM     22  H   UNL     1      34.868  15.698 124.726 -0.03 -0.00    +0.000 HD
DOCKED: ENDBRANCH  19  20
DOCKED: ENDBRANCH  18  19
DOCKED: ENDBRANCH   1  18
DOCKED: BRANCH   1  22
DOCKED: ATOM     23  C   UNL     1      35.024  19.071 120.553 -0.18 -0.00    +0.000 C 
DOCKED: BRANCH  22  23
DOCKED: ATOM     24  C   UNL     1      34.452  18.829 119.142 -0.23 -0.00    +0.000 C 
DOCKED: BRANCH  23  24
DOCKED: ATOM     25  C   UNL     1      32.980  18.561 119.216 -0.30 -0.00    +0.000 A 
DOCKED: ATOM     26  C   UNL     1      32.112  18.965 120.227 -0.32 -0.00    +0.000 A 
DOCKED: ATOM     27  N   UNL     1      30.870  18.478 120.004 -0.49 -0.00    +0.000 N 
DOCKED: ATOM     28  C   UNL     1      30.950  17.760 118.871 -0.30 -0.00    +0.000 A 
DOCKED: ATOM     29  C   UNL     1      32.224  17.782 118.364 -0.18 -0.00    +0.000 A 
DOCKED: ATOM     30  C   UNL     1      32.567  17.085 117.204 -0.15 -0.00    +0.000 A 
DOCKED: ATOM     31  C   UNL     1      31.554  16.357 116.554 -0.19 -0.00    +0.000 A 
DOCKED: ATOM     32  C   UNL     1      30.240  16.337 117.072 -0.27 -0.00    +0.000 A 
DOCKED: ATOM     33  C   UNL     1      29.927  17.045 118.248 -0.33 -0.00    +0.000 A 
DOCKED: ATOM     34  H   UNL     1      30.070  18.621 120.559 -0.34 -0.00    +0.000 HD
DOCKED: ATOM     35  CM  UNL     1      31.796  18.314 119.358 +0.00 -0.00    +0.000 AC
DOCKED: ATOM     36  CM  UNL     1      31.243  17.061 117.718 +0.00 -0.00    +0.000 AC
DOCKED: ENDBRANCH  23  24
DOCKED: ENDBRANCH  22  23
DOCKED: ENDBRANCH   1  22
DOCKED: TORSDOF 11DOCKED: TER
DOCKED: ENDMDL
________________________________________________________________________________


	BEGINNING GENETIC ALGORITHM DOCKING 73 of 100
Run: 73 Seed: 129396600 2146552662 [ Run 73 of 100 GA/GALS ]
Beginning LAMARCKIAN GENETIC ALGORITHM (LGA), with a maximum of 2500000 energy evaluations.

Final-Value: -16.308


	FINAL GENETIC ALGORITHM DOCKED STATE
	_______________________________________________


Detailed state:  trans 37.098 18.317 122.136 quatxyzw 0.423198 0.621994 -0.621481 0.218606 center 0.460 0.128 -0.007 ntor 11 17.8986 24.8181 -161.6932 156.2882 -175.5571 144.0496 -124.3410 -55.4598 119.2329 169.6693 -179.8033
State:	 37.098  18.317 122.136   0.434  0.637 -0.637 154.746     17.90   24.82 -161.69  156.29 -175.56  144.05 -124.34  -55.46  119.23  169.67 -179.80

DOCKED: MODEL       73
DOCKED: USER    Run = 73
DOCKED: USER    DPF = ligand_dock.biased.dpf
DOCKED: USER  
DOCKED: USER    Estimated Free Energy of Binding    =  -11.16 kcal/mol  [=(1)+(2)+(3)-(4)]
DOCKED: USER    Estimated Inhibition Constant, Ki   =    6.65 nM (nanomolar)  [Temperature = 298.15 K]
DOCKED: USER    
DOCKED: USER    (1) Final Intermolecular Energy     =  -14.44 kcal/mol
DOCKED: USER        vdW + Hbond + desolv Energy     =  -14.44 kcal/mol
DOCKED: USER        Electrostatic Energy            =   +0.00 kcal/mol
DOCKED: USER    (2) Final Total Internal Energy     =   -1.87 kcal/mol
DOCKED: USER    (3) Torsional Free Energy           =   +3.28 kcal/mol
DOCKED: USER    (4) Unbound System's Energy  [=(2)] =   -1.87 kcal/mol
DOCKED: USER    
DOCKED: USER    
DOCKED: USER    NEWDPF move ligand.dum.pdbqt
DOCKED: USER    NEWDPF about 0.460000 0.128000 -0.007000
DOCKED: USER    NEWDPF tran0 37.098313 18.316819 122.135730
DOCKED: USER    NEWDPF quaternion0 0.423198 0.621994 -0.621481 0.218606
DOCKED: USER    NEWDPF axisangle0 0.433687 0.637411 -0.636885 154.745692
DOCKED: USER    NEWDPF quat0 0.433687 0.637411 -0.636885 154.745692
DOCKED: USER    NEWDPF dihe0 17.90 24.82 -161.69 156.29 -175.56 144.05 -124.34 -55.46 119.23 169.67 -179.80 
DOCKED: USER  keepresnum = 1 
DOCKED: USER  
DOCKED: REMARK  Name = 
DOCKED: REMARK  11 active torsions:
DOCKED: REMARK  status: ('A' for Active; 'I' for Inactive)
DOCKED: REMARK    1  A    between atoms: C_2  and  C_5
DOCKED: REMARK    2  A    between atoms: N_3  and  O_4
DOCKED: REMARK    3  A    between atoms: C_6  and  C_7
DOCKED: REMARK    4  A    between atoms: C_10  and  C_11
DOCKED: REMARK    5  A    between atoms: C_11  and  N_12
DOCKED: REMARK    6  A    between atoms: N_12  and  C_13
DOCKED: REMARK    7  A    between atoms: N_12  and  C_16
DOCKED: REMARK    8  A    between atoms: C_13  and  C_14
DOCKED: REMARK    9  A    between atoms: C_14  and  O_15
DOCKED: REMARK   10  A    between atoms: C_16  and  C_17
DOCKED: REMARK   11  A    between atoms: C_17  and  C_18
DOCKED: REMARK                            x       y       z     vdW  Elec       q    Type
DOCKED: REMARK                         _______ _______ _______ _____ _____    ______ ____
DOCKED: USER                              x       y       z     vdW  Elec       q    Type
DOCKED: USER                           _______ _______ _______ _____ _____    ______ ____
DOCKED: ROOT
DOCKED: ATOM      1  N   UNL     1      37.299  17.739 123.567 -0.19 -0.00    +0.000 N 
DOCKED: ATOM      2  H   UNL     1      37.677  18.677 123.435 +0.00 -0.00    +0.000 HD
DOCKED: ENDROOT
DOCKED: BRANCH   1   3
DOCKED: ATOM      3  C   UNL     1      36.593  17.346 122.329 -0.22 -0.00    +0.000 C 
DOCKED: BRANCH   3   7
DOCKED: ATOM      4  C   UNL     1      36.976  13.090 121.644 -0.41 -0.00    +0.000 A 
DOCKED: ATOM      5  C   UNL     1      36.395  13.572 122.829 -0.44 -0.00    +0.000 A 
DOCKED: ATOM      6  C   UNL     1      36.277  14.945 123.058 -0.39 -0.00    +0.000 A 
DOCKED: ATOM      7  C   UNL     1      36.732  15.864 122.101 -0.24 -0.00    +0.000 A 
DOCKED: ATOM      8  C   UNL     1      37.294  15.389 120.908 -0.21 -0.00    +0.000 A 
DOCKED: ATOM      9  C   UNL     1      37.414  14.016 120.677 -0.33 -0.00    +0.000 A 
DOCKED: ATOM     10  CM  UNL     1      36.848  14.480 121.869 +0.00 -0.00    +0.000 AC
DOCKED: BRANCH   4  11
DOCKED: ATOM     11  C   UNL     1      36.901  10.726 122.429 -0.61 -0.00    +0.000 C 
DOCKED: ATOM     12  C   UNL     1      37.067  11.621 121.445 -0.55 -0.00    +0.000 C 
DOCKED: BRANCH  10  13
DOCKED: ATOM     13  O   UNL     1      37.002   8.824 121.044 -2.67 -0.00    +0.000 OA
DOCKED: ATOM     14  C   UNL     1      36.993   9.265 122.224 -0.66 -0.00    +0.000 C 
DOCKED: ATOM     15  N   UNL     1      37.099   8.343 123.317 -0.71 -0.00    +0.000 N 
DOCKED: ATOM     16  H   UNL     1      37.196   8.680 124.236 -0.52 -0.00    +0.000 HD
DOCKED: BRANCH  14  16
DOCKED: ATOM     17  O   UNL     1      37.066   7.008 123.087 -1.83 -0.00    +0.000 OA
DOCKED: ATOM     18  H   UNL     1      37.250   6.838 122.150 -0.25 -0.00    +0.000 HD
DOCKED: ENDBRANCH  14  16
DOCKED: ENDBRANCH  10  13
DOCKED: ENDBRANCH   4  11
DOCKED: ENDBRANCH   3   7
DOCKED: ENDBRANCH   1   3
DOCKED: BRANCH   1  18
DOCKED: ATOM     19  C   UNL     1      36.364  17.851 124.712 -0.24 -0.00    +0.000 C 
DOCKED: BRANCH  18  19
DOCKED: ATOM     20  C   UNL     1      34.893  17.744 124.277 -0.37 -0.00    +0.000 C 
DOCKED: BRANCH  19  20
DOCKED: ATOM     21  O   UNL     1      34.297  16.582 124.787 -0.53 -0.00    +0.000 OA
DOCKED: ATOM     22  H   UNL     1      34.946  15.861 124.794 -0.03 -0.00    +0.000 HD
DOCKED: ENDBRANCH  19  20
DOCKED: ENDBRANCH  18  19
DOCKED: ENDBRANCH   1  18
DOCKED: BRANCH   1  22
DOCKED: ATOM     23  C   UNL     1      38.485  16.887 123.826 -0.21 -0.00    +0.000 C 
DOCKED: BRANCH  22  23
DOCKED: ATOM     24  C   UNL     1      39.459  16.783 122.635 -0.24 -0.00    +0.000 C 
DOCKED: BRANCH  23  24
DOCKED: ATOM     25  C   UNL     1      40.784  17.384 122.993 -0.23 -0.00    +0.000 A 
DOCKED: ATOM     26  C   UNL     1      41.006  18.447 123.865 -0.22 -0.00    +0.000 A 
DOCKED: ATOM     27  N   UNL     1      42.318  18.772 123.886 -0.09 -0.00    +0.000 N 
DOCKED: ATOM     28  C   UNL     1      42.924  17.935 123.026 -0.21 -0.00    +0.000 A 
DOCKED: ATOM     29  C   UNL     1      42.019  17.077 122.457 -0.28 -0.00    +0.000 A 
DOCKED: ATOM     30  C   UNL     1      42.400  16.129 121.506 -0.29 -0.00    +0.000 A 
DOCKED: ATOM     31  C   UNL     1      43.760  16.069 121.151 -0.25 -0.00    +0.000 A 
DOCKED: ATOM     32  C   UNL     1      44.694  16.949 121.740 -0.25 -0.00    +0.000 A 
DOCKED: ATOM     33  C   UNL     1      44.276  17.899 122.691 -0.24 -0.00    +0.000 A 
DOCKED: ATOM     34  H   UNL     1      42.744  19.479 124.423 -0.52 -0.00    +0.000 HD
DOCKED: ATOM     35  CM  UNL     1      41.827  17.950 123.266 +0.00 -0.00    +0.000 AC
DOCKED: ATOM     36  CM  UNL     1      43.346  17.010 122.096 +0.00 -0.00    +0.000 AC
DOCKED: ENDBRANCH  23  24
DOCKED: ENDBRANCH  22  23
DOCKED: ENDBRANCH   1  22
DOCKED: TORSDOF 11DOCKED: TER
DOCKED: ENDMDL
________________________________________________________________________________


	BEGINNING GENETIC ALGORITHM DOCKING 74 of 100
Run: 74 Seed: 255513701 468866037 [ Run 74 of 100 GA/GALS ]
Beginning LAMARCKIAN GENETIC ALGORITHM (LGA), with a maximum of 2500000 energy evaluations.

Final-Value: -17.451


	FINAL GENETIC ALGORITHM DOCKED STATE
	_______________________________________________


Detailed state:  trans 36.346 17.124 122.720 quatxyzw 0.328534 -0.281051 -0.698501 -0.570239 center 0.460 0.128 -0.007 ntor 11 10.3707 125.8556 120.0106 20.8502 16.0710 -53.2934 -33.1518 -129.9843 148.8988 -45.9325 8.5623
State:	 36.346  17.124 122.720   0.400 -0.342 -0.850 -110.466     10.37  125.86  120.01   20.85   16.07  -53.29  -33.15 -129.98  148.90  -45.93    8.56

DOCKED: MODEL       74
DOCKED: USER    Run = 74
DOCKED: USER    DPF = ligand_dock.biased.dpf
DOCKED: USER  
DOCKED: USER    Estimated Free Energy of Binding    =  -10.00 kcal/mol  [=(1)+(2)+(3)-(4)]
DOCKED: USER    Estimated Inhibition Constant, Ki   =   46.50 nM (nanomolar)  [Temperature = 298.15 K]
DOCKED: USER    
DOCKED: USER    (1) Final Intermolecular Energy     =  -13.28 kcal/mol
DOCKED: USER        vdW + Hbond + desolv Energy     =  -13.28 kcal/mol
DOCKED: USER        Electrostatic Energy            =   +0.00 kcal/mol
DOCKED: USER    (2) Final Total Internal Energy     =   -4.17 kcal/mol
DOCKED: USER    (3) Torsional Free Energy           =   +3.28 kcal/mol
DOCKED: USER    (4) Unbound System's Energy  [=(2)] =   -4.17 kcal/mol
DOCKED: USER    
DOCKED: USER    
DOCKED: USER    NEWDPF move ligand.dum.pdbqt
DOCKED: USER    NEWDPF about 0.460000 0.128000 -0.007000
DOCKED: USER    NEWDPF tran0 36.345724 17.123730 122.720444
DOCKED: USER    NEWDPF quaternion0 0.328534 -0.281051 -0.698501 -0.570239
DOCKED: USER    NEWDPF axisangle0 0.399930 -0.342129 -0.850297 -110.466178
DOCKED: USER    NEWDPF quat0 0.399930 -0.342129 -0.850297 -110.466178
DOCKED: USER    NEWDPF dihe0 10.37 125.86 120.01 20.85 16.07 -53.29 -33.15 -129.98 148.90 -45.93 8.56 
DOCKED: USER  keepresnum = 1 
DOCKED: USER  
DOCKED: REMARK  Name = 
DOCKED: REMARK  11 active torsions:
DOCKED: REMARK  status: ('A' for Active; 'I' for Inactive)
DOCKED: REMARK    1  A    between atoms: C_2  and  C_5
DOCKED: REMARK    2  A    between atoms: N_3  and  O_4
DOCKED: REMARK    3  A    between atoms: C_6  and  C_7
DOCKED: REMARK    4  A    between atoms: C_10  and  C_11
DOCKED: REMARK    5  A    between atoms: C_11  and  N_12
DOCKED: REMARK    6  A    between atoms: N_12  and  C_13
DOCKED: REMARK    7  A    between atoms: N_12  and  C_16
DOCKED: REMARK    8  A    between atoms: C_13  and  C_14
DOCKED: REMARK    9  A    between atoms: C_14  and  O_15
DOCKED: REMARK   10  A    between atoms: C_16  and  C_17
DOCKED: REMARK   11  A    between atoms: C_17  and  C_18
DOCKED: REMARK                            x       y       z     vdW  Elec       q    Type
DOCKED: REMARK                         _______ _______ _______ _____ _____    ______ ____
DOCKED: USER                              x       y       z     vdW  Elec       q    Type
DOCKED: USER                           _______ _______ _______ _____ _____    ______ ____
DOCKED: ROOT
DOCKED: ATOM      1  N   UNL     1      35.716  18.280 121.889 -0.22 -0.00    +0.000 N 
DOCKED: ATOM      2  H   UNL     1      36.352  17.680 121.363 +0.00 -0.00    +0.000 HD
DOCKED: ENDROOT
DOCKED: BRANCH   1   3
DOCKED: ATOM      3  C   UNL     1      35.565  17.714 123.247 -0.31 -0.00    +0.000 C 
DOCKED: BRANCH   3   7
DOCKED: ATOM      4  C   UNL     1      36.350  13.459 123.154 -0.51 -0.00    +0.000 A 
DOCKED: ATOM      5  C   UNL     1      35.570  14.018 124.180 -0.38 -0.00    +0.000 A 
DOCKED: ATOM      6  C   UNL     1      35.321  15.393 124.218 -0.47 -0.00    +0.000 A 
DOCKED: ATOM      7  C   UNL     1      35.843  16.235 123.226 -0.34 -0.00    +0.000 A 
DOCKED: ATOM      8  C   UNL     1      36.605  15.681 122.188 -0.25 -0.00    +0.000 A 
DOCKED: ATOM      9  C   UNL     1      36.856  14.306 122.147 -0.32 -0.00    +0.000 A 
DOCKED: ATOM     10  CM  UNL     1      36.091  14.849 123.185 +0.00 -0.00    +0.000 AC
DOCKED: BRANCH   4  11
DOCKED: ATOM     11  C   UNL     1      36.716  11.262 122.038 -0.62 -0.00    +0.000 C 
DOCKED: ATOM     12  C   UNL     1      36.576  11.992 123.153 -0.68 -0.00    +0.000 C 
DOCKED: BRANCH  10  13
DOCKED: ATOM     13  O   UNL     1      37.046   9.205 120.941 -2.73 -0.00    +0.000 OA
DOCKED: ATOM     14  C   UNL     1      36.941   9.801 122.045 -0.61 -0.00    +0.000 C 
DOCKED: ATOM     15  N   UNL     1      37.070   9.051 123.261 -0.63 -0.00    +0.000 N 
DOCKED: ATOM     16  H   UNL     1      37.093   9.519 124.126 -0.56 -0.00    +0.000 HD
DOCKED: BRANCH  14  16
DOCKED: ATOM     17  O   UNL     1      37.162   7.700 123.220 -2.28 -0.00    +0.000 OA
DOCKED: ATOM     18  H   UNL     1      37.288   7.413 122.302 -0.11 -0.00    +0.000 HD
DOCKED: ENDBRANCH  14  16
DOCKED: ENDBRANCH  10  13
DOCKED: ENDBRANCH   4  11
DOCKED: ENDBRANCH   3   7
DOCKED: ENDBRANCH   1   3
DOCKED: BRANCH   1  18
DOCKED: ATOM     19  C   UNL     1      34.436  18.244 121.141 -0.34 -0.00    +0.000 C 
DOCKED: BRANCH  18  19
DOCKED: ATOM     20  C   UNL     1      34.642  17.959 119.645 -0.22 -0.00    +0.000 C 
DOCKED: BRANCH  19  20
DOCKED: ATOM     21  O   UNL     1      35.704  17.065 119.441 -0.19 -0.00    +0.000 OA
DOCKED: ATOM     22  H   UNL     1      35.480  16.203 119.824 -0.01 -0.00    +0.000 HD
DOCKED: ENDBRANCH  19  20
DOCKED: ENDBRANCH  18  19
DOCKED: ENDBRANCH   1  18
DOCKED: BRANCH   1  22
DOCKED: ATOM     23  C   UNL     1      36.378  19.606 121.909 -0.16 -0.00    +0.000 C 
DOCKED: BRANCH  22  23
DOCKED: ATOM     24  C   UNL     1      37.916  19.543 121.993 -0.08 -0.00    +0.000 C 
DOCKED: BRANCH  23  24
DOCKED: ATOM     25  C   UNL     1      38.441  18.460 121.101 -0.05 -0.00    +0.000 A 
DOCKED: ATOM     26  C   UNL     1      38.271  18.364 119.722 -0.03 -0.00    +0.000 A 
DOCKED: ATOM     27  N   UNL     1      38.813  17.215 119.259 -0.06 -0.00    +0.000 N 
DOCKED: ATOM     28  C   UNL     1      39.311  16.579 120.334 -0.11 -0.00    +0.000 A 
DOCKED: ATOM     29  C   UNL     1      39.097  17.305 121.477 -0.10 -0.00    +0.000 A 
DOCKED: ATOM     30  C   UNL     1      39.498  16.841 122.731 -0.21 -0.00    +0.000 A 
DOCKED: ATOM     31  C   UNL     1      40.147  15.593 122.790 -0.28 -0.00    +0.000 A 
DOCKED: ATOM     32  C   UNL     1      40.372  14.846 121.612 -0.29 -0.00    +0.000 A 
DOCKED: ATOM     33  C   UNL     1      39.948  15.339 120.363 -0.14 -0.00    +0.000 A 
DOCKED: ATOM     34  H   UNL     1      38.838  16.907 118.325 +0.00 -0.00    +0.000 HD
DOCKED: ATOM     35  CM  UNL     1      38.787  17.572 120.343 +0.00 -0.00    +0.000 AC
DOCKED: ATOM     36  CM  UNL     1      39.729  16.084 121.551 +0.00 -0.00    +0.000 AC
DOCKED: ENDBRANCH  23  24
DOCKED: ENDBRANCH  22  23
DOCKED: ENDBRANCH   1  22
DOCKED: TORSDOF 11DOCKED: TER
DOCKED: ENDMDL
________________________________________________________________________________


	BEGINNING GENETIC ALGORITHM DOCKING 75 of 100
Run: 75 Seed: 803989678 2023523683 [ Run 75 of 100 GA/GALS ]
Beginning LAMARCKIAN GENETIC ALGORITHM (LGA), with a maximum of 2500000 energy evaluations.

Final-Value: -17.805


	FINAL GENETIC ALGORITHM DOCKED STATE
	_______________________________________________


Detailed state:  trans 37.193 16.889 123.264 quatxyzw 0.354091 -0.169929 -0.768139 -0.505674 center 0.460 0.128 -0.007 ntor 11 10.2290 144.7954 117.3658 40.6569 150.9744 -21.3486 -166.6220 111.6303 179.7096 151.0592 10.3140
State:	 37.193  16.889 123.264   0.410 -0.197 -0.890 -119.248     10.23  144.80  117.37   40.66  150.97  -21.35 -166.62  111.63  179.71  151.06   10.31

DOCKED: MODEL       75
DOCKED: USER    Run = 75
DOCKED: USER    DPF = ligand_dock.biased.dpf
DOCKED: USER  
DOCKED: USER    Estimated Free Energy of Binding    =  -10.81 kcal/mol  [=(1)+(2)+(3)-(4)]
DOCKED: USER    Estimated Inhibition Constant, Ki   =   12.00 nM (nanomolar)  [Temperature = 298.15 K]
DOCKED: USER    
DOCKED: USER    (1) Final Intermolecular Energy     =  -14.09 kcal/mol
DOCKED: USER        vdW + Hbond + desolv Energy     =  -14.09 kcal/mol
DOCKED: USER        Electrostatic Energy            =   +0.00 kcal/mol
DOCKED: USER    (2) Final Total Internal Energy     =   -3.72 kcal/mol
DOCKED: USER    (3) Torsional Free Energy           =   +3.28 kcal/mol
DOCKED: USER    (4) Unbound System's Energy  [=(2)] =   -3.72 kcal/mol
DOCKED: USER    
DOCKED: USER    
DOCKED: USER    NEWDPF move ligand.dum.pdbqt
DOCKED: USER    NEWDPF about 0.460000 0.128000 -0.007000
DOCKED: USER    NEWDPF tran0 37.193434 16.889033 123.263971
DOCKED: USER    NEWDPF quaternion0 0.354091 -0.169929 -0.768139 -0.505674
DOCKED: USER    NEWDPF axisangle0 0.410433 -0.196967 -0.890364 -119.247802
DOCKED: USER    NEWDPF quat0 0.410433 -0.196967 -0.890364 -119.247802
DOCKED: USER    NEWDPF dihe0 10.23 144.80 117.37 40.66 150.97 -21.35 -166.62 111.63 179.71 151.06 10.31 
DOCKED: USER  keepresnum = 1 
DOCKED: USER  
DOCKED: REMARK  Name = 
DOCKED: REMARK  11 active torsions:
DOCKED: REMARK  status: ('A' for Active; 'I' for Inactive)
DOCKED: REMARK    1  A    between atoms: C_2  and  C_5
DOCKED: REMARK    2  A    between atoms: N_3  and  O_4
DOCKED: REMARK    3  A    between atoms: C_6  and  C_7
DOCKED: REMARK    4  A    between atoms: C_10  and  C_11
DOCKED: REMARK    5  A    between atoms: C_11  and  N_12
DOCKED: REMARK    6  A    between atoms: N_12  and  C_13
DOCKED: REMARK    7  A    between atoms: N_12  and  C_16
DOCKED: REMARK    8  A    between atoms: C_13  and  C_14
DOCKED: REMARK    9  A    between atoms: C_14  and  O_15
DOCKED: REMARK   10  A    between atoms: C_16  and  C_17
DOCKED: REMARK   11  A    between atoms: C_17  and  C_18
DOCKED: REMARK                            x       y       z     vdW  Elec       q    Type
DOCKED: REMARK                         _______ _______ _______ _____ _____    ______ ____
DOCKED: USER                              x       y       z     vdW  Elec       q    Type
DOCKED: USER                           _______ _______ _______ _____ _____    ______ ____
DOCKED: ROOT
DOCKED: ATOM      1  N   UNL     1      36.605  18.265 122.835 -0.16 -0.00    +0.000 N 
DOCKED: ATOM      2  H   UNL     1      37.133  17.786 122.105 +0.00 -0.00    +0.000 HD
DOCKED: ENDROOT
DOCKED: BRANCH   1   3
DOCKED: ATOM      3  C   UNL     1      36.522  17.369 124.008 -0.27 -0.00    +0.000 C 
DOCKED: BRANCH   3   7
DOCKED: ATOM      4  C   UNL     1      37.035  13.243 122.809 -0.50 -0.00    +0.000 A 
DOCKED: ATOM      5  C   UNL     1      37.814  14.257 122.226 -0.40 -0.00    +0.000 A 
DOCKED: ATOM      6  C   UNL     1      37.645  15.591 122.604 -0.29 -0.00    +0.000 A 
DOCKED: ATOM      7  C   UNL     1      36.698  15.937 123.580 -0.31 -0.00    +0.000 A 
DOCKED: ATOM      8  C   UNL     1      35.933  14.927 124.180 -0.41 -0.00    +0.000 A 
DOCKED: ATOM      9  C   UNL     1      36.099  13.591 123.803 -0.51 -0.00    +0.000 A 
DOCKED: ATOM     10  CM  UNL     1      36.871  14.591 123.201 +0.00 -0.00    +0.000 AC
DOCKED: BRANCH   4  11
DOCKED: ATOM     11  C   UNL     1      36.585  10.793 122.872 -0.69 -0.00    +0.000 C 
DOCKED: ATOM     12  C   UNL     1      37.262  11.840 122.380 -0.50 -0.00    +0.000 C 
DOCKED: BRANCH  10  13
DOCKED: ATOM     13  O   UNL     1      36.907   9.160 121.206 -2.69 -0.00    +0.000 OA
DOCKED: ATOM     14  C   UNL     1      36.815   9.399 122.440 -0.69 -0.00    +0.000 C 
DOCKED: ATOM     15  N   UNL     1      36.964   8.321 123.374 -0.70 -0.00    +0.000 N 
DOCKED: ATOM     16  H   UNL     1      36.998   8.509 124.339 -0.45 -0.00    +0.000 HD
DOCKED: BRANCH  14  16
DOCKED: ATOM     17  O   UNL     1      37.060   7.044 122.930 -1.80 -0.00    +0.000 OA
DOCKED: ATOM     18  H   UNL     1      37.172   7.045 121.967 -0.15 -0.00    +0.000 HD
DOCKED: ENDBRANCH  14  16
DOCKED: ENDBRANCH  10  13
DOCKED: ENDBRANCH   4  11
DOCKED: ENDBRANCH   3   7
DOCKED: ENDBRANCH   1   3
DOCKED: BRANCH   1  18
DOCKED: ATOM     19  C   UNL     1      35.266  18.517 122.249 -0.27 -0.00    +0.000 C 
DOCKED: BRANCH  18  19
DOCKED: ATOM     20  C   UNL     1      35.204  18.153 120.757 -0.27 -0.00    +0.000 C 
DOCKED: BRANCH  19  20
DOCKED: ATOM     21  O   UNL     1      36.038  17.064 120.466 -0.21 -0.00    +0.000 OA
DOCKED: ATOM     22  H   UNL     1      35.571  16.237 120.659 -0.01 -0.00    +0.000 HD
DOCKED: ENDBRANCH  19  20
DOCKED: ENDBRANCH  18  19
DOCKED: ENDBRANCH   1  18
DOCKED: BRANCH   1  22
DOCKED: ATOM     23  C   UNL     1      37.389  19.490 123.124 -0.12 -0.00    +0.000 C 
DOCKED: BRANCH  22  23
DOCKED: ATOM     24  C   UNL     1      38.721  19.583 122.354 -0.06 -0.00    +0.000 C 
DOCKED: BRANCH  23  24
DOCKED: ATOM     25  C   UNL     1      39.745  18.684 122.978 -0.10 -0.00    +0.000 A 
DOCKED: ATOM     26  C   UNL     1      40.419  18.897 124.177 -0.17 -0.00    +0.000 A 
DOCKED: ATOM     27  N   UNL     1      41.327  17.917 124.388 -0.33 -0.00    +0.000 N 
DOCKED: ATOM     28  C   UNL     1      41.243  17.097 123.327 -0.31 -0.00    +0.000 A 
DOCKED: ATOM     29  C   UNL     1      40.292  17.535 122.441 -0.16 -0.00    +0.000 A 
DOCKED: ATOM     30  C   UNL     1      40.037  16.866 121.243 -0.14 -0.00    +0.000 A 
DOCKED: ATOM     31  C   UNL     1      40.785  15.706 120.969 -0.20 -0.00    +0.000 A 
DOCKED: ATOM     32  C   UNL     1      41.761  15.250 121.883 -0.37 -0.00    +0.000 A 
DOCKED: ATOM     33  C   UNL     1      41.999  15.952 123.080 -0.39 -0.00    +0.000 A 
DOCKED: ATOM     34  H   UNL     1      41.927  17.824 125.162 -0.47 -0.00    +0.000 HD
DOCKED: ATOM     35  CM  UNL     1      40.628  18.022 123.492 +0.00 -0.00    +0.000 AC
DOCKED: ATOM     36  CM  UNL     1      41.019  16.400 122.158 +0.00 -0.00    +0.000 AC
DOCKED: ENDBRANCH  23  24
DOCKED: ENDBRANCH  22  23
DOCKED: ENDBRANCH   1  22
DOCKED: TORSDOF 11DOCKED: TER
DOCKED: ENDMDL
________________________________________________________________________________


	BEGINNING GENETIC ALGORITHM DOCKING 76 of 100
Run: 76 Seed: 1820104052 2005958221 [ Run 76 of 100 GA/GALS ]
Beginning LAMARCKIAN GENETIC ALGORITHM (LGA), with a maximum of 2500000 energy evaluations.

Final-Value: -16.910


	FINAL GENETIC ALGORITHM DOCKED STATE
	_______________________________________________


Detailed state:  trans 37.875 17.963 122.494 quatxyzw -0.472738 -0.129498 0.372619 0.787975 center 0.460 0.128 -0.007 ntor 11 18.0357 70.7929 124.8293 30.9204 155.5540 161.4216 -79.7273 116.7273 57.4981 -2.0255 -66.6179
State:	 37.875  17.963 122.494  -0.768 -0.210  0.605 76.007     18.04   70.79  124.83   30.92  155.55  161.42  -79.73  116.73   57.50   -2.03  -66.62

DOCKED: MODEL       76
DOCKED: USER    Run = 76
DOCKED: USER    DPF = ligand_dock.biased.dpf
DOCKED: USER  
DOCKED: USER    Estimated Free Energy of Binding    =  -10.99 kcal/mol  [=(1)+(2)+(3)-(4)]
DOCKED: USER    Estimated Inhibition Constant, Ki   =    8.80 nM (nanomolar)  [Temperature = 298.15 K]
DOCKED: USER    
DOCKED: USER    (1) Final Intermolecular Energy     =  -14.27 kcal/mol
DOCKED: USER        vdW + Hbond + desolv Energy     =  -14.27 kcal/mol
DOCKED: USER        Electrostatic Energy            =   +0.00 kcal/mol
DOCKED: USER    (2) Final Total Internal Energy     =   -2.64 kcal/mol
DOCKED: USER    (3) Torsional Free Energy           =   +3.28 kcal/mol
DOCKED: USER    (4) Unbound System's Energy  [=(2)] =   -2.64 kcal/mol
DOCKED: USER    
DOCKED: USER    
DOCKED: USER    NEWDPF move ligand.dum.pdbqt
DOCKED: USER    NEWDPF about 0.460000 0.128000 -0.007000
DOCKED: USER    NEWDPF tran0 37.874715 17.962844 122.493646
DOCKED: USER    NEWDPF quaternion0 -0.472738 -0.129498 0.372619 0.787975
DOCKED: USER    NEWDPF axisangle0 -0.767796 -0.210324 0.605188 76.006664
DOCKED: USER    NEWDPF quat0 -0.767796 -0.210324 0.605188 76.006664
DOCKED: USER    NEWDPF dihe0 18.04 70.79 124.83 30.92 155.55 161.42 -79.73 116.73 57.50 -2.03 -66.62 
DOCKED: USER  keepresnum = 1 
DOCKED: USER  
DOCKED: REMARK  Name = 
DOCKED: REMARK  11 active torsions:
DOCKED: REMARK  status: ('A' for Active; 'I' for Inactive)
DOCKED: REMARK    1  A    between atoms: C_2  and  C_5
DOCKED: REMARK    2  A    between atoms: N_3  and  O_4
DOCKED: REMARK    3  A    between atoms: C_6  and  C_7
DOCKED: REMARK    4  A    between atoms: C_10  and  C_11
DOCKED: REMARK    5  A    between atoms: C_11  and  N_12
DOCKED: REMARK    6  A    between atoms: N_12  and  C_13
DOCKED: REMARK    7  A    between atoms: N_12  and  C_16
DOCKED: REMARK    8  A    between atoms: C_13  and  C_14
DOCKED: REMARK    9  A    between atoms: C_14  and  O_15
DOCKED: REMARK   10  A    between atoms: C_16  and  C_17
DOCKED: REMARK   11  A    between atoms: C_17  and  C_18
DOCKED: REMARK                            x       y       z     vdW  Elec       q    Type
DOCKED: REMARK                         _______ _______ _______ _____ _____    ______ ____
DOCKED: USER                              x       y       z     vdW  Elec       q    Type
DOCKED: USER                           _______ _______ _______ _____ _____    ______ ____
DOCKED: ROOT
DOCKED: ATOM      1  N   UNL     1      36.349  18.062 122.202 -0.17 -0.00    +0.000 N 
DOCKED: ATOM      2  H   UNL     1      36.941  18.526 121.513 +0.00 -0.00    +0.000 HD
DOCKED: ENDROOT
DOCKED: BRANCH   1   3
DOCKED: ATOM      3  C   UNL     1      37.224  17.367 123.170 -0.23 -0.00    +0.000 C 
DOCKED: BRANCH   3   7
DOCKED: ATOM      4  C   UNL     1      37.417  13.155 122.197 -0.46 -0.00    +0.000 A 
DOCKED: ATOM      5  C   UNL     1      36.800  13.585 123.383 -0.50 -0.00    +0.000 A 
DOCKED: ATOM      6  C   UNL     1      36.743  14.944 123.706 -0.35 -0.00    +0.000 A 
DOCKED: ATOM      7  C   UNL     1      37.297  15.900 122.842 -0.28 -0.00    +0.000 A 
DOCKED: ATOM      8  C   UNL     1      37.896  15.479 121.647 -0.24 -0.00    +0.000 A 
DOCKED: ATOM      9  C   UNL     1      37.954  14.120 121.322 -0.35 -0.00    +0.000 A 
DOCKED: ATOM     10  CM  UNL     1      37.351  14.531 122.516 +0.00 -0.00    +0.000 AC
DOCKED: BRANCH   4  11
DOCKED: ATOM     11  C   UNL     1      36.866  10.772 122.673 -0.63 -0.00    +0.000 C 
DOCKED: ATOM     12  C   UNL     1      37.441  11.701 121.897 -0.36 -0.00    +0.000 C 
DOCKED: BRANCH  10  13
DOCKED: ATOM     13  O   UNL     1      36.722   8.962 121.174 -2.63 -0.00    +0.000 OA
DOCKED: ATOM     14  C   UNL     1      36.893   9.326 122.367 -0.68 -0.00    +0.000 C 
DOCKED: ATOM     15  N   UNL     1      37.135   8.334 123.375 -0.70 -0.00    +0.000 N 
DOCKED: ATOM     16  H   UNL     1      37.373   8.611 124.288 -0.53 -0.00    +0.000 HD
DOCKED: BRANCH  14  16
DOCKED: ATOM     17  O   UNL     1      37.039   7.018 123.070 -1.83 -0.00    +0.000 OA
DOCKED: ATOM     18  H   UNL     1      37.084   6.905 122.108 -0.16 -0.00    +0.000 HD
DOCKED: ENDBRANCH  14  16
DOCKED: ENDBRANCH  10  13
DOCKED: ENDBRANCH   4  11
DOCKED: ENDBRANCH   3   7
DOCKED: ENDBRANCH   1   3
DOCKED: BRANCH   1  18
DOCKED: ATOM     19  C   UNL     1      35.526  17.101 121.429 -0.26 -0.00    +0.000 C 
DOCKED: BRANCH  18  19
DOCKED: ATOM     20  C   UNL     1      35.523  17.414 119.924 -0.18 -0.00    +0.000 C 
DOCKED: BRANCH  19  20
DOCKED: ATOM     21  O   UNL     1      36.797  17.802 119.485 -0.10 -0.00    +0.000 OA
DOCKED: ATOM     22  H   UNL     1      37.445  17.640 120.188 +0.00 -0.00    +0.000 HD
DOCKED: ENDBRANCH  19  20
DOCKED: ENDBRANCH  18  19
DOCKED: ENDBRANCH   1  18
DOCKED: BRANCH   1  22
DOCKED: ATOM     23  C   UNL     1      35.578  19.159 122.835 -0.18 -0.00    +0.000 C 
DOCKED: BRANCH  22  23
DOCKED: ATOM     24  C   UNL     1      35.674  19.192 124.374 -0.23 -0.00    +0.000 C 
DOCKED: BRANCH  23  24
DOCKED: ATOM     25  C   UNL     1      34.903  18.051 124.966 -0.30 -0.00    +0.000 A 
DOCKED: ATOM     26  C   UNL     1      34.404  16.944 124.286 -0.43 -0.00    +0.000 A 
DOCKED: ATOM     27  N   UNL     1      33.692  16.157 125.126 -0.43 -0.00    +0.000 N 
DOCKED: ATOM     28  C   UNL     1      33.726  16.765 126.324 -0.37 -0.00    +0.000 A 
DOCKED: ATOM     29  C   UNL     1      34.451  17.928 126.265 -0.28 -0.00    +0.000 A 
DOCKED: ATOM     30  C   UNL     1      34.608  18.755 127.377 -0.16 -0.00    +0.000 A 
DOCKED: ATOM     31  C   UNL     1      34.003  18.353 128.583 -0.15 -0.00    +0.000 A 
DOCKED: ATOM     32  C   UNL     1      33.261  17.153 128.647 -0.30 -0.00    +0.000 A 
DOCKED: ATOM     33  C   UNL     1      33.115  16.344 127.504 -0.37 -0.00    +0.000 A 
DOCKED: ATOM     34  H   UNL     1      33.242  15.311 124.904 -0.16 -0.00    +0.000 HD
DOCKED: ATOM     35  CM  UNL     1      34.218  17.137 125.385 -0.25 -0.00    +0.000 AC
DOCKED: ATOM     36  CM  UNL     1      33.861  17.549 127.450 -0.00 -0.00    +0.000 AC
DOCKED: ENDBRANCH  23  24
DOCKED: ENDBRANCH  22  23
DOCKED: ENDBRANCH   1  22
DOCKED: TORSDOF 11DOCKED: TER
DOCKED: ENDMDL
________________________________________________________________________________


	BEGINNING GENETIC ALGORITHM DOCKING 77 of 100
Run: 77 Seed: 1146776447 1938909562 [ Run 77 of 100 GA/GALS ]
Beginning LAMARCKIAN GENETIC ALGORITHM (LGA), with a maximum of 2500000 energy evaluations.

Final-Value: -17.024


	FINAL GENETIC ALGORITHM DOCKED STATE
	_______________________________________________


Detailed state:  trans 36.343 16.497 123.108 quatxyzw 0.004027 -0.075618 0.754594 0.651808 center 0.460 0.128 -0.007 ntor 11 15.4132 60.7001 -28.5728 -168.9049 155.9097 -22.5120 -163.5381 130.1089 176.0096 -154.8832 10.1586
State:	 36.343  16.497 123.108   0.005 -0.100  0.995 98.644     15.41   60.70  -28.57 -168.90  155.91  -22.51 -163.54  130.11  176.01 -154.88   10.16

DOCKED: MODEL       77
DOCKED: USER    Run = 77
DOCKED: USER    DPF = ligand_dock.biased.dpf
DOCKED: USER  
DOCKED: USER    Estimated Free Energy of Binding    =  -10.56 kcal/mol  [=(1)+(2)+(3)-(4)]
DOCKED: USER    Estimated Inhibition Constant, Ki   =   18.14 nM (nanomolar)  [Temperature = 298.15 K]
DOCKED: USER    
DOCKED: USER    (1) Final Intermolecular Energy     =  -13.84 kcal/mol
DOCKED: USER        vdW + Hbond + desolv Energy     =  -13.84 kcal/mol
DOCKED: USER        Electrostatic Energy            =   +0.00 kcal/mol
DOCKED: USER    (2) Final Total Internal Energy     =   -3.18 kcal/mol
DOCKED: USER    (3) Torsional Free Energy           =   +3.28 kcal/mol
DOCKED: USER    (4) Unbound System's Energy  [=(2)] =   -3.18 kcal/mol
DOCKED: USER    
DOCKED: USER    
DOCKED: USER    NEWDPF move ligand.dum.pdbqt
DOCKED: USER    NEWDPF about 0.460000 0.128000 -0.007000
DOCKED: USER    NEWDPF tran0 36.343321 16.496823 123.108324
DOCKED: USER    NEWDPF quaternion0 0.004027 -0.075618 0.754594 0.651808
DOCKED: USER    NEWDPF axisangle0 0.005310 -0.099709 0.995002 98.643893
DOCKED: USER    NEWDPF quat0 0.005310 -0.099709 0.995002 98.643893
DOCKED: USER    NEWDPF dihe0 15.41 60.70 -28.57 -168.90 155.91 -22.51 -163.54 130.11 176.01 -154.88 10.16 
DOCKED: USER  keepresnum = 1 
DOCKED: USER  
DOCKED: REMARK  Name = 
DOCKED: REMARK  11 active torsions:
DOCKED: REMARK  status: ('A' for Active; 'I' for Inactive)
DOCKED: REMARK    1  A    between atoms: C_2  and  C_5
DOCKED: REMARK    2  A    between atoms: N_3  and  O_4
DOCKED: REMARK    3  A    between atoms: C_6  and  C_7
DOCKED: REMARK    4  A    between atoms: C_10  and  C_11
DOCKED: REMARK    5  A    between atoms: C_11  and  N_12
DOCKED: REMARK    6  A    between atoms: N_12  and  C_13
DOCKED: REMARK    7  A    between atoms: N_12  and  C_16
DOCKED: REMARK    8  A    between atoms: C_13  and  C_14
DOCKED: REMARK    9  A    between atoms: C_14  and  O_15
DOCKED: REMARK   10  A    between atoms: C_16  and  C_17
DOCKED: REMARK   11  A    between atoms: C_17  and  C_18
DOCKED: REMARK                            x       y       z     vdW  Elec       q    Type
DOCKED: REMARK                         _______ _______ _______ _____ _____    ______ ____
DOCKED: USER                              x       y       z     vdW  Elec       q    Type
DOCKED: USER                           _______ _______ _______ _____ _____    ______ ____
DOCKED: ROOT
DOCKED: ATOM      1  N   UNL     1      35.259  17.591 123.335 -0.30 -0.00    +0.000 N 
DOCKED: ATOM      2  H   UNL     1      35.184  17.101 122.443 -0.01 -0.00    +0.000 HD
DOCKED: ENDROOT
DOCKED: BRANCH   1   3
DOCKED: ATOM      3  C   UNL     1      36.341  16.959 124.119 -0.30 -0.00    +0.000 C 
DOCKED: BRANCH   3   7
DOCKED: ATOM      4  C   UNL     1      36.970  12.879 122.820 -0.53 -0.00    +0.000 A 
DOCKED: ATOM      5  C   UNL     1      37.739  13.925 122.283 -0.42 -0.00    +0.000 A 
DOCKED: ATOM      6  C   UNL     1      37.533  15.245 122.693 -0.33 -0.00    +0.000 A 
DOCKED: ATOM      7  C   UNL     1      36.558  15.543 123.656 -0.34 -0.00    +0.000 A 
DOCKED: ATOM      8  C   UNL     1      35.801  14.501 124.211 -0.44 -0.00    +0.000 A 
DOCKED: ATOM      9  C   UNL     1      36.005  13.180 123.802 -0.53 -0.00    +0.000 A 
DOCKED: ATOM     10  CM  UNL     1      36.767  14.212 123.244 +0.00 -0.00    +0.000 AC
DOCKED: BRANCH   4  11
DOCKED: ATOM     11  C   UNL     1      36.586  10.417 122.823 -0.69 -0.00    +0.000 C 
DOCKED: ATOM     12  C   UNL     1      37.235  11.493 122.358 -0.45 -0.00    +0.000 C 
DOCKED: BRANCH  10  13
DOCKED: ATOM     13  O   UNL     1      37.051   8.850 121.128 -2.69 -0.00    +0.000 OA
DOCKED: ATOM     14  C   UNL     1      36.855   9.040 122.357 -0.71 -0.00    +0.000 C 
DOCKED: ATOM     15  N   UNL     1      36.929   7.927 123.259 -0.75 -0.00    +0.000 N 
DOCKED: ATOM     16  H   UNL     1      36.881   8.078 124.230 -0.32 -0.00    +0.000 HD
DOCKED: BRANCH  14  16
DOCKED: ATOM     17  O   UNL     1      37.065   6.669 122.776 -1.39 -0.00    +0.000 OA
DOCKED: ATOM     18  H   UNL     1      37.337   6.708 121.846 -0.39 -0.00    +0.000 HD
DOCKED: ENDBRANCH  14  16
DOCKED: ENDBRANCH  10  13
DOCKED: ENDBRANCH   4  11
DOCKED: ENDBRANCH   3   7
DOCKED: ENDBRANCH   1   3
DOCKED: BRANCH   1  18
DOCKED: ATOM     19  C   UNL     1      33.941  17.416 123.990 -0.33 -0.00    +0.000 C 
DOCKED: BRANCH  18  19
DOCKED: ATOM     20  C   UNL     1      34.065  17.235 125.511 -0.44 -0.00    +0.000 C 
DOCKED: BRANCH  19  20
DOCKED: ATOM     21  O   UNL     1      33.682  15.944 125.902 -0.92 -0.00    +0.000 OA
DOCKED: ATOM     22  H   UNL     1      33.416  15.435 125.121 -0.11 -0.00    +0.000 HD
DOCKED: ENDBRANCH  19  20
DOCKED: ENDBRANCH  18  19
DOCKED: ENDBRANCH   1  18
DOCKED: BRANCH   1  22
DOCKED: ATOM     23  C   UNL     1      35.581  18.991 122.969 -0.22 -0.00    +0.000 C 
DOCKED: BRANCH  22  23
DOCKED: ATOM     24  C   UNL     1      35.882  19.200 121.471 -0.18 -0.00    +0.000 C 
DOCKED: BRANCH  23  24
DOCKED: ATOM     25  C   UNL     1      37.032  18.337 121.048 -0.11 -0.00    +0.000 A 
DOCKED: ATOM     26  C   UNL     1      38.369  18.502 121.399 -0.06 -0.00    +0.000 A 
DOCKED: ATOM     27  N   UNL     1      39.138  17.584 120.770 -0.07 -0.00    +0.000 N 
DOCKED: ATOM     28  C   UNL     1      38.301  16.852 120.015 -0.09 -0.00    +0.000 A 
DOCKED: ATOM     29  C   UNL     1      37.008  17.285 120.153 -0.11 -0.00    +0.000 A 
DOCKED: ATOM     30  C   UNL     1      35.955  16.701 119.447 -0.13 -0.00    +0.000 A 
DOCKED: ATOM     31  C   UNL     1      36.260  15.632 118.584 -0.17 -0.00    +0.000 A 
DOCKED: ATOM     32  C   UNL     1      37.592  15.181 118.444 -0.20 -0.00    +0.000 A 
DOCKED: ATOM     33  C   UNL     1      38.632  15.797 119.166 -0.14 -0.00    +0.000 A 
DOCKED: ATOM     34  H   UNL     1      40.113  17.475 120.849 +0.01 -0.00    +0.000 HD
DOCKED: ATOM     35  CM  UNL     1      38.007  17.708 120.679 +0.00 -0.00    +0.000 AC
DOCKED: ATOM     36  CM  UNL     1      37.292  16.241 119.302 +0.00 -0.00    +0.000 AC
DOCKED: ENDBRANCH  23  24
DOCKED: ENDBRANCH  22  23
DOCKED: ENDBRANCH   1  22
DOCKED: TORSDOF 11DOCKED: TER
DOCKED: ENDMDL
________________________________________________________________________________


	BEGINNING GENETIC ALGORITHM DOCKING 78 of 100
Run: 78 Seed: 1732397794 1390640177 [ Run 78 of 100 GA/GALS ]
Beginning LAMARCKIAN GENETIC ALGORITHM (LGA), with a maximum of 2500000 energy evaluations.

Final-Value: -15.925


	FINAL GENETIC ALGORITHM DOCKED STATE
	_______________________________________________


Detailed state:  trans 38.202 14.091 121.860 quatxyzw -0.221320 0.437953 0.830118 0.264800 center 0.460 0.128 -0.007 ntor 11 25.7456 -90.6966 96.4092 37.4005 -13.5246 -132.3516 31.4002 15.0692 98.8475 121.5099 18.4835
State:	 38.202  14.091 121.860  -0.230  0.454  0.861 149.290     25.75  -90.70   96.41   37.40  -13.52 -132.35   31.40   15.07   98.85  121.51   18.48

DOCKED: MODEL       78
DOCKED: USER    Run = 78
DOCKED: USER    DPF = ligand_dock.biased.dpf
DOCKED: USER  
DOCKED: USER    Estimated Free Energy of Binding    =  -10.10 kcal/mol  [=(1)+(2)+(3)-(4)]
DOCKED: USER    Estimated Inhibition Constant, Ki   =   39.31 nM (nanomolar)  [Temperature = 298.15 K]
DOCKED: USER    
DOCKED: USER    (1) Final Intermolecular Energy     =  -13.38 kcal/mol
DOCKED: USER        vdW + Hbond + desolv Energy     =  -13.38 kcal/mol
DOCKED: USER        Electrostatic Energy            =   +0.00 kcal/mol
DOCKED: USER    (2) Final Total Internal Energy     =   -2.54 kcal/mol
DOCKED: USER    (3) Torsional Free Energy           =   +3.28 kcal/mol
DOCKED: USER    (4) Unbound System's Energy  [=(2)] =   -2.54 kcal/mol
DOCKED: USER    
DOCKED: USER    
DOCKED: USER    NEWDPF move ligand.dum.pdbqt
DOCKED: USER    NEWDPF about 0.460000 0.128000 -0.007000
DOCKED: USER    NEWDPF tran0 38.202058 14.090668 121.860148
DOCKED: USER    NEWDPF quaternion0 -0.221320 0.437953 0.830118 0.264800
DOCKED: USER    NEWDPF axisangle0 -0.229513 0.454165 0.860847 149.289920
DOCKED: USER    NEWDPF quat0 -0.229513 0.454165 0.860847 149.289920
DOCKED: USER    NEWDPF dihe0 25.75 -90.70 96.41 37.40 -13.52 -132.35 31.40 15.07 98.85 121.51 18.48 
DOCKED: USER  keepresnum = 1 
DOCKED: USER  
DOCKED: REMARK  Name = 
DOCKED: REMARK  11 active torsions:
DOCKED: REMARK  status: ('A' for Active; 'I' for Inactive)
DOCKED: REMARK    1  A    between atoms: C_2  and  C_5
DOCKED: REMARK    2  A    between atoms: N_3  and  O_4
DOCKED: REMARK    3  A    between atoms: C_6  and  C_7
DOCKED: REMARK    4  A    between atoms: C_10  and  C_11
DOCKED: REMARK    5  A    between atoms: C_11  and  N_12
DOCKED: REMARK    6  A    between atoms: N_12  and  C_13
DOCKED: REMARK    7  A    between atoms: N_12  and  C_16
DOCKED: REMARK    8  A    between atoms: C_13  and  C_14
DOCKED: REMARK    9  A    between atoms: C_14  and  O_15
DOCKED: REMARK   10  A    between atoms: C_16  and  C_17
DOCKED: REMARK   11  A    between atoms: C_17  and  C_18
DOCKED: REMARK                            x       y       z     vdW  Elec       q    Type
DOCKED: REMARK                         _______ _______ _______ _____ _____    ______ ____
DOCKED: USER                              x       y       z     vdW  Elec       q    Type
DOCKED: USER                           _______ _______ _______ _____ _____    ______ ____
DOCKED: ROOT
DOCKED: ATOM      1  N   UNL     1      38.614  15.270 120.931 -0.23 -0.00    +0.000 N 
DOCKED: ATOM      2  H   UNL     1      38.701  14.347 120.505 -0.03 -0.00    +0.000 HD
DOCKED: ENDROOT
DOCKED: BRANCH   1   3
DOCKED: ATOM      3  C   UNL     1      38.005  15.106 122.269 -0.37 -0.00    +0.000 C 
DOCKED: BRANCH   3   7
DOCKED: ATOM      4  C   UNL     1      36.256  11.166 122.658 -0.61 -0.00    +0.000 A 
DOCKED: ATOM      5  C   UNL     1      37.074  11.477 121.559 -0.48 -0.00    +0.000 A 
DOCKED: ATOM      6  C   UNL     1      37.634  12.751 121.425 -0.43 -0.00    +0.000 A 
DOCKED: ATOM      7  C   UNL     1      37.391  13.736 122.393 -0.44 -0.00    +0.000 A 
DOCKED: ATOM      8  C   UNL     1      36.592  13.426 123.502 -0.52 -0.00    +0.000 A 
DOCKED: ATOM      9  C   UNL     1      36.030  12.153 123.638 -0.59 -0.00    +0.000 A 
DOCKED: ATOM     10  CM  UNL     1      36.830  12.452 122.529 +0.00 -0.00    +0.000 AC
DOCKED: BRANCH   4  11
DOCKED: ATOM     11  C   UNL     1      36.436   8.704 122.998 -0.74 -0.00    +0.000 C 
DOCKED: ATOM     12  C   UNL     1      35.695   9.796 122.758 -0.68 -0.00    +0.000 C 
DOCKED: BRANCH  10  13
DOCKED: ATOM     13  O   UNL     1      36.588   6.368 122.750 -1.25 -0.00    +0.000 OA
DOCKED: ATOM     14  C   UNL     1      35.870   7.342 123.097 -0.78 -0.00    +0.000 C 
DOCKED: ATOM     15  N   UNL     1      34.549   7.096 123.599 -0.70 -0.00    +0.000 N 
DOCKED: ATOM     16  H   UNL     1      34.019   7.837 123.969 -0.12 -0.00    +0.000 HD
DOCKED: BRANCH  14  16
DOCKED: ATOM     17  O   UNL     1      34.032   5.844 123.565 -0.81 -0.00    +0.000 OA
DOCKED: ATOM     18  H   UNL     1      34.753   5.196 123.572 -0.47 -0.00    +0.000 HD
DOCKED: ENDBRANCH  14  16
DOCKED: ENDBRANCH  10  13
DOCKED: ENDBRANCH   4  11
DOCKED: ENDBRANCH   3   7
DOCKED: ENDBRANCH   1   3
DOCKED: BRANCH   1  18
DOCKED: ATOM     19  C   UNL     1      37.729  16.039 120.023 -0.18 -0.00    +0.000 C 
DOCKED: BRANCH  18  19
DOCKED: ATOM     20  C   UNL     1      37.483  15.310 118.693 -0.22 -0.00    +0.000 C 
DOCKED: BRANCH  19  20
DOCKED: ATOM     21  O   UNL     1      37.926  13.981 118.754 -0.32 -0.00    +0.000 OA
DOCKED: ATOM     22  H   UNL     1      38.185  13.685 117.868 -0.11 -0.00    +0.000 HD
DOCKED: ENDBRANCH  19  20
DOCKED: ENDBRANCH  18  19
DOCKED: ENDBRANCH   1  18
DOCKED: BRANCH   1  22
DOCKED: ATOM     23  C   UNL     1      40.003  15.781 121.011 -0.24 -0.00    +0.000 C 
DOCKED: BRANCH  22  23
DOCKED: ATOM     24  C   UNL     1      40.773  15.323 122.266 -0.45 -0.00    +0.000 C 
DOCKED: BRANCH  23  24
DOCKED: ATOM     25  C   UNL     1      42.101  16.014 122.342 -0.39 -0.00    +0.000 A 
DOCKED: ATOM     26  C   UNL     1      42.581  16.777 123.403 -0.31 -0.00    +0.000 A 
DOCKED: ATOM     27  N   UNL     1      43.784  17.312 123.091 -0.34 -0.00    +0.000 N 
DOCKED: ATOM     28  C   UNL     1      44.059  16.906 121.840 -0.27 -0.00    +0.000 A 
DOCKED: ATOM     29  C   UNL     1      43.052  16.117 121.346 -0.28 -0.00    +0.000 A 
DOCKED: ATOM     30  C   UNL     1      43.092  15.594 120.053 -0.10 -0.00    +0.000 A 
DOCKED: ATOM     31  C   UNL     1      44.216  15.894 119.260 -0.23 -0.00    +0.000 A 
DOCKED: ATOM     32  C   UNL     1      45.256  16.703 119.769 -0.15 -0.00    +0.000 A 
DOCKED: ATOM     33  C   UNL     1      45.182  17.221 121.076 -0.17 -0.00    +0.000 A 
DOCKED: ATOM     34  H   UNL     1      44.343  17.883 123.665 -0.39 -0.00    +0.000 HD
DOCKED: ATOM     35  CM  UNL     1      43.137  16.647 122.426 +0.00 -0.00    +0.000 AC
DOCKED: ATOM     36  CM  UNL     1      44.143  16.405 120.557 +0.00 -0.00    +0.000 AC
DOCKED: ENDBRANCH  23  24
DOCKED: ENDBRANCH  22  23
DOCKED: ENDBRANCH   1  22
DOCKED: TORSDOF 11DOCKED: TER
DOCKED: ENDMDL
________________________________________________________________________________


	BEGINNING GENETIC ALGORITHM DOCKING 79 of 100
Run: 79 Seed: 1862784274 1094535065 [ Run 79 of 100 GA/GALS ]
Beginning LAMARCKIAN GENETIC ALGORITHM (LGA), with a maximum of 2500000 energy evaluations.

Final-Value: -16.233


	FINAL GENETIC ALGORITHM DOCKED STATE
	_______________________________________________


Detailed state:  trans 36.790 17.111 122.993 quatxyzw -0.416398 0.344948 0.649166 0.534983 center 0.460 0.128 -0.007 ntor 11 18.8315 -141.1301 -112.5749 -178.8410 -31.5759 168.4910 -28.0130 -145.3151 171.4422 127.5412 -2.9178
State:	 36.790  17.111 122.993  -0.493  0.408  0.768 115.315     18.83 -141.13 -112.57 -178.84  -31.58  168.49  -28.01 -145.32  171.44  127.54   -2.92

DOCKED: MODEL       79
DOCKED: USER    Run = 79
DOCKED: USER    DPF = ligand_dock.biased.dpf
DOCKED: USER  
DOCKED: USER    Estimated Free Energy of Binding    =   -9.99 kcal/mol  [=(1)+(2)+(3)-(4)]
DOCKED: USER    Estimated Inhibition Constant, Ki   =   47.45 nM (nanomolar)  [Temperature = 298.15 K]
DOCKED: USER    
DOCKED: USER    (1) Final Intermolecular Energy     =  -13.27 kcal/mol
DOCKED: USER        vdW + Hbond + desolv Energy     =  -13.27 kcal/mol
DOCKED: USER        Electrostatic Energy            =   +0.00 kcal/mol
DOCKED: USER    (2) Final Total Internal Energy     =   -2.96 kcal/mol
DOCKED: USER    (3) Torsional Free Energy           =   +3.28 kcal/mol
DOCKED: USER    (4) Unbound System's Energy  [=(2)] =   -2.96 kcal/mol
DOCKED: USER    
DOCKED: USER    
DOCKED: USER    NEWDPF move ligand.dum.pdbqt
DOCKED: USER    NEWDPF about 0.460000 0.128000 -0.007000
DOCKED: USER    NEWDPF tran0 36.789589 17.110632 122.993340
DOCKED: USER    NEWDPF quaternion0 -0.416398 0.344948 0.649166 0.534983
DOCKED: USER    NEWDPF axisangle0 -0.492859 0.408289 0.768369 115.314523
DOCKED: USER    NEWDPF quat0 -0.492859 0.408289 0.768369 115.314523
DOCKED: USER    NEWDPF dihe0 18.83 -141.13 -112.57 -178.84 -31.58 168.49 -28.01 -145.32 171.44 127.54 -2.92 
DOCKED: USER  keepresnum = 1 
DOCKED: USER  
DOCKED: REMARK  Name = 
DOCKED: REMARK  11 active torsions:
DOCKED: REMARK  status: ('A' for Active; 'I' for Inactive)
DOCKED: REMARK    1  A    between atoms: C_2  and  C_5
DOCKED: REMARK    2  A    between atoms: N_3  and  O_4
DOCKED: REMARK    3  A    between atoms: C_6  and  C_7
DOCKED: REMARK    4  A    between atoms: C_10  and  C_11
DOCKED: REMARK    5  A    between atoms: C_11  and  N_12
DOCKED: REMARK    6  A    between atoms: N_12  and  C_13
DOCKED: REMARK    7  A    between atoms: N_12  and  C_16
DOCKED: REMARK    8  A    between atoms: C_13  and  C_14
DOCKED: REMARK    9  A    between atoms: C_14  and  O_15
DOCKED: REMARK   10  A    between atoms: C_16  and  C_17
DOCKED: REMARK   11  A    between atoms: C_17  and  C_18
DOCKED: REMARK                            x       y       z     vdW  Elec       q    Type
DOCKED: REMARK                         _______ _______ _______ _____ _____    ______ ____
DOCKED: USER                              x       y       z     vdW  Elec       q    Type
DOCKED: USER                           _______ _______ _______ _____ _____    ______ ____
DOCKED: ROOT
DOCKED: ATOM      1  N   UNL     1      36.366  18.265 122.038 -0.17 -0.00    +0.000 N 
DOCKED: ATOM      2  H   UNL     1      37.121  17.678 121.682 +0.00 -0.00    +0.000 HD
DOCKED: ENDROOT
DOCKED: BRANCH   1   3
DOCKED: ATOM      3  C   UNL     1      35.894  17.686 123.314 -0.28 -0.00    +0.000 C 
DOCKED: BRANCH   3   7
DOCKED: ATOM      4  C   UNL     1      36.014  13.363 123.153 -0.45 -0.00    +0.000 A 
DOCKED: ATOM      5  C   UNL     1      36.719  14.131 122.212 -0.32 -0.00    +0.000 A 
DOCKED: ATOM      6  C   UNL     1      36.676  15.528 122.255 -0.27 -0.00    +0.000 A 
DOCKED: ATOM      7  C   UNL     1      35.932  16.183 123.247 -0.34 -0.00    +0.000 A 
DOCKED: ATOM      8  C   UNL     1      35.243  15.422 124.202 -0.48 -0.00    +0.000 A 
DOCKED: ATOM      9  C   UNL     1      35.283  14.025 124.160 -0.14 -0.00    +0.000 A 
DOCKED: ATOM     10  CM  UNL     1      35.978  14.776 123.205 +0.00 -0.00    +0.000 AC
DOCKED: BRANCH   4  11
DOCKED: ATOM     11  C   UNL     1      36.955  11.234 122.265 -0.59 -0.00    +0.000 C 
DOCKED: ATOM     12  C   UNL     1      36.101  11.884 123.069 -0.67 -0.00    +0.000 C 
DOCKED: BRANCH  10  13
DOCKED: ATOM     13  O   UNL     1      37.036   9.218 121.050 -2.73 -0.00    +0.000 OA
DOCKED: ATOM     14  C   UNL     1      37.037   9.760 122.187 -0.60 -0.00    +0.000 C 
DOCKED: ATOM     15  N   UNL     1      37.145   8.935 123.356 -0.59 -0.00    +0.000 N 
DOCKED: ATOM     16  H   UNL     1      37.250   9.351 124.241 -0.60 -0.00    +0.000 HD
DOCKED: BRANCH  14  16
DOCKED: ATOM     17  O   UNL     1      37.103   7.586 123.242 -2.24 -0.00    +0.000 OA
DOCKED: ATOM     18  H   UNL     1      37.294   7.333 122.326 -0.12 -0.00    +0.000 HD
DOCKED: ENDBRANCH  14  16
DOCKED: ENDBRANCH  10  13
DOCKED: ENDBRANCH   4  11
DOCKED: ENDBRANCH   3   7
DOCKED: ENDBRANCH   1   3
DOCKED: BRANCH   1  18
DOCKED: ATOM     19  C   UNL     1      35.310  18.218 120.998 -0.27 -0.00    +0.000 C 
DOCKED: BRANCH  18  19
DOCKED: ATOM     20  C   UNL     1      33.916  17.964 121.594 -0.34 -0.00    +0.000 C 
DOCKED: BRANCH  19  20
DOCKED: ATOM     21  O   UNL     1      32.906  18.300 120.681 -0.49 -0.00    +0.000 OA
DOCKED: ATOM     22  H   UNL     1      32.090  17.831 120.914 -0.06 -0.00    +0.000 HD
DOCKED: ENDBRANCH  19  20
DOCKED: ENDBRANCH  18  19
DOCKED: ENDBRANCH   1  18
DOCKED: BRANCH   1  22
DOCKED: ATOM     23  C   UNL     1      36.983  19.600 122.226 -0.14 -0.00    +0.000 C 
DOCKED: BRANCH  22  23
DOCKED: ATOM     24  C   UNL     1      38.523  19.602 122.142 -0.06 -0.00    +0.000 C 
DOCKED: BRANCH  23  24
DOCKED: ATOM     25  C   UNL     1      38.998  18.461 121.295 -0.05 -0.00    +0.000 A 
DOCKED: ATOM     26  C   UNL     1      38.765  18.282 119.934 -0.03 -0.00    +0.000 A 
DOCKED: ATOM     27  N   UNL     1      39.276  17.101 119.519 -0.07 -0.00    +0.000 N 
DOCKED: ATOM     28  C   UNL     1      39.816  16.526 120.608 -0.13 -0.00    +0.000 A 
DOCKED: ATOM     29  C   UNL     1      39.660  17.323 121.713 -0.12 -0.00    +0.000 A 
DOCKED: ATOM     30  C   UNL     1      40.112  16.931 122.973 -0.24 -0.00    +0.000 A 
DOCKED: ATOM     31  C   UNL     1      40.752  15.682 123.080 -0.25 -0.00    +0.000 A 
DOCKED: ATOM     32  C   UNL     1      40.918  14.863 121.942 -0.36 -0.00    +0.000 A 
DOCKED: ATOM     33  C   UNL     1      40.443  15.284 120.685 -0.08 -0.00    +0.000 A 
DOCKED: ATOM     34  H   UNL     1      39.257  16.737 118.605 +0.00 -0.00    +0.000 HD
DOCKED: ATOM     35  CM  UNL     1      39.302  17.524 120.579 +0.00 -0.00    +0.000 AC
DOCKED: ATOM     36  CM  UNL     1      40.284  16.101 121.833 +0.00 -0.00    +0.000 AC
DOCKED: ENDBRANCH  23  24
DOCKED: ENDBRANCH  22  23
DOCKED: ENDBRANCH   1  22
DOCKED: TORSDOF 11DOCKED: TER
DOCKED: ENDMDL
________________________________________________________________________________


	BEGINNING GENETIC ALGORITHM DOCKING 80 of 100
Run: 80 Seed: 946771313 1070213052 [ Run 80 of 100 GA/GALS ]
Beginning LAMARCKIAN GENETIC ALGORITHM (LGA), with a maximum of 2500000 energy evaluations.

Final-Value: -17.483


	FINAL GENETIC ALGORITHM DOCKED STATE
	_______________________________________________


Detailed state:  trans 37.880 16.953 123.260 quatxyzw -0.387896 0.260171 0.637427 0.612808 center 0.460 0.128 -0.007 ntor 11 17.2137 -102.0265 -99.8479 -151.0974 -37.6828 134.8506 176.9063 135.6889 176.6392 177.4785 -21.3120
State:	 37.880  16.953 123.260  -0.491  0.329  0.807 104.414     17.21 -102.03  -99.85 -151.10  -37.68  134.85  176.91  135.69  176.64  177.48  -21.31

DOCKED: MODEL       80
DOCKED: USER    Run = 80
DOCKED: USER    DPF = ligand_dock.biased.dpf
DOCKED: USER  
DOCKED: USER    Estimated Free Energy of Binding    =  -11.29 kcal/mol  [=(1)+(2)+(3)-(4)]
DOCKED: USER    Estimated Inhibition Constant, Ki   =    5.31 nM (nanomolar)  [Temperature = 298.15 K]
DOCKED: USER    
DOCKED: USER    (1) Final Intermolecular Energy     =  -14.57 kcal/mol
DOCKED: USER        vdW + Hbond + desolv Energy     =  -14.57 kcal/mol
DOCKED: USER        Electrostatic Energy            =   +0.00 kcal/mol
DOCKED: USER    (2) Final Total Internal Energy     =   -2.91 kcal/mol
DOCKED: USER    (3) Torsional Free Energy           =   +3.28 kcal/mol
DOCKED: USER    (4) Unbound System's Energy  [=(2)] =   -2.91 kcal/mol
DOCKED: USER    
DOCKED: USER    
DOCKED: USER    NEWDPF move ligand.dum.pdbqt
DOCKED: USER    NEWDPF about 0.460000 0.128000 -0.007000
DOCKED: USER    NEWDPF tran0 37.879527 16.953131 123.259800
DOCKED: USER    NEWDPF quaternion0 -0.387896 0.260171 0.637427 0.612808
DOCKED: USER    NEWDPF axisangle0 -0.490864 0.329234 0.806633 104.414304
DOCKED: USER    NEWDPF quat0 -0.490864 0.329234 0.806633 104.414304
DOCKED: USER    NEWDPF dihe0 17.21 -102.03 -99.85 -151.10 -37.68 134.85 176.91 135.69 176.64 177.48 -21.31 
DOCKED: USER  keepresnum = 1 
DOCKED: USER  
DOCKED: REMARK  Name = 
DOCKED: REMARK  11 active torsions:
DOCKED: REMARK  status: ('A' for Active; 'I' for Inactive)
DOCKED: REMARK    1  A    between atoms: C_2  and  C_5
DOCKED: REMARK    2  A    between atoms: N_3  and  O_4
DOCKED: REMARK    3  A    between atoms: C_6  and  C_7
DOCKED: REMARK    4  A    between atoms: C_10  and  C_11
DOCKED: REMARK    5  A    between atoms: C_11  and  N_12
DOCKED: REMARK    6  A    between atoms: N_12  and  C_13
DOCKED: REMARK    7  A    between atoms: N_12  and  C_16
DOCKED: REMARK    8  A    between atoms: C_13  and  C_14
DOCKED: REMARK    9  A    between atoms: C_14  and  O_15
DOCKED: REMARK   10  A    between atoms: C_16  and  C_17
DOCKED: REMARK   11  A    between atoms: C_17  and  C_18
DOCKED: REMARK                            x       y       z     vdW  Elec       q    Type
DOCKED: REMARK                         _______ _______ _______ _____ _____    ______ ____
DOCKED: USER                              x       y       z     vdW  Elec       q    Type
DOCKED: USER                           _______ _______ _______ _____ _____    ______ ____
DOCKED: ROOT
DOCKED: ATOM      1  N   UNL     1      37.117  18.015 122.414 -0.13 -0.00    +0.000 N 
DOCKED: ATOM      2  H   UNL     1      37.885  17.557 121.923 +0.00 -0.00    +0.000 HD
DOCKED: ENDROOT
DOCKED: BRANCH   1   3
DOCKED: ATOM      3  C   UNL     1      36.971  17.377 123.740 -0.25 -0.00    +0.000 C 
DOCKED: BRANCH   3   7
DOCKED: ATOM      4  C   UNL     1      36.448  13.101 123.320 -0.55 -0.00    +0.000 A 
DOCKED: ATOM      5  C   UNL     1      37.662  13.710 122.960 -0.47 -0.00    +0.000 A 
DOCKED: ATOM      6  C   UNL     1      37.832  15.091 123.086 -0.35 -0.00    +0.000 A 
DOCKED: ATOM      7  C   UNL     1      36.792  15.890 123.582 -0.31 -0.00    +0.000 A 
DOCKED: ATOM      8  C   UNL     1      35.585  15.286 123.963 -0.45 -0.00    +0.000 A 
DOCKED: ATOM      9  C   UNL     1      35.413  13.905 123.837 -0.39 -0.00    +0.000 A 
DOCKED: ATOM     10  CM  UNL     1      36.622  14.497 123.458 +0.00 -0.00    +0.000 AC
DOCKED: BRANCH   4  11
DOCKED: ATOM     11  C   UNL     1      37.061  10.899 122.328 -0.56 -0.00    +0.000 C 
DOCKED: ATOM     12  C   UNL     1      36.323  11.629 123.177 -0.70 -0.00    +0.000 C 
DOCKED: BRANCH  10  13
DOCKED: ATOM     13  O   UNL     1      36.716   8.954 121.047 -2.62 -0.00    +0.000 OA
DOCKED: ATOM     14  C   UNL     1      36.931   9.433 122.191 -0.66 -0.00    +0.000 C 
DOCKED: ATOM     15  N   UNL     1      37.071   8.544 123.308 -0.69 -0.00    +0.000 N 
DOCKED: ATOM     16  H   UNL     1      37.341   8.897 124.185 -0.57 -0.00    +0.000 HD
DOCKED: BRANCH  14  16
DOCKED: ATOM     17  O   UNL     1      36.832   7.219 123.156 -1.95 -0.00    +0.000 OA
DOCKED: ATOM     18  H   UNL     1      36.847   6.994 122.213 -0.09 -0.00    +0.000 HD
DOCKED: ENDBRANCH  14  16
DOCKED: ENDBRANCH  10  13
DOCKED: ENDBRANCH   4  11
DOCKED: ENDBRANCH   3   7
DOCKED: ENDBRANCH   1   3
DOCKED: BRANCH   1  18
DOCKED: ATOM     19  C   UNL     1      35.921  17.787 121.568 -0.24 -0.00    +0.000 C 
DOCKED: BRANCH  18  19
DOCKED: ATOM     20  C   UNL     1      34.610  17.987 122.346 -0.34 -0.00    +0.000 C 
DOCKED: BRANCH  19  20
DOCKED: ATOM     21  O   UNL     1      33.496  17.862 121.503 -0.49 -0.00    +0.000 OA
DOCKED: ATOM     22  H   UNL     1      32.719  18.250 121.934 -0.05 -0.00    +0.000 HD
DOCKED: ENDBRANCH  19  20
DOCKED: ENDBRANCH  18  19
DOCKED: ENDBRANCH   1  18
DOCKED: BRANCH   1  22
DOCKED: ATOM     23  C   UNL     1      37.531  19.435 122.522 -0.11 -0.00    +0.000 C 
DOCKED: BRANCH  22  23
DOCKED: ATOM     24  C   UNL     1      38.976  19.708 122.058 -0.04 -0.00    +0.000 C 
DOCKED: BRANCH  23  24
DOCKED: ATOM     25  C   UNL     1      39.929  18.788 122.757 -0.09 -0.00    +0.000 A 
DOCKED: ATOM     26  C   UNL     1      40.584  19.029 123.962 -0.15 -0.00    +0.000 A 
DOCKED: ATOM     27  N   UNL     1      41.428  18.012 124.251 -0.31 -0.00    +0.000 N 
DOCKED: ATOM     28  C   UNL     1      41.322  17.140 123.234 -0.30 -0.00    +0.000 A 
DOCKED: ATOM     29  C   UNL     1      40.421  17.581 122.299 -0.15 -0.00    +0.000 A 
DOCKED: ATOM     30  C   UNL     1      40.157  16.862 121.133 -0.13 -0.00    +0.000 A 
DOCKED: ATOM     31  C   UNL     1      40.842  15.647 120.944 -0.19 -0.00    +0.000 A 
DOCKED: ATOM     32  C   UNL     1      41.766  15.189 121.908 -0.36 -0.00    +0.000 A 
DOCKED: ATOM     33  C   UNL     1      42.016  15.942 123.071 -0.39 -0.00    +0.000 A 
DOCKED: ATOM     34  H   UNL     1      42.002  17.928 125.046 -0.49 -0.00    +0.000 HD
DOCKED: ATOM     35  CM  UNL     1      40.759  18.106 123.331 +0.00 -0.00    +0.000 AC
DOCKED: ATOM     36  CM  UNL     1      41.087  16.393 122.098 +0.00 -0.00    +0.000 AC
DOCKED: ENDBRANCH  23  24
DOCKED: ENDBRANCH  22  23
DOCKED: ENDBRANCH   1  22
DOCKED: TORSDOF 11DOCKED: TER
DOCKED: ENDMDL
________________________________________________________________________________


	BEGINNING GENETIC ALGORITHM DOCKING 81 of 100
Run: 81 Seed: 289787687 806923489 [ Run 81 of 100 GA/GALS ]
Beginning LAMARCKIAN GENETIC ALGORITHM (LGA), with a maximum of 2500000 energy evaluations.

Final-Value: -17.113


	FINAL GENETIC ALGORITHM DOCKED STATE
	_______________________________________________


Detailed state:  trans 38.087 16.841 122.284 quatxyzw 0.625819 -0.381153 -0.676514 -0.073505 center 0.460 0.128 -0.007 ntor 11 14.6302 121.0948 84.8771 44.6910 -180.0000 170.5074 165.0267 -129.6047 154.8545 -143.1975 35.4886
State:	 38.087  16.841 122.284   0.628 -0.382 -0.678 -171.569     14.63  121.09   84.88   44.69 -180.00  170.51  165.03 -129.60  154.85 -143.20   35.49

DOCKED: MODEL       81
DOCKED: USER    Run = 81
DOCKED: USER    DPF = ligand_dock.biased.dpf
DOCKED: USER  
DOCKED: USER    Estimated Free Energy of Binding    =   -9.82 kcal/mol  [=(1)+(2)+(3)-(4)]
DOCKED: USER    Estimated Inhibition Constant, Ki   =   63.00 nM (nanomolar)  [Temperature = 298.15 K]
DOCKED: USER    
DOCKED: USER    (1) Final Intermolecular Energy     =  -13.10 kcal/mol
DOCKED: USER        vdW + Hbond + desolv Energy     =  -13.10 kcal/mol
DOCKED: USER        Electrostatic Energy            =   +0.00 kcal/mol
DOCKED: USER    (2) Final Total Internal Energy     =   -4.01 kcal/mol
DOCKED: USER    (3) Torsional Free Energy           =   +3.28 kcal/mol
DOCKED: USER    (4) Unbound System's Energy  [=(2)] =   -4.01 kcal/mol
DOCKED: USER    
DOCKED: USER    
DOCKED: USER    NEWDPF move ligand.dum.pdbqt
DOCKED: USER    NEWDPF about 0.460000 0.128000 -0.007000
DOCKED: USER    NEWDPF tran0 38.087281 16.840576 122.284218
DOCKED: USER    NEWDPF quaternion0 0.625819 -0.381153 -0.676514 -0.073505
DOCKED: USER    NEWDPF axisangle0 0.627516 -0.382187 -0.678349 -171.569316
DOCKED: USER    NEWDPF quat0 0.627516 -0.382187 -0.678349 -171.569316
DOCKED: USER    NEWDPF dihe0 14.63 121.09 84.88 44.69 -180.00 170.51 165.03 -129.60 154.85 -143.20 35.49 
DOCKED: USER  keepresnum = 1 
DOCKED: USER  
DOCKED: REMARK  Name = 
DOCKED: REMARK  11 active torsions:
DOCKED: REMARK  status: ('A' for Active; 'I' for Inactive)
DOCKED: REMARK    1  A    between atoms: C_2  and  C_5
DOCKED: REMARK    2  A    between atoms: N_3  and  O_4
DOCKED: REMARK    3  A    between atoms: C_6  and  C_7
DOCKED: REMARK    4  A    between atoms: C_10  and  C_11
DOCKED: REMARK    5  A    between atoms: C_11  and  N_12
DOCKED: REMARK    6  A    between atoms: N_12  and  C_13
DOCKED: REMARK    7  A    between atoms: N_12  and  C_16
DOCKED: REMARK    8  A    between atoms: C_13  and  C_14
DOCKED: REMARK    9  A    between atoms: C_14  and  O_15
DOCKED: REMARK   10  A    between atoms: C_16  and  C_17
DOCKED: REMARK   11  A    between atoms: C_17  and  C_18
DOCKED: REMARK                            x       y       z     vdW  Elec       q    Type
DOCKED: REMARK                         _______ _______ _______ _____ _____    ______ ____
DOCKED: USER                              x       y       z     vdW  Elec       q    Type
DOCKED: USER                           _______ _______ _______ _____ _____    ______ ____
DOCKED: ROOT
DOCKED: ATOM      1  N   UNL     1      38.758  18.246 122.268 -0.09 -0.00    +0.000 N 
DOCKED: ATOM      2  H   UNL     1      39.356  17.489 121.935 +0.01 -0.00    +0.000 HD
DOCKED: ENDROOT
DOCKED: BRANCH   1   3
DOCKED: ATOM      3  C   UNL     1      37.414  17.689 122.534 -0.17 -0.00    +0.000 C 
DOCKED: BRANCH   3   7
DOCKED: ATOM      4  C   UNL     1      37.359  13.434 121.747 -0.42 -0.00    +0.000 A 
DOCKED: ATOM      5  C   UNL     1      37.355  13.915 123.067 -0.47 -0.00    +0.000 A 
DOCKED: ATOM      6  C   UNL     1      37.382  15.288 123.326 -0.33 -0.00    +0.000 A 
DOCKED: ATOM      7  C   UNL     1      37.405  16.207 122.267 -0.22 -0.00    +0.000 A 
DOCKED: ATOM      8  C   UNL     1      37.387  15.734 120.947 -0.19 -0.00    +0.000 A 
DOCKED: ATOM      9  C   UNL     1      37.361  14.361 120.686 -0.29 -0.00    +0.000 A 
DOCKED: ATOM     10  CM  UNL     1      37.375  14.824 122.007 +0.00 -0.00    +0.000 AC
DOCKED: BRANCH   4  11
DOCKED: ATOM     11  C   UNL     1      37.059  11.076 122.496 -0.58 -0.00    +0.000 C 
DOCKED: ATOM     12  C   UNL     1      37.319  11.966 121.528 -0.50 -0.00    +0.000 C 
DOCKED: BRANCH  10  13
DOCKED: ATOM     13  O   UNL     1      36.920   9.194 121.087 -2.69 -0.00    +0.000 OA
DOCKED: ATOM     14  C   UNL     1      37.021   9.616 122.269 -0.61 -0.00    +0.000 C 
DOCKED: ATOM     15  N   UNL     1      37.122   8.671 123.343 -0.65 -0.00    +0.000 N 
DOCKED: ATOM     16  H   UNL     1      37.304   8.985 124.258 -0.58 -0.00    +0.000 HD
DOCKED: BRANCH  14  16
DOCKED: ATOM     17  O   UNL     1      36.968   7.347 123.101 -2.12 -0.00    +0.000 OA
DOCKED: ATOM     18  H   UNL     1      37.027   7.185 122.147 -0.09 -0.00    +0.000 HD
DOCKED: ENDBRANCH  14  16
DOCKED: ENDBRANCH  10  13
DOCKED: ENDBRANCH   4  11
DOCKED: ENDBRANCH   3   7
DOCKED: ENDBRANCH   1   3
DOCKED: BRANCH   1  18
DOCKED: ATOM     19  C   UNL     1      38.726  19.234 121.163 -0.04 -0.00    +0.000 C 
DOCKED: BRANCH  18  19
DOCKED: ATOM     20  C   UNL     1      39.632  18.827 119.990 -0.02 -0.00    +0.000 C 
DOCKED: BRANCH  19  20
DOCKED: ATOM     21  O   UNL     1      40.270  17.604 120.243 -0.08 -0.00    +0.000 OA
DOCKED: ATOM     22  H   UNL     1      39.603  16.911 120.369 +0.00 -0.00    +0.000 HD
DOCKED: ENDBRANCH  19  20
DOCKED: ENDBRANCH  18  19
DOCKED: ENDBRANCH   1  18
DOCKED: BRANCH   1  22
DOCKED: ATOM     23  C   UNL     1      39.416  18.729 123.505 -0.14 -0.00    +0.000 C 
DOCKED: BRANCH  22  23
DOCKED: ATOM     24  C   UNL     1      40.220  17.650 124.256 -0.27 -0.00    +0.000 C 
DOCKED: BRANCH  23  24
DOCKED: ATOM     25  C   UNL     1      40.995  16.811 123.286 -0.30 -0.00    +0.000 A 
DOCKED: ATOM     26  C   UNL     1      40.665  15.531 122.846 -0.32 -0.00    +0.000 A 
DOCKED: ATOM     27  N   UNL     1      41.633  15.049 122.034 -0.44 -0.00    +0.000 N 
DOCKED: ATOM     28  C   UNL     1      42.577  16.004 121.970 -0.36 -0.00    +0.000 A 
DOCKED: ATOM     29  C   UNL     1      42.225  17.093 122.727 -0.32 -0.00    +0.000 A 
DOCKED: ATOM     30  C   UNL     1      43.057  18.207 122.844 -0.18 -0.00    +0.000 A 
DOCKED: ATOM     31  C   UNL     1      44.279  18.189 122.147 -0.19 -0.00    +0.000 A 
DOCKED: ATOM     32  C   UNL     1      44.640  17.070 121.364 -0.21 -0.00    +0.000 A 
DOCKED: ATOM     33  C   UNL     1      43.782  15.958 121.271 -0.23 -0.00    +0.000 A 
DOCKED: ATOM     34  H   UNL     1      41.645  14.174 121.582 -0.01 +0.00    +0.000 HD
DOCKED: ATOM     35  CM  UNL     1      41.620  16.064 122.555 +0.00 -0.00    +0.000 AC
DOCKED: ATOM     36  CM  UNL     1      43.427  17.087 122.053 +0.00 -0.00    +0.000 AC
DOCKED: ENDBRANCH  23  24
DOCKED: ENDBRANCH  22  23
DOCKED: ENDBRANCH   1  22
DOCKED: TORSDOF 11DOCKED: TER
DOCKED: ENDMDL
________________________________________________________________________________


	BEGINNING GENETIC ALGORITHM DOCKING 82 of 100
Run: 82 Seed: 476728716 878336160 [ Run 82 of 100 GA/GALS ]
Beginning LAMARCKIAN GENETIC ALGORITHM (LGA), with a maximum of 2500000 energy evaluations.

Final-Value: -16.819


	FINAL GENETIC ALGORITHM DOCKED STATE
	_______________________________________________


Detailed state:  trans 36.448 17.437 123.753 quatxyzw -0.564886 0.798356 -0.199961 0.059552 center 0.460 0.128 -0.007 ntor 11 13.9781 -94.8700 -91.3600 -47.0360 -43.5086 175.3528 6.7285 -90.2308 101.0432 6.6415 -34.9827
State:	 36.448  17.437 123.753  -0.566  0.800 -0.200 173.172     13.98  -94.87  -91.36  -47.04  -43.51  175.35    6.73  -90.23  101.04    6.64  -34.98

DOCKED: MODEL       82
DOCKED: USER    Run = 82
DOCKED: USER    DPF = ligand_dock.biased.dpf
DOCKED: USER  
DOCKED: USER    Estimated Free Energy of Binding    =  -11.22 kcal/mol  [=(1)+(2)+(3)-(4)]
DOCKED: USER    Estimated Inhibition Constant, Ki   =    5.94 nM (nanomolar)  [Temperature = 298.15 K]
DOCKED: USER    
DOCKED: USER    (1) Final Intermolecular Energy     =  -14.50 kcal/mol
DOCKED: USER        vdW + Hbond + desolv Energy     =  -14.50 kcal/mol
DOCKED: USER        Electrostatic Energy            =   +0.00 kcal/mol
DOCKED: USER    (2) Final Total Internal Energy     =   -2.32 kcal/mol
DOCKED: USER    (3) Torsional Free Energy           =   +3.28 kcal/mol
DOCKED: USER    (4) Unbound System's Energy  [=(2)] =   -2.32 kcal/mol
DOCKED: USER    
DOCKED: USER    
DOCKED: USER    NEWDPF move ligand.dum.pdbqt
DOCKED: USER    NEWDPF about 0.460000 0.128000 -0.007000
DOCKED: USER    NEWDPF tran0 36.447608 17.437358 123.753385
DOCKED: USER    NEWDPF quaternion0 -0.564886 0.798356 -0.199961 0.059552
DOCKED: USER    NEWDPF axisangle0 -0.565891 0.799776 -0.200316 173.171760
DOCKED: USER    NEWDPF quat0 -0.565891 0.799776 -0.200316 173.171760
DOCKED: USER    NEWDPF dihe0 13.98 -94.87 -91.36 -47.04 -43.51 175.35 6.73 -90.23 101.04 6.64 -34.98 
DOCKED: USER  keepresnum = 1 
DOCKED: USER  
DOCKED: REMARK  Name = 
DOCKED: REMARK  11 active torsions:
DOCKED: REMARK  status: ('A' for Active; 'I' for Inactive)
DOCKED: REMARK    1  A    between atoms: C_2  and  C_5
DOCKED: REMARK    2  A    between atoms: N_3  and  O_4
DOCKED: REMARK    3  A    between atoms: C_6  and  C_7
DOCKED: REMARK    4  A    between atoms: C_10  and  C_11
DOCKED: REMARK    5  A    between atoms: C_11  and  N_12
DOCKED: REMARK    6  A    between atoms: N_12  and  C_13
DOCKED: REMARK    7  A    between atoms: N_12  and  C_16
DOCKED: REMARK    8  A    between atoms: C_13  and  C_14
DOCKED: REMARK    9  A    between atoms: C_14  and  O_15
DOCKED: REMARK   10  A    between atoms: C_16  and  C_17
DOCKED: REMARK   11  A    between atoms: C_17  and  C_18
DOCKED: REMARK                            x       y       z     vdW  Elec       q    Type
DOCKED: REMARK                         _______ _______ _______ _____ _____    ______ ____
DOCKED: USER                              x       y       z     vdW  Elec       q    Type
DOCKED: USER                           _______ _______ _______ _____ _____    ______ ____
DOCKED: ROOT
DOCKED: ATOM      1  N   UNL     1      37.931  17.911 123.775 -0.18 -0.00    +0.000 N 
DOCKED: ATOM      2  H   UNL     1      37.523  17.757 124.698 -0.02 -0.00    +0.000 HD
DOCKED: ENDROOT
DOCKED: BRANCH   1   3
DOCKED: ATOM      3  C   UNL     1      36.939  17.499 122.758 -0.21 -0.00    +0.000 C 
DOCKED: BRANCH   3   7
DOCKED: ATOM      4  C   UNL     1      36.429  13.203 122.877 -0.49 -0.00    +0.000 A 
DOCKED: ATOM      5  C   UNL     1      37.168  13.805 121.845 -0.38 -0.00    +0.000 A 
DOCKED: ATOM      6  C   UNL     1      37.328  15.192 121.798 -0.27 -0.00    +0.000 A 
DOCKED: ATOM      7  C   UNL     1      36.757  16.005 122.788 -0.29 -0.00    +0.000 A 
DOCKED: ATOM      8  C   UNL     1      36.036  15.409 123.833 -0.41 -0.00    +0.000 A 
DOCKED: ATOM      9  C   UNL     1      35.874  14.021 123.881 -0.49 -0.00    +0.000 A 
DOCKED: ATOM     10  CM  UNL     1      36.599  14.606 122.837 +0.00 -0.00    +0.000 AC
DOCKED: BRANCH   4  11
DOCKED: ATOM     11  C   UNL     1      37.082  10.904 122.172 -0.53 -0.00    +0.000 C 
DOCKED: ATOM     12  C   UNL     1      36.298  11.724 122.886 -0.68 -0.00    +0.000 C 
DOCKED: BRANCH  10  13
DOCKED: ATOM     13  O   UNL     1      36.691   8.843 121.104 -2.62 -0.00    +0.000 OA
DOCKED: ATOM     14  C   UNL     1      36.947   9.432 122.187 -0.65 -0.00    +0.000 C 
DOCKED: ATOM     15  N   UNL     1      37.124   8.658 123.381 -0.64 -0.00    +0.000 N 
DOCKED: ATOM     16  H   UNL     1      37.425   9.096 124.209 -0.62 -0.00    +0.000 HD
DOCKED: BRANCH  14  16
DOCKED: ATOM     17  O   UNL     1      36.879   7.326 123.370 -2.03 -0.00    +0.000 OA
DOCKED: ATOM     18  H   UNL     1      36.810   7.018 122.453 -0.08 -0.00    +0.000 HD
DOCKED: ENDBRANCH  14  16
DOCKED: ENDBRANCH  10  13
DOCKED: ENDBRANCH   4  11
DOCKED: ENDBRANCH   3   7
DOCKED: ENDBRANCH   1   3
DOCKED: BRANCH   1  18
DOCKED: ATOM     19  C   UNL     1      39.140  17.054 123.732 -0.22 -0.00    +0.000 C 
DOCKED: BRANCH  18  19
DOCKED: ATOM     20  C   UNL     1      40.413  17.822 124.121 -0.30 -0.00    +0.000 C 
DOCKED: BRANCH  19  20
DOCKED: ATOM     21  O   UNL     1      41.553  17.017 123.982 -0.84 -0.00    +0.000 OA
DOCKED: ATOM     22  H   UNL     1      42.255  17.346 124.563 -0.47 -0.00    +0.000 HD
DOCKED: ENDBRANCH  19  20
DOCKED: ENDBRANCH  18  19
DOCKED: ENDBRANCH   1  18
DOCKED: BRANCH   1  22
DOCKED: ATOM     23  C   UNL     1      38.208  19.367 123.724 -0.11 -0.00    +0.000 C 
DOCKED: BRANCH  22  23
DOCKED: ATOM     24  C   UNL     1      36.990  20.229 123.339 -0.14 -0.00    +0.000 C 
DOCKED: BRANCH  23  24
DOCKED: ATOM     25  C   UNL     1      36.116  20.457 124.534 -0.15 -0.00    +0.000 A 
DOCKED: ATOM     26  C   UNL     1      36.085  21.596 125.335 -0.10 -0.00    +0.000 A 
DOCKED: ATOM     27  N   UNL     1      35.233  21.420 126.371 -0.10 -0.00    +0.000 N 
DOCKED: ATOM     28  C   UNL     1      34.738  20.178 126.239 -0.15 -0.00    +0.000 A 
DOCKED: ATOM     29  C   UNL     1      35.259  19.556 125.133 -0.19 -0.00    +0.000 A 
DOCKED: ATOM     30  C   UNL     1      34.920  18.245 124.797 -0.29 -0.00    +0.000 A 
DOCKED: ATOM     31  C   UNL     1      34.008  17.570 125.630 -0.36 -0.00    +0.000 A 
DOCKED: ATOM     32  C   UNL     1      33.467  18.211 126.767 -0.28 -0.00    +0.000 A 
DOCKED: ATOM     33  C   UNL     1      33.834  19.533 127.083 -0.16 -0.00    +0.000 A 
DOCKED: ATOM     34  H   UNL     1      35.019  22.071 127.077 +0.00 -0.00    +0.000 HD
DOCKED: ATOM     35  CM  UNL     1      35.478  20.666 125.550 +0.00 -0.00    +0.000 AC
DOCKED: ATOM     36  CM  UNL     1      34.370  18.882 125.942 -0.10 -0.00    +0.000 AC
DOCKED: ENDBRANCH  23  24
DOCKED: ENDBRANCH  22  23
DOCKED: ENDBRANCH   1  22
DOCKED: TORSDOF 11DOCKED: TER
DOCKED: ENDMDL
________________________________________________________________________________


	BEGINNING GENETIC ALGORITHM DOCKING 83 of 100
Run: 83 Seed: 379567107 1311063527 [ Run 83 of 100 GA/GALS ]
Beginning LAMARCKIAN GENETIC ALGORITHM (LGA), with a maximum of 2500000 energy evaluations.

Final-Value: -17.990


	FINAL GENETIC ALGORITHM DOCKED STATE
	_______________________________________________


Detailed state:  trans 37.548 16.864 123.086 quatxyzw 0.765864 -0.081864 0.568978 0.288121 center 0.460 0.128 -0.007 ntor 11 15.8668 -72.8133 63.0542 78.7718 -159.1236 -45.3668 180.0000 166.7145 -156.2733 -134.7687 68.2645
State:	 37.548  16.864 123.086   0.800 -0.085  0.594 146.509     15.87  -72.81   63.05   78.77 -159.12  -45.37  180.00  166.71 -156.27 -134.77   68.26

DOCKED: MODEL       83
DOCKED: USER    Run = 83
DOCKED: USER    DPF = ligand_dock.biased.dpf
DOCKED: USER  
DOCKED: USER    Estimated Free Energy of Binding    =  -10.73 kcal/mol  [=(1)+(2)+(3)-(4)]
DOCKED: USER    Estimated Inhibition Constant, Ki   =   13.63 nM (nanomolar)  [Temperature = 298.15 K]
DOCKED: USER    
DOCKED: USER    (1) Final Intermolecular Energy     =  -14.01 kcal/mol
DOCKED: USER        vdW + Hbond + desolv Energy     =  -14.01 kcal/mol
DOCKED: USER        Electrostatic Energy            =   +0.00 kcal/mol
DOCKED: USER    (2) Final Total Internal Energy     =   -3.98 kcal/mol
DOCKED: USER    (3) Torsional Free Energy           =   +3.28 kcal/mol
DOCKED: USER    (4) Unbound System's Energy  [=(2)] =   -3.98 kcal/mol
DOCKED: USER    
DOCKED: USER    
DOCKED: USER    NEWDPF move ligand.dum.pdbqt
DOCKED: USER    NEWDPF about 0.460000 0.128000 -0.007000
DOCKED: USER    NEWDPF tran0 37.547857 16.863718 123.086374
DOCKED: USER    NEWDPF quaternion0 0.765864 -0.081864 0.568978 0.288121
DOCKED: USER    NEWDPF axisangle0 0.799780 -0.085490 0.594175 146.508968
DOCKED: USER    NEWDPF quat0 0.799780 -0.085490 0.594175 146.508968
DOCKED: USER    NEWDPF dihe0 15.87 -72.81 63.05 78.77 -159.12 -45.37 180.00 166.71 -156.27 -134.77 68.26 
DOCKED: USER  keepresnum = 1 
DOCKED: USER  
DOCKED: REMARK  Name = 
DOCKED: REMARK  11 active torsions:
DOCKED: REMARK  status: ('A' for Active; 'I' for Inactive)
DOCKED: REMARK    1  A    between atoms: C_2  and  C_5
DOCKED: REMARK    2  A    between atoms: N_3  and  O_4
DOCKED: REMARK    3  A    between atoms: C_6  and  C_7
DOCKED: REMARK    4  A    between atoms: C_10  and  C_11
DOCKED: REMARK    5  A    between atoms: C_11  and  N_12
DOCKED: REMARK    6  A    between atoms: N_12  and  C_13
DOCKED: REMARK    7  A    between atoms: N_12  and  C_16
DOCKED: REMARK    8  A    between atoms: C_13  and  C_14
DOCKED: REMARK    9  A    between atoms: C_14  and  O_15
DOCKED: REMARK   10  A    between atoms: C_16  and  C_17
DOCKED: REMARK   11  A    between atoms: C_17  and  C_18
DOCKED: REMARK                            x       y       z     vdW  Elec       q    Type
DOCKED: REMARK                         _______ _______ _______ _____ _____    ______ ____
DOCKED: USER                              x       y       z     vdW  Elec       q    Type
DOCKED: USER                           _______ _______ _______ _____ _____    ______ ____
DOCKED: ROOT
DOCKED: ATOM      1  N   UNL     1      36.970  18.306 122.983 -0.14 -0.00    +0.000 N 
DOCKED: ATOM      2  H   UNL     1      36.418  17.671 123.559 +0.00 -0.00    +0.000 HD
DOCKED: ENDROOT
DOCKED: BRANCH   1   3
DOCKED: ATOM      3  C   UNL     1      38.196  17.596 122.558 -0.16 -0.00    +0.000 C 
DOCKED: BRANCH   3   7
DOCKED: ATOM      4  C   UNL     1      37.366  13.392 121.948 -0.43 -0.00    +0.000 A 
DOCKED: ATOM      5  C   UNL     1      37.728  14.212 120.866 -0.33 -0.00    +0.000 A 
DOCKED: ATOM      6  C   UNL     1      37.988  15.572 121.057 -0.21 -0.00    +0.000 A 
DOCKED: ATOM      7  C   UNL     1      37.899  16.136 122.337 -0.23 -0.00    +0.000 A 
DOCKED: ATOM      8  C   UNL     1      37.559  15.320 123.425 -0.30 -0.00    +0.000 A 
DOCKED: ATOM      9  C   UNL     1      37.297  13.959 123.236 -0.45 -0.00    +0.000 A 
DOCKED: ATOM     10  CM  UNL     1      37.640  14.766 122.145 +0.00 -0.00    +0.000 AC
DOCKED: BRANCH   4  11
DOCKED: ATOM     11  C   UNL     1      37.225  11.000 122.628 -0.39 -0.00    +0.000 C 
DOCKED: ATOM     12  C   UNL     1      37.111  11.953 121.693 -0.55 -0.00    +0.000 C 
DOCKED: BRANCH  10  13
DOCKED: ATOM     13  O   UNL     1      36.700   9.211 121.189 -2.63 -0.00    +0.000 OA
DOCKED: ATOM     14  C   UNL     1      36.969   9.568 122.367 -0.63 -0.00    +0.000 C 
DOCKED: ATOM     15  N   UNL     1      37.043   8.575 123.399 -0.67 -0.00    +0.000 N 
DOCKED: ATOM     16  H   UNL     1      37.352   8.825 124.299 -0.57 -0.00    +0.000 HD
DOCKED: BRANCH  14  16
DOCKED: ATOM     17  O   UNL     1      36.689   7.294 123.138 -1.97 -0.00    +0.000 OA
DOCKED: ATOM     18  H   UNL     1      36.654   7.158 122.178 -0.06 -0.00    +0.000 HD
DOCKED: ENDBRANCH  14  16
DOCKED: ENDBRANCH  10  13
DOCKED: ENDBRANCH   4  11
DOCKED: ENDBRANCH   3   7
DOCKED: ENDBRANCH   1   3
DOCKED: BRANCH   1  18
DOCKED: ATOM     19  C   UNL     1      37.288  19.457 123.861 -0.13 -0.00    +0.000 C 
DOCKED: BRANCH  18  19
DOCKED: ATOM     20  C   UNL     1      37.411  19.048 125.338 -0.17 -0.00    +0.000 C 
DOCKED: BRANCH  19  20
DOCKED: ATOM     21  O   UNL     1      36.743  17.840 125.586 -0.14 -0.00    +0.000 OA
DOCKED: ATOM     22  H   UNL     1      36.206  17.926 126.388 -0.02 -0.00    +0.000 HD
DOCKED: ENDBRANCH  19  20
DOCKED: ENDBRANCH  18  19
DOCKED: ENDBRANCH   1  18
DOCKED: BRANCH   1  22
DOCKED: ATOM     23  C   UNL     1      36.091  18.634 121.835 -0.21 -0.00    +0.000 C 
DOCKED: BRANCH  22  23
DOCKED: ATOM     24  C   UNL     1      34.594  18.370 122.092 -0.19 -0.00    +0.000 C 
DOCKED: BRANCH  23  24
DOCKED: ATOM     25  C   UNL     1      34.424  17.379 123.203 -0.38 -0.00    +0.000 A 
DOCKED: ATOM     26  C   UNL     1      34.404  15.992 123.084 -0.30 -0.00    +0.000 A 
DOCKED: ATOM     27  N   UNL     1      34.152  15.420 124.284 -0.60 -0.00    +0.000 N 
DOCKED: ATOM     28  C   UNL     1      33.999  16.433 125.154 -0.38 -0.00    +0.000 A 
DOCKED: ATOM     29  C   UNL     1      34.151  17.644 124.530 -0.37 -0.00    +0.000 A 
DOCKED: ATOM     30  C   UNL     1      34.009  18.850 125.218 -0.23 -0.00    +0.000 A 
DOCKED: ATOM     31  C   UNL     1      33.712  18.789 126.593 -0.25 -0.00    +0.000 A 
DOCKED: ATOM     32  C   UNL     1      33.560  17.541 127.237 -0.31 -0.00    +0.000 A 
DOCKED: ATOM     33  C   UNL     1      33.702  16.342 126.513 -0.35 -0.00    +0.000 A 
DOCKED: ATOM     34  H   UNL     1      34.094  14.457 124.479 -0.06 -0.00    +0.000 HD
DOCKED: ATOM     35  CM  UNL     1      34.223  16.537 124.059 -0.07 -0.00    +0.000 AC
DOCKED: ATOM     36  CM  UNL     1      33.856  17.600 125.875 -0.14 -0.00    +0.000 AC
DOCKED: ENDBRANCH  23  24
DOCKED: ENDBRANCH  22  23
DOCKED: ENDBRANCH   1  22
DOCKED: TORSDOF 11DOCKED: TER
DOCKED: ENDMDL
________________________________________________________________________________


	BEGINNING GENETIC ALGORITHM DOCKING 84 of 100
Run: 84 Seed: 1461045436 486293568 [ Run 84 of 100 GA/GALS ]
Beginning LAMARCKIAN GENETIC ALGORITHM (LGA), with a maximum of 2500000 energy evaluations.

Final-Value: -16.782


	FINAL GENETIC ALGORITHM DOCKED STATE
	_______________________________________________


Detailed state:  trans 36.464 16.733 120.338 quatxyzw -0.455710 -0.202179 -0.821716 -0.276108 center 0.460 0.128 -0.007 ntor 11 27.4904 -128.9889 105.6805 56.6131 160.8718 1.3514 20.9675 93.9474 -158.0865 177.9024 61.7589
State:	 36.464  16.733 120.338  -0.474 -0.210 -0.855 -147.944     27.49 -128.99  105.68   56.61  160.87    1.35   20.97   93.95 -158.09  177.90   61.76

DOCKED: MODEL       84
DOCKED: USER    Run = 84
DOCKED: USER    DPF = ligand_dock.biased.dpf
DOCKED: USER  
DOCKED: USER    Estimated Free Energy of Binding    =   -9.96 kcal/mol  [=(1)+(2)+(3)-(4)]
DOCKED: USER    Estimated Inhibition Constant, Ki   =   49.99 nM (nanomolar)  [Temperature = 298.15 K]
DOCKED: USER    
DOCKED: USER    (1) Final Intermolecular Energy     =  -13.24 kcal/mol
DOCKED: USER        vdW + Hbond + desolv Energy     =  -13.24 kcal/mol
DOCKED: USER        Electrostatic Energy            =   +0.00 kcal/mol
DOCKED: USER    (2) Final Total Internal Energy     =   -3.54 kcal/mol
DOCKED: USER    (3) Torsional Free Energy           =   +3.28 kcal/mol
DOCKED: USER    (4) Unbound System's Energy  [=(2)] =   -3.54 kcal/mol
DOCKED: USER    
DOCKED: USER    
DOCKED: USER    NEWDPF move ligand.dum.pdbqt
DOCKED: USER    NEWDPF about 0.460000 0.128000 -0.007000
DOCKED: USER    NEWDPF tran0 36.464146 16.733178 120.337980
DOCKED: USER    NEWDPF quaternion0 -0.455710 -0.202179 -0.821716 -0.276108
DOCKED: USER    NEWDPF axisangle0 -0.474142 -0.210356 -0.854950 -147.943856
DOCKED: USER    NEWDPF quat0 -0.474142 -0.210356 -0.854950 -147.943856
DOCKED: USER    NEWDPF dihe0 27.49 -128.99 105.68 56.61 160.87 1.35 20.97 93.95 -158.09 177.90 61.76 
DOCKED: USER  keepresnum = 1 
DOCKED: USER  
DOCKED: REMARK  Name = 
DOCKED: REMARK  11 active torsions:
DOCKED: REMARK  status: ('A' for Active; 'I' for Inactive)
DOCKED: REMARK    1  A    between atoms: C_2  and  C_5
DOCKED: REMARK    2  A    between atoms: N_3  and  O_4
DOCKED: REMARK    3  A    between atoms: C_6  and  C_7
DOCKED: REMARK    4  A    between atoms: C_10  and  C_11
DOCKED: REMARK    5  A    between atoms: C_11  and  N_12
DOCKED: REMARK    6  A    between atoms: N_12  and  C_13
DOCKED: REMARK    7  A    between atoms: N_12  and  C_16
DOCKED: REMARK    8  A    between atoms: C_13  and  C_14
DOCKED: REMARK    9  A    between atoms: C_14  and  O_15
DOCKED: REMARK   10  A    between atoms: C_16  and  C_17
DOCKED: REMARK   11  A    between atoms: C_17  and  C_18
DOCKED: REMARK                            x       y       z     vdW  Elec       q    Type
DOCKED: REMARK                         _______ _______ _______ _____ _____    ______ ____
DOCKED: USER                              x       y       z     vdW  Elec       q    Type
DOCKED: USER                           _______ _______ _______ _____ _____    ______ ____
DOCKED: ROOT
DOCKED: ATOM      1  N   UNL     1      36.068  17.933 119.428 -0.12 -0.00    +0.000 N 
DOCKED: ATOM      2  H   UNL     1      35.351  17.213 119.512 -0.01 -0.00    +0.000 HD
DOCKED: ENDROOT
DOCKED: BRANCH   1   3
DOCKED: ATOM      3  C   UNL     1      37.186  17.578 120.329 -0.12 -0.00    +0.000 C 
DOCKED: BRANCH   3   7
DOCKED: ATOM      4  C   UNL     1      37.397  13.290 120.873 -0.41 -0.00    +0.000 A 
DOCKED: ATOM      5  C   UNL     1      37.666  13.863 119.619 -0.33 -0.00    +0.000 A 
DOCKED: ATOM      6  C   UNL     1      37.590  15.247 119.437 -0.20 -0.00    +0.000 A 
DOCKED: ATOM      7  C   UNL     1      37.252  16.085 120.509 -0.17 -0.00    +0.000 A 
DOCKED: ATOM      8  C   UNL     1      37.002  15.521 121.768 -0.24 -0.00    +0.000 A 
DOCKED: ATOM      9  C   UNL     1      37.076  14.137 121.953 -0.36 -0.00    +0.000 A 
DOCKED: ATOM     10  CM  UNL     1      37.331  14.691 120.693 +0.00 -0.00    +0.000 AC
DOCKED: BRANCH   4  11
DOCKED: ATOM     11  C   UNL     1      36.882  11.116 121.977 -0.58 -0.00    +0.000 C 
DOCKED: ATOM     12  C   UNL     1      37.502  11.816 121.016 -0.45 -0.00    +0.000 C 
DOCKED: BRANCH  10  13
DOCKED: ATOM     13  O   UNL     1      37.057   8.952 121.065 -2.71 -0.00    +0.000 OA
DOCKED: ATOM     14  C   UNL     1      36.990   9.648 122.113 -0.62 -0.00    +0.000 C 
DOCKED: ATOM     15  N   UNL     1      37.049   8.999 123.390 -0.60 -0.00    +0.000 N 
DOCKED: ATOM     16  H   UNL     1      37.102   9.537 124.212 -0.58 -0.00    +0.000 HD
DOCKED: BRANCH  14  16
DOCKED: ATOM     17  O   UNL     1      37.033   7.647 123.467 -2.23 -0.00    +0.000 OA
DOCKED: ATOM     18  H   UNL     1      37.406   7.273 122.654 -0.19 -0.00    +0.000 HD
DOCKED: ENDBRANCH  14  16
DOCKED: ENDBRANCH  10  13
DOCKED: ENDBRANCH   4  11
DOCKED: ENDBRANCH   3   7
DOCKED: ENDBRANCH   1   3
DOCKED: BRANCH   1  18
DOCKED: ATOM     19  C   UNL     1      35.410  19.192 119.852 -0.19 -0.00    +0.000 C 
DOCKED: BRANCH  18  19
DOCKED: ATOM     20  C   UNL     1      34.016  18.948 120.452 -0.21 -0.00    +0.000 C 
DOCKED: BRANCH  19  20
DOCKED: ATOM     21  O   UNL     1      33.880  17.626 120.898 -0.32 -0.00    +0.000 OA
DOCKED: ATOM     22  H   UNL     1      33.060  17.538 121.407 -0.05 -0.00    +0.000 HD
DOCKED: ENDBRANCH  19  20
DOCKED: ENDBRANCH  18  19
DOCKED: ENDBRANCH   1  18
DOCKED: BRANCH   1  22
DOCKED: ATOM     23  C   UNL     1      36.470  17.901 118.002 -0.08 -0.00    +0.000 C 
DOCKED: BRANCH  22  23
DOCKED: ATOM     24  C   UNL     1      35.459  17.196 117.076 -0.11 -0.00    +0.000 C 
DOCKED: BRANCH  23  24
DOCKED: ATOM     25  C   UNL     1      35.839  15.759 116.891 -0.16 -0.00    +0.000 A 
DOCKED: ATOM     26  C   UNL     1      35.127  14.647 117.334 -0.26 -0.00    +0.000 A 
DOCKED: ATOM     27  N   UNL     1      35.808  13.511 117.059 -0.30 -0.00    +0.000 N 
DOCKED: ATOM     28  C   UNL     1      36.949  13.897 116.461 -0.33 -0.00    +0.000 A 
DOCKED: ATOM     29  C   UNL     1      37.007  15.262 116.347 -0.17 -0.00    +0.000 A 
DOCKED: ATOM     30  C   UNL     1      38.108  15.908 115.784 -0.12 -0.00    +0.000 A 
DOCKED: ATOM     31  C   UNL     1      39.170  15.108 115.320 -0.26 -0.00    +0.000 A 
DOCKED: ATOM     32  C   UNL     1      39.109  13.702 115.433 -0.42 -0.00    +0.000 A 
DOCKED: ATOM     33  C   UNL     1      37.986  13.081 116.012 -0.41 -0.00    +0.000 A 
DOCKED: ATOM     34  H   UNL     1      35.526  12.589 117.257 +0.07 -0.00    +0.000 HD
DOCKED: ATOM     35  CM  UNL     1      36.136  14.580 116.826 +0.00 -0.00    +0.000 AC
DOCKED: ATOM     36  CM  UNL     1      38.055  14.493 115.892 +0.00 -0.00    +0.000 AC
DOCKED: ENDBRANCH  23  24
DOCKED: ENDBRANCH  22  23
DOCKED: ENDBRANCH   1  22
DOCKED: TORSDOF 11DOCKED: TER
DOCKED: ENDMDL
________________________________________________________________________________


	BEGINNING GENETIC ALGORITHM DOCKING 85 of 100
Run: 85 Seed: 1194224618 1360864742 [ Run 85 of 100 GA/GALS ]
Beginning LAMARCKIAN GENETIC ALGORITHM (LGA), with a maximum of 2500000 energy evaluations.

Final-Value: -16.860


	FINAL GENETIC ALGORITHM DOCKED STATE
	_______________________________________________


Detailed state:  trans 38.691 14.889 121.687 quatxyzw 0.825078 -0.559953 -0.075451 -0.002443 center 0.460 0.128 -0.007 ntor 11 20.1027 121.3846 101.2818 21.8905 112.4705 149.3080 135.4382 47.8839 -160.4506 -40.9529 42.9414
State:	 38.691  14.889 121.687   0.825 -0.560 -0.075 -179.720     20.10  121.38  101.28   21.89  112.47  149.31  135.44   47.88 -160.45  -40.95   42.94

DOCKED: MODEL       85
DOCKED: USER    Run = 85
DOCKED: USER    DPF = ligand_dock.biased.dpf
DOCKED: USER  
DOCKED: USER    Estimated Free Energy of Binding    =  -10.44 kcal/mol  [=(1)+(2)+(3)-(4)]
DOCKED: USER    Estimated Inhibition Constant, Ki   =   22.17 nM (nanomolar)  [Temperature = 298.15 K]
DOCKED: USER    
DOCKED: USER    (1) Final Intermolecular Energy     =  -13.72 kcal/mol
DOCKED: USER        vdW + Hbond + desolv Energy     =  -13.72 kcal/mol
DOCKED: USER        Electrostatic Energy            =   +0.00 kcal/mol
DOCKED: USER    (2) Final Total Internal Energy     =   -3.14 kcal/mol
DOCKED: USER    (3) Torsional Free Energy           =   +3.28 kcal/mol
DOCKED: USER    (4) Unbound System's Energy  [=(2)] =   -3.14 kcal/mol
DOCKED: USER    
DOCKED: USER    
DOCKED: USER    NEWDPF move ligand.dum.pdbqt
DOCKED: USER    NEWDPF about 0.460000 0.128000 -0.007000
DOCKED: USER    NEWDPF tran0 38.691190 14.889290 121.686606
DOCKED: USER    NEWDPF quaternion0 0.825078 -0.559953 -0.075451 -0.002443
DOCKED: USER    NEWDPF axisangle0 0.825080 -0.559955 -0.075451 -179.720017
DOCKED: USER    NEWDPF quat0 0.825080 -0.559955 -0.075451 -179.720017
DOCKED: USER    NEWDPF dihe0 20.10 121.38 101.28 21.89 112.47 149.31 135.44 47.88 -160.45 -40.95 42.94 
DOCKED: USER  keepresnum = 1 
DOCKED: USER  
DOCKED: REMARK  Name = 
DOCKED: REMARK  11 active torsions:
DOCKED: REMARK  status: ('A' for Active; 'I' for Inactive)
DOCKED: REMARK    1  A    between atoms: C_2  and  C_5
DOCKED: REMARK    2  A    between atoms: N_3  and  O_4
DOCKED: REMARK    3  A    between atoms: C_6  and  C_7
DOCKED: REMARK    4  A    between atoms: C_10  and  C_11
DOCKED: REMARK    5  A    between atoms: C_11  and  N_12
DOCKED: REMARK    6  A    between atoms: N_12  and  C_13
DOCKED: REMARK    7  A    between atoms: N_12  and  C_16
DOCKED: REMARK    8  A    between atoms: C_13  and  C_14
DOCKED: REMARK    9  A    between atoms: C_14  and  O_15
DOCKED: REMARK   10  A    between atoms: C_16  and  C_17
DOCKED: REMARK   11  A    between atoms: C_17  and  C_18
DOCKED: REMARK                            x       y       z     vdW  Elec       q    Type
DOCKED: REMARK                         _______ _______ _______ _____ _____    ______ ____
DOCKED: USER                              x       y       z     vdW  Elec       q    Type
DOCKED: USER                           _______ _______ _______ _____ _____    ______ ____
DOCKED: ROOT
DOCKED: ATOM      1  N   UNL     1      39.504  16.217 121.699 -0.19 -0.00    +0.000 N 
DOCKED: ATOM      2  H   UNL     1      39.726  15.580 122.464 -0.01 -0.00    +0.000 HD
DOCKED: ENDROOT
DOCKED: BRANCH   1   3
DOCKED: ATOM      3  C   UNL     1      38.545  15.542 120.799 -0.24 -0.00    +0.000 C 
DOCKED: BRANCH   3   7
DOCKED: ATOM      4  C   UNL     1      37.176  11.862 122.619 -0.49 -0.00    +0.000 A 
DOCKED: ATOM      5  C   UNL     1      37.214  11.995 121.221 -0.47 -0.00    +0.000 A 
DOCKED: ATOM      6  C   UNL     1      37.647  13.184 120.629 -0.42 -0.00    +0.000 A 
DOCKED: ATOM      7  C   UNL     1      38.058  14.263 121.426 -0.35 -0.00    +0.000 A 
DOCKED: ATOM      8  C   UNL     1      38.043  14.130 122.821 -0.43 -0.00    +0.000 A 
DOCKED: ATOM      9  C   UNL     1      37.609  12.941 123.416 -0.45 -0.00    +0.000 A 
DOCKED: ATOM     10  CM  UNL     1      37.625  13.063 122.022 +0.00 -0.00    +0.000 AC
DOCKED: BRANCH   4  11
DOCKED: ATOM     11  C   UNL     1      36.159   9.592 122.475 -0.70 -0.00    +0.000 C 
DOCKED: ATOM     12  C   UNL     1      36.717  10.574 123.197 -0.65 -0.00    +0.000 C 
DOCKED: BRANCH  10  13
DOCKED: ATOM     13  O   UNL     1      36.550   7.390 123.213 -1.89 -0.00    +0.000 OA
DOCKED: ATOM     14  C   UNL     1      35.706   8.311 123.057 -0.72 -0.00    +0.000 C 
DOCKED: ATOM     15  N   UNL     1      34.350   8.096 123.474 -0.64 -0.00    +0.000 N 
DOCKED: ATOM     16  H   UNL     1      33.707   8.840 123.453 -0.54 -0.00    +0.000 HD
DOCKED: BRANCH  14  16
DOCKED: ATOM     17  O   UNL     1      33.955   6.871 123.896 -0.81 -0.00    +0.000 OA
DOCKED: ATOM     18  H   UNL     1      34.732   6.353 124.157 -0.07 -0.00    +0.000 HD
DOCKED: ENDBRANCH  14  16
DOCKED: ENDBRANCH  10  13
DOCKED: ENDBRANCH   4  11
DOCKED: ENDBRANCH   3   7
DOCKED: ENDBRANCH   1   3
DOCKED: BRANCH   1  18
DOCKED: ATOM     19  C   UNL     1      40.796  16.477 121.019 -0.20 -0.00    +0.000 C 
DOCKED: BRANCH  18  19
DOCKED: ATOM     20  C   UNL     1      41.997  16.299 121.961 -0.35 -0.00    +0.000 C 
DOCKED: BRANCH  19  20
DOCKED: ATOM     21  O   UNL     1      41.638  15.579 123.110 -1.06 +0.00    +0.000 OA
DOCKED: ATOM     22  H   UNL     1      41.322  14.699 122.855 -0.05 -0.00    +0.000 HD
DOCKED: ENDBRANCH  19  20
DOCKED: ENDBRANCH  18  19
DOCKED: ENDBRANCH   1  18
DOCKED: BRANCH   1  22
DOCKED: ATOM     23  C   UNL     1      38.908  17.404 122.358 -0.16 -0.00    +0.000 C 
DOCKED: BRANCH  22  23
DOCKED: ATOM     24  C   UNL     1      39.159  17.475 123.878 -0.25 -0.00    +0.000 C 
DOCKED: BRANCH  23  24
DOCKED: ATOM     25  C   UNL     1      37.933  17.970 124.583 -0.15 -0.00    +0.000 A 
DOCKED: ATOM     26  C   UNL     1      37.877  18.974 125.546 -0.15 -0.00    +0.000 A 
DOCKED: ATOM     27  N   UNL     1      36.617  19.101 126.022 -0.15 -0.00    +0.000 N 
DOCKED: ATOM     28  C   UNL     1      35.882  18.178 125.379 -0.20 -0.00    +0.000 A 
DOCKED: ATOM     29  C   UNL     1      36.651  17.463 124.497 -0.18 -0.00    +0.000 A 
DOCKED: ATOM     30  C   UNL     1      36.121  16.425 123.729 -0.32 -0.00    +0.000 A 
DOCKED: ATOM     31  C   UNL     1      34.752  16.134 123.879 -0.47 -0.00    +0.000 A 
DOCKED: ATOM     32  C   UNL     1      33.957  16.873 124.783 -0.32 -0.00    +0.000 A 
DOCKED: ATOM     33  C   UNL     1      34.524  17.909 125.548 -0.32 -0.00    +0.000 A 
DOCKED: ATOM     34  H   UNL     1      36.303  19.740 126.701 +0.00 -0.00    +0.000 HD
DOCKED: ATOM     35  CM  UNL     1      36.980  18.361 125.232 -0.02 -0.00    +0.000 AC
DOCKED: ATOM     36  CM  UNL     1      35.314  17.164 124.636 -0.30 -0.00    +0.000 AC
DOCKED: ENDBRANCH  23  24
DOCKED: ENDBRANCH  22  23
DOCKED: ENDBRANCH   1  22
DOCKED: TORSDOF 11DOCKED: TER
DOCKED: ENDMDL
________________________________________________________________________________


	BEGINNING GENETIC ALGORITHM DOCKING 86 of 100
Run: 86 Seed: 1972720667 400512389 [ Run 86 of 100 GA/GALS ]
Beginning LAMARCKIAN GENETIC ALGORITHM (LGA), with a maximum of 2500000 energy evaluations.

Final-Value: -17.989


	FINAL GENETIC ALGORITHM DOCKED STATE
	_______________________________________________


Detailed state:  trans 37.097 16.930 122.489 quatxyzw 0.813869 -0.190812 0.459067 0.300776 center 0.460 0.128 -0.007 ntor 11 170.9436 109.3959 32.0617 85.2507 7.2518 -26.1292 152.5596 -149.5128 168.9575 70.3205 42.4926
State:	 37.097  16.930 122.489   0.853 -0.200  0.481 144.992    170.94  109.40   32.06   85.25    7.25  -26.13  152.56 -149.51  168.96   70.32   42.49

DOCKED: MODEL       86
DOCKED: USER    Run = 86
DOCKED: USER    DPF = ligand_dock.biased.dpf
DOCKED: USER  
DOCKED: USER    Estimated Free Energy of Binding    =  -11.28 kcal/mol  [=(1)+(2)+(3)-(4)]
DOCKED: USER    Estimated Inhibition Constant, Ki   =    5.41 nM (nanomolar)  [Temperature = 298.15 K]
DOCKED: USER    
DOCKED: USER    (1) Final Intermolecular Energy     =  -14.56 kcal/mol
DOCKED: USER        vdW + Hbond + desolv Energy     =  -14.56 kcal/mol
DOCKED: USER        Electrostatic Energy            =   +0.00 kcal/mol
DOCKED: USER    (2) Final Total Internal Energy     =   -3.43 kcal/mol
DOCKED: USER    (3) Torsional Free Energy           =   +3.28 kcal/mol
DOCKED: USER    (4) Unbound System's Energy  [=(2)] =   -3.43 kcal/mol
DOCKED: USER    
DOCKED: USER    
DOCKED: USER    NEWDPF move ligand.dum.pdbqt
DOCKED: USER    NEWDPF about 0.460000 0.128000 -0.007000
DOCKED: USER    NEWDPF tran0 37.097070 16.929666 122.488518
DOCKED: USER    NEWDPF quaternion0 0.813869 -0.190812 0.459067 0.300776
DOCKED: USER    NEWDPF axisangle0 0.853385 -0.200076 0.481356 144.991611
DOCKED: USER    NEWDPF quat0 0.853385 -0.200076 0.481356 144.991611
DOCKED: USER    NEWDPF dihe0 170.94 109.40 32.06 85.25 7.25 -26.13 152.56 -149.51 168.96 70.32 42.49 
DOCKED: USER  keepresnum = 1 
DOCKED: USER  
DOCKED: REMARK  Name = 
DOCKED: REMARK  11 active torsions:
DOCKED: REMARK  status: ('A' for Active; 'I' for Inactive)
DOCKED: REMARK    1  A    between atoms: C_2  and  C_5
DOCKED: REMARK    2  A    between atoms: N_3  and  O_4
DOCKED: REMARK    3  A    between atoms: C_6  and  C_7
DOCKED: REMARK    4  A    between atoms: C_10  and  C_11
DOCKED: REMARK    5  A    between atoms: C_11  and  N_12
DOCKED: REMARK    6  A    between atoms: N_12  and  C_13
DOCKED: REMARK    7  A    between atoms: N_12  and  C_16
DOCKED: REMARK    8  A    between atoms: C_13  and  C_14
DOCKED: REMARK    9  A    between atoms: C_14  and  O_15
DOCKED: REMARK   10  A    between atoms: C_16  and  C_17
DOCKED: REMARK   11  A    between atoms: C_17  and  C_18
DOCKED: REMARK                            x       y       z     vdW  Elec       q    Type
DOCKED: REMARK                         _______ _______ _______ _____ _____    ______ ____
DOCKED: USER                              x       y       z     vdW  Elec       q    Type
DOCKED: USER                           _______ _______ _______ _____ _____    ______ ____
DOCKED: ROOT
DOCKED: ATOM      1  N   UNL     1      36.659  18.405 122.728 -0.15 -0.00    +0.000 N 
DOCKED: ATOM      2  H   UNL     1      36.227  17.728 123.358 +0.00 -0.00    +0.000 HD
DOCKED: ENDROOT
DOCKED: BRANCH   1   3
DOCKED: ATOM      3  C   UNL     1      37.644  17.689 121.889 -0.13 -0.00    +0.000 C 
DOCKED: BRANCH   3   7
DOCKED: ATOM      4  C   UNL     1      37.255  13.417 122.459 -0.47 -0.00    +0.000 A 
DOCKED: ATOM      5  C   UNL     1      37.170  14.293 123.554 -0.35 -0.00    +0.000 A 
DOCKED: ATOM      6  C   UNL     1      37.304  15.672 123.376 -0.31 -0.00    +0.000 A 
DOCKED: ATOM      7  C   UNL     1      37.518  16.203 122.095 -0.21 -0.00    +0.000 A 
DOCKED: ATOM      8  C   UNL     1      37.584  15.336 120.996 -0.23 -0.00    +0.000 A 
DOCKED: ATOM      9  C   UNL     1      37.451  13.955 121.172 -0.36 -0.00    +0.000 A 
DOCKED: ATOM     10  CM  UNL     1      37.380  14.813 122.275 +0.00 -0.00    +0.000 AC
DOCKED: BRANCH   4  11
DOCKED: ATOM     11  C   UNL     1      37.058  11.044 121.725 -0.53 -0.00    +0.000 C 
DOCKED: ATOM     12  C   UNL     1      37.096  11.961 122.702 -0.61 -0.00    +0.000 C 
DOCKED: BRANCH  10  13
DOCKED: ATOM     13  O   UNL     1      36.693   8.837 120.990 -2.61 -0.00    +0.000 OA
DOCKED: ATOM     14  C   UNL     1      36.900   9.596 121.974 -0.64 -0.00    +0.000 C 
DOCKED: ATOM     15  N   UNL     1      37.001   9.028 123.287 -0.62 -0.00    +0.000 N 
DOCKED: ATOM     16  H   UNL     1      37.264   9.595 124.048 -0.55 -0.00    +0.000 HD
DOCKED: BRANCH  14  16
DOCKED: ATOM     17  O   UNL     1      36.736   7.714 123.483 -2.13 -0.00    +0.000 OA
DOCKED: ATOM     18  H   UNL     1      36.989   7.465 124.386 -0.52 -0.00    +0.000 HD
DOCKED: ENDBRANCH  14  16
DOCKED: ENDBRANCH  10  13
DOCKED: ENDBRANCH   4  11
DOCKED: ENDBRANCH   3   7
DOCKED: ENDBRANCH   1   3
DOCKED: BRANCH   1  18
DOCKED: ATOM     19  C   UNL     1      37.319  19.396 123.612 -0.13 -0.00    +0.000 C 
DOCKED: BRANCH  18  19
DOCKED: ATOM     20  C   UNL     1      37.941  18.745 124.857 -0.18 -0.00    +0.000 C 
DOCKED: BRANCH  19  20
DOCKED: ATOM     21  O   UNL     1      37.005  17.949 125.533 -0.13 -0.00    +0.000 OA
DOCKED: ATOM     22  H   UNL     1      36.559  17.366 124.901 -0.02 -0.00    +0.000 HD
DOCKED: ENDBRANCH  19  20
DOCKED: ENDBRANCH  18  19
DOCKED: ENDBRANCH   1  18
DOCKED: BRANCH   1  22
DOCKED: ATOM     23  C   UNL     1      35.535  18.947 121.928 -0.22 -0.00    +0.000 C 
DOCKED: BRANCH  22  23
DOCKED: ATOM     24  C   UNL     1      34.240  18.115 122.013 -0.28 -0.00    +0.000 C 
DOCKED: BRANCH  23  24
DOCKED: ATOM     25  C   UNL     1      34.238  17.284 123.260 -0.36 -0.00    +0.000 A 
DOCKED: ATOM     26  C   UNL     1      34.272  15.894 123.333 -0.35 -0.00    +0.000 A 
DOCKED: ATOM     27  N   UNL     1      34.177  15.487 124.619 -0.58 -0.00    +0.000 N 
DOCKED: ATOM     28  C   UNL     1      34.069  16.606 125.356 -0.42 -0.00    +0.000 A 
DOCKED: ATOM     29  C   UNL     1      34.096  17.723 124.562 -0.37 -0.00    +0.000 A 
DOCKED: ATOM     30  C   UNL     1      33.971  19.007 125.092 -0.12 -0.00    +0.000 A 
DOCKED: ATOM     31  C   UNL     1      33.825  19.128 126.487 -0.23 -0.00    +0.000 A 
DOCKED: ATOM     32  C   UNL     1      33.803  17.979 127.307 -0.26 -0.00    +0.000 A 
DOCKED: ATOM     33  C   UNL     1      33.924  16.696 126.740 -0.25 -0.00    +0.000 A 
DOCKED: ATOM     34  H   UNL     1      34.186  14.560 124.948 -0.03 -0.00    +0.000 HD
DOCKED: ATOM     35  CM  UNL     1      34.170  16.563 124.239 -0.08 -0.00    +0.000 AC
DOCKED: ATOM     36  CM  UNL     1      33.948  17.856 125.925 -0.16 -0.00    +0.000 AC
DOCKED: ENDBRANCH  23  24
DOCKED: ENDBRANCH  22  23
DOCKED: ENDBRANCH   1  22
DOCKED: TORSDOF 11DOCKED: TER
DOCKED: ENDMDL
________________________________________________________________________________


	BEGINNING GENETIC ALGORITHM DOCKING 87 of 100
Run: 87 Seed: 1529312026 760683150 [ Run 87 of 100 GA/GALS ]
Beginning LAMARCKIAN GENETIC ALGORITHM (LGA), with a maximum of 2500000 energy evaluations.

Final-Value: -17.262


	FINAL GENETIC ALGORITHM DOCKED STATE
	_______________________________________________


Detailed state:  trans 37.132 16.819 122.582 quatxyzw 0.037430 0.000320 -0.762953 -0.645369 center 0.460 0.128 -0.007 ntor 11 28.6334 4.5306 58.4227 24.7088 2.2271 118.8554 178.4076 165.3667 163.7182 -152.2068 -6.0787
State:	 37.132  16.819 122.582   0.049  0.000 -0.999 -99.613     28.63    4.53   58.42   24.71    2.23  118.86  178.41  165.37  163.72 -152.21   -6.08

DOCKED: MODEL       87
DOCKED: USER    Run = 87
DOCKED: USER    DPF = ligand_dock.biased.dpf
DOCKED: USER  
DOCKED: USER    Estimated Free Energy of Binding    =  -10.19 kcal/mol  [=(1)+(2)+(3)-(4)]
DOCKED: USER    Estimated Inhibition Constant, Ki   =   34.15 nM (nanomolar)  [Temperature = 298.15 K]
DOCKED: USER    
DOCKED: USER    (1) Final Intermolecular Energy     =  -13.47 kcal/mol
DOCKED: USER        vdW + Hbond + desolv Energy     =  -13.47 kcal/mol
DOCKED: USER        Electrostatic Energy            =   +0.00 kcal/mol
DOCKED: USER    (2) Final Total Internal Energy     =   -3.79 kcal/mol
DOCKED: USER    (3) Torsional Free Energy           =   +3.28 kcal/mol
DOCKED: USER    (4) Unbound System's Energy  [=(2)] =   -3.79 kcal/mol
DOCKED: USER    
DOCKED: USER    
DOCKED: USER    NEWDPF move ligand.dum.pdbqt
DOCKED: USER    NEWDPF about 0.460000 0.128000 -0.007000
DOCKED: USER    NEWDPF tran0 37.132243 16.819282 122.582485
DOCKED: USER    NEWDPF quaternion0 0.037430 0.000320 -0.762953 -0.645369
DOCKED: USER    NEWDPF axisangle0 0.049000 0.000418 -0.998799 -99.613309
DOCKED: USER    NEWDPF quat0 0.049000 0.000418 -0.998799 -99.613309
DOCKED: USER    NEWDPF dihe0 28.63 4.53 58.42 24.71 2.23 118.86 178.41 165.37 163.72 -152.21 -6.08 
DOCKED: USER  keepresnum = 1 
DOCKED: USER  
DOCKED: REMARK  Name = 
DOCKED: REMARK  11 active torsions:
DOCKED: REMARK  status: ('A' for Active; 'I' for Inactive)
DOCKED: REMARK    1  A    between atoms: C_2  and  C_5
DOCKED: REMARK    2  A    between atoms: N_3  and  O_4
DOCKED: REMARK    3  A    between atoms: C_6  and  C_7
DOCKED: REMARK    4  A    between atoms: C_10  and  C_11
DOCKED: REMARK    5  A    between atoms: C_11  and  N_12
DOCKED: REMARK    6  A    between atoms: N_12  and  C_13
DOCKED: REMARK    7  A    between atoms: N_12  and  C_16
DOCKED: REMARK    8  A    between atoms: C_13  and  C_14
DOCKED: REMARK    9  A    between atoms: C_14  and  O_15
DOCKED: REMARK   10  A    between atoms: C_16  and  C_17
DOCKED: REMARK   11  A    between atoms: C_17  and  C_18
DOCKED: REMARK                            x       y       z     vdW  Elec       q    Type
DOCKED: REMARK                         _______ _______ _______ _____ _____    ______ ____
DOCKED: USER                              x       y       z     vdW  Elec       q    Type
DOCKED: USER                           _______ _______ _______ _____ _____    ______ ____
DOCKED: ROOT
DOCKED: ATOM      1  N   UNL     1      36.060  17.948 122.568 -0.20 -0.00    +0.000 N 
DOCKED: ATOM      2  H   UNL     1      36.112  17.405 121.706 +0.00 -0.00    +0.000 HD
DOCKED: ENDROOT
DOCKED: BRANCH   1   3
DOCKED: ATOM      3  C   UNL     1      36.984  17.344 123.551 -0.25 -0.00    +0.000 C 
DOCKED: BRANCH   3   7
DOCKED: ATOM      4  C   UNL     1      36.810  13.025 123.336 -0.55 -0.00    +0.000 A 
DOCKED: ATOM      5  C   UNL     1      37.813  13.733 122.654 -0.45 -0.00    +0.000 A 
DOCKED: ATOM      6  C   UNL     1      37.868  15.128 122.714 -0.34 -0.00    +0.000 A 
DOCKED: ATOM      7  C   UNL     1      36.923  15.842 123.464 -0.32 -0.00    +0.000 A 
DOCKED: ATOM      8  C   UNL     1      35.932  15.141 124.165 -0.40 -0.00    +0.000 A 
DOCKED: ATOM      9  C   UNL     1      35.874  13.745 124.106 -0.39 -0.00    +0.000 A 
DOCKED: ATOM     10  CM  UNL     1      36.870  14.436 123.407 +0.00 -0.00    +0.000 AC
DOCKED: BRANCH   4  11
DOCKED: ATOM     11  C   UNL     1      37.067  10.863 122.124 -0.54 -0.00    +0.000 C 
DOCKED: ATOM     12  C   UNL     1      36.802  11.543 123.249 -0.69 -0.00    +0.000 C 
DOCKED: BRANCH  10  13
DOCKED: ATOM     13  O   UNL     1      37.042   8.848 120.906 -2.71 -0.00    +0.000 OA
DOCKED: ATOM     14  C   UNL     1      37.059   9.387 122.044 -0.64 -0.00    +0.000 C 
DOCKED: ATOM     15  N   UNL     1      37.097   8.556 123.213 -0.69 -0.00    +0.000 N 
DOCKED: ATOM     16  H   UNL     1      37.214   8.964 124.101 -0.53 -0.00    +0.000 HD
DOCKED: BRANCH  14  16
DOCKED: ATOM     17  O   UNL     1      36.973   7.213 123.096 -2.00 -0.00    +0.000 OA
DOCKED: ATOM     18  H   UNL     1      37.311   6.931 122.231 -0.21 -0.00    +0.000 HD
DOCKED: ENDBRANCH  14  16
DOCKED: ENDBRANCH  10  13
DOCKED: ENDBRANCH   4  11
DOCKED: ENDBRANCH   3   7
DOCKED: ENDBRANCH   1   3
DOCKED: BRANCH   1  18
DOCKED: ATOM     19  C   UNL     1      34.650  17.843 123.013 -0.38 -0.00    +0.000 C 
DOCKED: BRANCH  18  19
DOCKED: ATOM     20  C   UNL     1      33.696  17.512 121.854 -0.29 -0.00    +0.000 C 
DOCKED: BRANCH  19  20
DOCKED: ATOM     21  O   UNL     1      34.217  17.950 120.628 -0.35 -0.00    +0.000 OA
DOCKED: ATOM     22  H   UNL     1      34.402  18.900 120.676 -0.02 -0.00    +0.000 HD
DOCKED: ENDBRANCH  19  20
DOCKED: ENDBRANCH  18  19
DOCKED: ENDBRANCH   1  18
DOCKED: BRANCH   1  22
DOCKED: ATOM     23  C   UNL     1      36.480  19.316 122.177 -0.17 -0.00    +0.000 C 
DOCKED: BRANCH  22  23
DOCKED: ATOM     24  C   UNL     1      37.289  19.378 120.866 -0.10 -0.00    +0.000 C 
DOCKED: BRANCH  23  24
DOCKED: ATOM     25  C   UNL     1      37.932  18.053 120.590 -0.06 -0.00    +0.000 A 
DOCKED: ATOM     26  C   UNL     1      39.183  17.628 121.029 -0.07 -0.00    +0.000 A 
DOCKED: ATOM     27  N   UNL     1      39.471  16.408 120.523 -0.13 -0.00    +0.000 N 
DOCKED: ATOM     28  C   UNL     1      38.420  16.065 119.757 -0.14 -0.00    +0.000 A 
DOCKED: ATOM     29  C   UNL     1      37.463  17.047 119.768 -0.10 -0.00    +0.000 A 
DOCKED: ATOM     30  C   UNL     1      36.287  16.937 119.025 -0.13 -0.00    +0.000 A 
DOCKED: ATOM     31  C   UNL     1      36.102  15.770 118.261 -0.17 -0.00    +0.000 A 
DOCKED: ATOM     32  C   UNL     1      37.084  14.756 118.253 -0.25 -0.00    +0.000 A 
DOCKED: ATOM     33  C   UNL     1      38.264  14.900 119.009 -0.19 -0.00    +0.000 A 
DOCKED: ATOM     34  H   UNL     1      40.285  15.878 120.683 -0.00 -0.00    +0.000 HD
DOCKED: ATOM     35  CM  UNL     1      38.525  17.020 120.339 +0.00 -0.00    +0.000 AC
DOCKED: ATOM     36  CM  UNL     1      37.270  15.912 119.013 +0.00 -0.00    +0.000 AC
DOCKED: ENDBRANCH  23  24
DOCKED: ENDBRANCH  22  23
DOCKED: ENDBRANCH   1  22
DOCKED: TORSDOF 11DOCKED: TER
DOCKED: ENDMDL
________________________________________________________________________________


	BEGINNING GENETIC ALGORITHM DOCKING 88 of 100
Run: 88 Seed: 861127225 843663330 [ Run 88 of 100 GA/GALS ]
Beginning LAMARCKIAN GENETIC ALGORITHM (LGA), with a maximum of 2500000 energy evaluations.

Final-Value: -15.666


	FINAL GENETIC ALGORITHM DOCKED STATE
	_______________________________________________


Detailed state:  trans 37.764 16.785 119.408 quatxyzw 0.109405 -0.164334 -0.719183 -0.666184 center 0.460 0.128 -0.007 ntor 11 3.2094 -7.5342 128.1493 32.4325 165.7786 172.1501 -180.0000 -180.0000 163.8904 -33.3201 -5.6665
State:	 37.764  16.785 119.408   0.147 -0.220 -0.964 -96.454      3.21   -7.53  128.15   32.43  165.78  172.15 -180.00 -180.00  163.89  -33.32   -5.67

DOCKED: MODEL       88
DOCKED: USER    Run = 88
DOCKED: USER    DPF = ligand_dock.biased.dpf
DOCKED: USER  
DOCKED: USER    Estimated Free Energy of Binding    =   -8.44 kcal/mol  [=(1)+(2)+(3)-(4)]
DOCKED: USER    Estimated Inhibition Constant, Ki   =  645.96 nM (nanomolar)  [Temperature = 298.15 K]
DOCKED: USER    
DOCKED: USER    (1) Final Intermolecular Energy     =  -11.73 kcal/mol
DOCKED: USER        vdW + Hbond + desolv Energy     =  -11.73 kcal/mol
DOCKED: USER        Electrostatic Energy            =   +0.00 kcal/mol
DOCKED: USER    (2) Final Total Internal Energy     =   -3.94 kcal/mol
DOCKED: USER    (3) Torsional Free Energy           =   +3.28 kcal/mol
DOCKED: USER    (4) Unbound System's Energy  [=(2)] =   -3.94 kcal/mol
DOCKED: USER    
DOCKED: USER    
DOCKED: USER    NEWDPF move ligand.dum.pdbqt
DOCKED: USER    NEWDPF about 0.460000 0.128000 -0.007000
DOCKED: USER    NEWDPF tran0 37.764243 16.785022 119.407640
DOCKED: USER    NEWDPF quaternion0 0.109405 -0.164334 -0.719183 -0.666184
DOCKED: USER    NEWDPF axisangle0 0.146697 -0.220350 -0.964327 -96.453545
DOCKED: USER    NEWDPF quat0 0.146697 -0.220350 -0.964327 -96.453545
DOCKED: USER    NEWDPF dihe0 3.21 -7.53 128.15 32.43 165.78 172.15 -180.00 -180.00 163.89 -33.32 -5.67 
DOCKED: USER  keepresnum = 1 
DOCKED: USER  
DOCKED: REMARK  Name = 
DOCKED: REMARK  11 active torsions:
DOCKED: REMARK  status: ('A' for Active; 'I' for Inactive)
DOCKED: REMARK    1  A    between atoms: C_2  and  C_5
DOCKED: REMARK    2  A    between atoms: N_3  and  O_4
DOCKED: REMARK    3  A    between atoms: C_6  and  C_7
DOCKED: REMARK    4  A    between atoms: C_10  and  C_11
DOCKED: REMARK    5  A    between atoms: C_11  and  N_12
DOCKED: REMARK    6  A    between atoms: N_12  and  C_13
DOCKED: REMARK    7  A    between atoms: N_12  and  C_16
DOCKED: REMARK    8  A    between atoms: C_13  and  C_14
DOCKED: REMARK    9  A    between atoms: C_14  and  O_15
DOCKED: REMARK   10  A    between atoms: C_16  and  C_17
DOCKED: REMARK   11  A    between atoms: C_17  and  C_18
DOCKED: REMARK                            x       y       z     vdW  Elec       q    Type
DOCKED: REMARK                         _______ _______ _______ _____ _____    ______ ____
DOCKED: USER                              x       y       z     vdW  Elec       q    Type
DOCKED: USER                           _______ _______ _______ _____ _____    ______ ____
DOCKED: ROOT
DOCKED: ATOM      1  N   UNL     1      36.702  17.786 118.866 -0.08 -0.00    +0.000 N 
DOCKED: ATOM      2  H   UNL     1      37.059  17.132 118.169 +0.00 -0.00    +0.000 HD
DOCKED: ENDROOT
DOCKED: BRANCH   1   3
DOCKED: ATOM      3  C   UNL     1      37.283  17.427 120.177 -0.11 -0.00    +0.000 C 
DOCKED: BRANCH   3   7
DOCKED: ATOM      4  C   UNL     1      37.409  13.120 120.584 -0.42 -0.00    +0.000 A 
DOCKED: ATOM      5  C   UNL     1      37.146  13.934 121.698 -0.35 -0.00    +0.000 A 
DOCKED: ATOM      6  C   UNL     1      37.113  15.325 121.573 -0.24 -0.00    +0.000 A 
DOCKED: ATOM      7  C   UNL     1      37.336  15.929 120.327 -0.17 -0.00    +0.000 A 
DOCKED: ATOM      8  C   UNL     1      37.578  15.122 119.207 -0.21 -0.00    +0.000 A 
DOCKED: ATOM      9  C   UNL     1      37.613  13.730 119.330 -0.33 -0.00    +0.000 A 
DOCKED: ATOM     10  CM  UNL     1      37.366  14.527 120.453 +0.00 -0.00    +0.000 AC
DOCKED: BRANCH   4  11
DOCKED: ATOM     11  C   UNL     1      36.956  11.031 121.864 -0.55 -0.00    +0.000 C 
DOCKED: ATOM     12  C   UNL     1      37.423  11.647 120.769 -0.49 -0.00    +0.000 C 
DOCKED: BRANCH  10  13
DOCKED: ATOM     13  O   UNL     1      36.864   8.835 121.020 -2.65 -0.00    +0.000 OA
DOCKED: ATOM     14  C   UNL     1      36.972   9.563 122.041 -0.63 -0.00    +0.000 C 
DOCKED: ATOM     15  N   UNL     1      37.134   8.948 123.326 -0.60 -0.00    +0.000 N 
DOCKED: ATOM     16  H   UNL     1      37.323   9.504 124.116 -0.58 -0.00    +0.000 HD
DOCKED: BRANCH  14  16
DOCKED: ATOM     17  O   UNL     1      37.029   7.604 123.455 -2.22 -0.00    +0.000 OA
DOCKED: ATOM     18  H   UNL     1      36.893   7.206 122.581 -0.07 -0.00    +0.000 HD
DOCKED: ENDBRANCH  14  16
DOCKED: ENDBRANCH  10  13
DOCKED: ENDBRANCH   4  11
DOCKED: ENDBRANCH   3   7
DOCKED: ENDBRANCH   1   3
DOCKED: BRANCH   1  18
DOCKED: ATOM     19  C   UNL     1      35.231  17.605 118.857 -0.17 -0.00    +0.000 C 
DOCKED: BRANCH  18  19
DOCKED: ATOM     20  C   UNL     1      34.745  16.844 117.613 -0.14 -0.00    +0.000 C 
DOCKED: BRANCH  19  20
DOCKED: ATOM     21  O   UNL     1      35.570  15.743 117.338 -0.19 -0.00    +0.000 OA
DOCKED: ATOM     22  H   UNL     1      36.441  16.056 117.050 +0.00 -0.00    +0.000 HD
DOCKED: ENDBRANCH  19  20
DOCKED: ENDBRANCH  18  19
DOCKED: ENDBRANCH   1  18
DOCKED: BRANCH   1  22
DOCKED: ATOM     23  C   UNL     1      37.159  19.118 118.401 -0.04 -0.00    +0.000 C 
DOCKED: BRANCH  22  23
DOCKED: ATOM     24  C   UNL     1      38.345  19.071 117.417 -0.01 -0.00    +0.000 C 
DOCKED: BRANCH  23  24
DOCKED: ATOM     25  C   UNL     1      38.886  17.677 117.323 -0.04 -0.00    +0.000 A 
DOCKED: ATOM     26  C   UNL     1      39.853  17.103 118.144 -0.07 -0.00    +0.000 A 
DOCKED: ATOM     27  N   UNL     1      40.154  15.856 117.717 -0.16 -0.00    +0.000 N 
DOCKED: ATOM     28  C   UNL     1      39.397  15.642 116.627 -0.18 -0.00    +0.000 A 
DOCKED: ATOM     29  C   UNL     1      38.615  16.734 116.351 -0.08 -0.00    +0.000 A 
DOCKED: ATOM     30  C   UNL     1      37.760  16.767 115.249 -0.07 -0.00    +0.000 A 
DOCKED: ATOM     31  C   UNL     1      37.714  15.630 114.421 -0.14 -0.00    +0.000 A 
DOCKED: ATOM     32  C   UNL     1      38.515  14.503 114.707 -0.29 -0.00    +0.000 A 
DOCKED: ATOM     33  C   UNL     1      39.373  14.503 115.824 -0.33 -0.00    +0.000 A 
DOCKED: ATOM     34  H   UNL     1      40.797  15.231 118.123 -0.10 -0.00    +0.000 HD
DOCKED: ATOM     35  CM  UNL     1      39.406  16.578 117.248 +0.00 -0.00    +0.000 AC
DOCKED: ATOM     36  CM  UNL     1      38.562  15.629 115.530 +0.00 -0.00    +0.000 AC
DOCKED: ENDBRANCH  23  24
DOCKED: ENDBRANCH  22  23
DOCKED: ENDBRANCH   1  22
DOCKED: TORSDOF 11DOCKED: TER
DOCKED: ENDMDL
________________________________________________________________________________


	BEGINNING GENETIC ALGORITHM DOCKING 89 of 100
Run: 89 Seed: 1657357201 758008107 [ Run 89 of 100 GA/GALS ]
Beginning LAMARCKIAN GENETIC ALGORITHM (LGA), with a maximum of 2500000 energy evaluations.

Final-Value: -17.509


	FINAL GENETIC ALGORITHM DOCKED STATE
	_______________________________________________


Detailed state:  trans 37.313 18.167 123.686 quatxyzw -0.730531 -0.220166 -0.443869 0.469927 center 0.460 0.128 -0.007 ntor 11 0.9524 -97.7267 53.5294 49.2357 8.7813 117.6967 167.7043 125.2220 -179.8383 -153.2293 165.6613
State:	 37.313  18.167 123.686  -0.828 -0.249 -0.503 123.941      0.95  -97.73   53.53   49.24    8.78  117.70  167.70  125.22 -179.84 -153.23  165.66

DOCKED: MODEL       89
DOCKED: USER    Run = 89
DOCKED: USER    DPF = ligand_dock.biased.dpf
DOCKED: USER  
DOCKED: USER    Estimated Free Energy of Binding    =  -10.83 kcal/mol  [=(1)+(2)+(3)-(4)]
DOCKED: USER    Estimated Inhibition Constant, Ki   =   11.45 nM (nanomolar)  [Temperature = 298.15 K]
DOCKED: USER    
DOCKED: USER    (1) Final Intermolecular Energy     =  -14.11 kcal/mol
DOCKED: USER        vdW + Hbond + desolv Energy     =  -14.11 kcal/mol
DOCKED: USER        Electrostatic Energy            =   +0.00 kcal/mol
DOCKED: USER    (2) Final Total Internal Energy     =   -3.39 kcal/mol
DOCKED: USER    (3) Torsional Free Energy           =   +3.28 kcal/mol
DOCKED: USER    (4) Unbound System's Energy  [=(2)] =   -3.39 kcal/mol
DOCKED: USER    
DOCKED: USER    
DOCKED: USER    NEWDPF move ligand.dum.pdbqt
DOCKED: USER    NEWDPF about 0.460000 0.128000 -0.007000
DOCKED: USER    NEWDPF tran0 37.313128 18.166707 123.685726
DOCKED: USER    NEWDPF quaternion0 -0.730531 -0.220166 -0.443869 0.469927
DOCKED: USER    NEWDPF axisangle0 -0.827605 -0.249421 -0.502851 123.940883
DOCKED: USER    NEWDPF quat0 -0.827605 -0.249421 -0.502851 123.940883
DOCKED: USER    NEWDPF dihe0 0.95 -97.73 53.53 49.24 8.78 117.70 167.70 125.22 -179.84 -153.23 165.66 
DOCKED: USER  keepresnum = 1 
DOCKED: USER  
DOCKED: REMARK  Name = 
DOCKED: REMARK  11 active torsions:
DOCKED: REMARK  status: ('A' for Active; 'I' for Inactive)
DOCKED: REMARK    1  A    between atoms: C_2  and  C_5
DOCKED: REMARK    2  A    between atoms: N_3  and  O_4
DOCKED: REMARK    3  A    between atoms: C_6  and  C_7
DOCKED: REMARK    4  A    between atoms: C_10  and  C_11
DOCKED: REMARK    5  A    between atoms: C_11  and  N_12
DOCKED: REMARK    6  A    between atoms: N_12  and  C_13
DOCKED: REMARK    7  A    between atoms: N_12  and  C_16
DOCKED: REMARK    8  A    between atoms: C_13  and  C_14
DOCKED: REMARK    9  A    between atoms: C_14  and  O_15
DOCKED: REMARK   10  A    between atoms: C_16  and  C_17
DOCKED: REMARK   11  A    between atoms: C_17  and  C_18
DOCKED: REMARK                            x       y       z     vdW  Elec       q    Type
DOCKED: REMARK                         _______ _______ _______ _____ _____    ______ ____
DOCKED: USER                              x       y       z     vdW  Elec       q    Type
DOCKED: USER                           _______ _______ _______ _____ _____    ______ ____
DOCKED: ROOT
DOCKED: ATOM      1  N   UNL     1      36.948  18.055 122.176 -0.13 -0.00    +0.000 N 
DOCKED: ATOM      2  H   UNL     1      36.517  18.844 122.657 +0.00 -0.00    +0.000 HD
DOCKED: ENDROOT
DOCKED: BRANCH   1   3
DOCKED: ATOM      3  C   UNL     1      37.864  17.382 123.123 -0.21 -0.00    +0.000 C 
DOCKED: BRANCH   3   7
DOCKED: ATOM      4  C   UNL     1      37.187  13.107 123.104 -0.53 -0.00    +0.000 A 
DOCKED: ATOM      5  C   UNL     1      38.201  13.672 122.312 -0.39 -0.00    +0.000 A 
DOCKED: ATOM      6  C   UNL     1      38.417  15.053 122.308 -0.34 -0.00    +0.000 A 
DOCKED: ATOM      7  C   UNL     1      37.627  15.895 123.104 -0.29 -0.00    +0.000 A 
DOCKED: ATOM      8  C   UNL     1      36.628  15.336 123.913 -0.27 -0.00    +0.000 A 
DOCKED: ATOM      9  C   UNL     1      36.409  13.955 123.917 -0.39 -0.00    +0.000 A 
DOCKED: ATOM     10  CM  UNL     1      37.412  14.503 123.110 +0.00 -0.00    +0.000 AC
DOCKED: BRANCH   4  11
DOCKED: ATOM     11  C   UNL     1      37.073  10.895 121.963 -0.53 -0.00    +0.000 C 
DOCKED: ATOM     12  C   UNL     1      37.006  11.634 123.079 -0.66 -0.00    +0.000 C 
DOCKED: BRANCH  10  13
DOCKED: ATOM     13  O   UNL     1      36.820   8.846 120.832 -2.65 -0.00    +0.000 OA
DOCKED: ATOM     14  C   UNL     1      36.892   9.429 121.946 -0.66 -0.00    +0.000 C 
DOCKED: ATOM     15  N   UNL     1      36.825   8.651 123.149 -0.69 -0.00    +0.000 N 
DOCKED: ATOM     16  H   UNL     1      36.983   9.080 124.020 -0.50 -0.00    +0.000 HD
DOCKED: BRANCH  14  16
DOCKED: ATOM     17  O   UNL     1      36.545   7.327 123.088 -1.87 -0.00    +0.000 OA
DOCKED: ATOM     18  H   UNL     1      36.432   7.063 122.162 -0.04 -0.00    +0.000 HD
DOCKED: ENDBRANCH  14  16
DOCKED: ENDBRANCH  10  13
DOCKED: ENDBRANCH   4  11
DOCKED: ENDBRANCH   3   7
DOCKED: ENDBRANCH   1   3
DOCKED: BRANCH   1  18
DOCKED: ATOM     19  C   UNL     1      37.688  18.647 121.035 -0.08 -0.00    +0.000 C 
DOCKED: BRANCH  18  19
DOCKED: ATOM     20  C   UNL     1      37.576  20.180 121.001 -0.09 -0.00    +0.000 C 
DOCKED: BRANCH  19  20
DOCKED: ATOM     21  O   UNL     1      36.351  20.610 121.529 -0.62 -0.00    +0.000 OA
DOCKED: ATOM     22  H   UNL     1      36.152  21.501 121.202 -0.08 +0.00    +0.000 HD
DOCKED: ENDBRANCH  19  20
DOCKED: ENDBRANCH  18  19
DOCKED: ENDBRANCH   1  18
DOCKED: BRANCH   1  22
DOCKED: ATOM     23  C   UNL     1      35.813  17.185 121.786 -0.26 -0.00    +0.000 C 
DOCKED: BRANCH  22  23
DOCKED: ATOM     24  C   UNL     1      34.440  17.675 122.288 -0.39 -0.00    +0.000 C 
DOCKED: BRANCH  23  24
DOCKED: ATOM     25  C   UNL     1      34.404  17.674 123.786 -0.36 -0.00    +0.000 A 
DOCKED: ATOM     26  C   UNL     1      33.837  16.700 124.603 -0.18 -0.00    +0.000 A 
DOCKED: ATOM     27  N   UNL     1      33.920  17.067 125.902 -0.42 -0.00    +0.000 N 
DOCKED: ATOM     28  C   UNL     1      34.521  18.269 125.911 -0.28 -0.00    +0.000 A 
DOCKED: ATOM     29  C   UNL     1      34.826  18.676 124.638 -0.26 -0.00    +0.000 A 
DOCKED: ATOM     30  C   UNL     1      35.431  19.907 124.382 -0.11 -0.00    +0.000 A 
DOCKED: ATOM     31  C   UNL     1      35.734  20.729 125.484 -0.13 -0.00    +0.000 A 
DOCKED: ATOM     32  C   UNL     1      35.425  20.309 126.797 -0.10 -0.00    +0.000 A 
DOCKED: ATOM     33  C   UNL     1      34.808  19.063 127.021 -0.16 -0.00    +0.000 A 
DOCKED: ATOM     34  H   UNL     1      33.605  16.557 126.682 -0.03 -0.00    +0.000 HD
DOCKED: ATOM     35  CM  UNL     1      34.289  17.658 124.998 -0.37 -0.00    +0.000 AC
DOCKED: ATOM     36  CM  UNL     1      35.125  19.492 125.706 -0.05 -0.00    +0.000 AC
DOCKED: ENDBRANCH  23  24
DOCKED: ENDBRANCH  22  23
DOCKED: ENDBRANCH   1  22
DOCKED: TORSDOF 11DOCKED: TER
DOCKED: ENDMDL
________________________________________________________________________________


	BEGINNING GENETIC ALGORITHM DOCKING 90 of 100
Run: 90 Seed: 1474409289 1513755069 [ Run 90 of 100 GA/GALS ]
Beginning LAMARCKIAN GENETIC ALGORITHM (LGA), with a maximum of 2500000 energy evaluations.

Final-Value: -17.291


	FINAL GENETIC ALGORITHM DOCKED STATE
	_______________________________________________


Detailed state:  trans 35.969 16.754 121.903 quatxyzw -0.095317 -0.292346 -0.933897 -0.182442 center 0.460 0.128 -0.007 ntor 11 26.9069 17.1605 59.2396 52.3266 25.2900 -82.9874 -49.5564 112.7923 -136.3341 -11.9272 70.6980
State:	 35.969  16.754 121.903  -0.097 -0.297 -0.950 -158.976     26.91   17.16   59.24   52.33   25.29  -82.99  -49.56  112.79 -136.33  -11.93   70.70

DOCKED: MODEL       90
DOCKED: USER    Run = 90
DOCKED: USER    DPF = ligand_dock.biased.dpf
DOCKED: USER  
DOCKED: USER    Estimated Free Energy of Binding    =  -10.67 kcal/mol  [=(1)+(2)+(3)-(4)]
DOCKED: USER    Estimated Inhibition Constant, Ki   =   15.16 nM (nanomolar)  [Temperature = 298.15 K]
DOCKED: USER    
DOCKED: USER    (1) Final Intermolecular Energy     =  -13.95 kcal/mol
DOCKED: USER        vdW + Hbond + desolv Energy     =  -13.95 kcal/mol
DOCKED: USER        Electrostatic Energy            =   +0.00 kcal/mol
DOCKED: USER    (2) Final Total Internal Energy     =   -3.34 kcal/mol
DOCKED: USER    (3) Torsional Free Energy           =   +3.28 kcal/mol
DOCKED: USER    (4) Unbound System's Energy  [=(2)] =   -3.34 kcal/mol
DOCKED: USER    
DOCKED: USER    
DOCKED: USER    NEWDPF move ligand.dum.pdbqt
DOCKED: USER    NEWDPF about 0.460000 0.128000 -0.007000
DOCKED: USER    NEWDPF tran0 35.969077 16.753552 121.903450
DOCKED: USER    NEWDPF quaternion0 -0.095317 -0.292346 -0.933897 -0.182442
DOCKED: USER    NEWDPF axisangle0 -0.096944 -0.297337 -0.949838 -158.975881
DOCKED: USER    NEWDPF quat0 -0.096944 -0.297337 -0.949838 -158.975881
DOCKED: USER    NEWDPF dihe0 26.91 17.16 59.24 52.33 25.29 -82.99 -49.56 112.79 -136.33 -11.93 70.70 
DOCKED: USER  keepresnum = 1 
DOCKED: USER  
DOCKED: REMARK  Name = 
DOCKED: REMARK  11 active torsions:
DOCKED: REMARK  status: ('A' for Active; 'I' for Inactive)
DOCKED: REMARK    1  A    between atoms: C_2  and  C_5
DOCKED: REMARK    2  A    between atoms: N_3  and  O_4
DOCKED: REMARK    3  A    between atoms: C_6  and  C_7
DOCKED: REMARK    4  A    between atoms: C_10  and  C_11
DOCKED: REMARK    5  A    between atoms: C_11  and  N_12
DOCKED: REMARK    6  A    between atoms: N_12  and  C_13
DOCKED: REMARK    7  A    between atoms: N_12  and  C_16
DOCKED: REMARK    8  A    between atoms: C_13  and  C_14
DOCKED: REMARK    9  A    between atoms: C_14  and  O_15
DOCKED: REMARK   10  A    between atoms: C_16  and  C_17
DOCKED: REMARK   11  A    between atoms: C_17  and  C_18
DOCKED: REMARK                            x       y       z     vdW  Elec       q    Type
DOCKED: REMARK                         _______ _______ _______ _____ _____    ______ ____
DOCKED: USER                              x       y       z     vdW  Elec       q    Type
DOCKED: USER                           _______ _______ _______ _____ _____    ______ ____
DOCKED: ROOT
DOCKED: ATOM      1  N   UNL     1      36.331  17.964 120.993 -0.15 -0.00    +0.000 N 
DOCKED: ATOM      2  H   UNL     1      35.784  17.237 120.531 -0.01 -0.00    +0.000 HD
DOCKED: ENDROOT
DOCKED: BRANCH   1   3
DOCKED: ATOM      3  C   UNL     1      36.464  17.604 122.421 -0.22 -0.00    +0.000 C 
DOCKED: BRANCH   3   7
DOCKED: ATOM      4  C   UNL     1      36.915  13.316 122.804 -0.50 -0.00    +0.000 A 
DOCKED: ATOM      5  C   UNL     1      35.873  13.985 123.467 -0.48 -0.00    +0.000 A 
DOCKED: ATOM      6  C   UNL     1      35.729  15.371 123.353 -0.41 -0.00    +0.000 A 
DOCKED: ATOM      7  C   UNL     1      36.622  16.113 122.566 -0.27 -0.00    +0.000 A 
DOCKED: ATOM      8  C   UNL     1      37.651  15.449 121.886 -0.26 -0.00    +0.000 A 
DOCKED: ATOM      9  C   UNL     1      37.798  14.063 121.999 -0.40 -0.00    +0.000 A 
DOCKED: ATOM     10  CM  UNL     1      36.765  14.717 122.679 +0.00 -0.00    +0.000 AC
DOCKED: BRANCH   4  11
DOCKED: ATOM     11  C   UNL     1      36.912  10.985 121.924 -0.57 -0.00    +0.000 C 
DOCKED: ATOM     12  C   UNL     1      37.017  11.843 122.949 -0.65 -0.00    +0.000 C 
DOCKED: BRANCH  10  13
DOCKED: ATOM     13  O   UNL     1      37.065   8.809 121.037 -2.66 -0.00    +0.000 OA
DOCKED: ATOM     14  C   UNL     1      37.015   9.518 122.076 -0.63 -0.00    +0.000 C 
DOCKED: ATOM     15  N   UNL     1      37.088   8.884 123.361 -0.62 -0.00    +0.000 N 
DOCKED: ATOM     16  H   UNL     1      37.154   9.432 124.175 -0.58 -0.00    +0.000 HD
DOCKED: BRANCH  14  16
DOCKED: ATOM     17  O   UNL     1      37.067   7.533 123.455 -2.20 -0.00    +0.000 OA
DOCKED: ATOM     18  H   UNL     1      37.419   7.148 122.637 -0.22 -0.00    +0.000 HD
DOCKED: ENDBRANCH  14  16
DOCKED: ENDBRANCH  10  13
DOCKED: ENDBRANCH   4  11
DOCKED: ENDBRANCH   3   7
DOCKED: ENDBRANCH   1   3
DOCKED: BRANCH   1  18
DOCKED: ATOM     19  C   UNL     1      35.549  19.212 120.820 -0.16 -0.00    +0.000 C 
DOCKED: BRANCH  18  19
DOCKED: ATOM     20  C   UNL     1      34.196  18.963 120.135 -0.27 -0.00    +0.000 C 
DOCKED: BRANCH  19  20
DOCKED: ATOM     21  O   UNL     1      34.234  17.806 119.344 -0.23 -0.00    +0.000 OA
DOCKED: ATOM     22  H   UNL     1      35.061  17.786 118.839 -0.00 -0.00    +0.000 HD
DOCKED: ENDBRANCH  19  20
DOCKED: ENDBRANCH  18  19
DOCKED: ENDBRANCH   1  18
DOCKED: BRANCH   1  22
DOCKED: ATOM     23  C   UNL     1      37.637  17.956 120.292 -0.08 -0.00    +0.000 C 
DOCKED: BRANCH  22  23
DOCKED: ATOM     24  C   UNL     1      37.534  17.760 118.767 -0.06 -0.00    +0.000 C 
DOCKED: BRANCH  23  24
DOCKED: ATOM     25  C   UNL     1      37.233  16.328 118.446 -0.12 -0.00    +0.000 A 
DOCKED: ATOM     26  C   UNL     1      36.314  15.506 119.094 -0.13 -0.00    +0.000 A 
DOCKED: ATOM     27  N   UNL     1      36.365  14.253 118.590 -0.32 -0.00    +0.000 N 
DOCKED: ATOM     28  C   UNL     1      37.316  14.271 117.641 -0.30 -0.00    +0.000 A 
DOCKED: ATOM     29  C   UNL     1      37.873  15.519 117.528 -0.15 -0.00    +0.000 A 
DOCKED: ATOM     30  C   UNL     1      38.906  15.787 116.628 -0.15 -0.00    +0.000 A 
DOCKED: ATOM     31  C   UNL     1      39.360  14.728 115.819 -0.31 -0.00    +0.000 A 
DOCKED: ATOM     32  C   UNL     1      38.783  13.444 115.931 -0.41 -0.00    +0.000 A 
DOCKED: ATOM     33  C   UNL     1      37.748  13.205 116.854 -0.36 -0.00    +0.000 A 
DOCKED: ATOM     34  H   UNL     1      35.816  13.482 118.863 -0.06 -0.00    +0.000 HD
DOCKED: ATOM     35  CM  UNL     1      37.000  15.146 118.270 +0.00 -0.00    +0.000 AC
DOCKED: ATOM     36  CM  UNL     1      38.331  14.492 116.733 +0.00 -0.00    +0.000 AC
DOCKED: ENDBRANCH  23  24
DOCKED: ENDBRANCH  22  23
DOCKED: ENDBRANCH   1  22
DOCKED: TORSDOF 11DOCKED: TER
DOCKED: ENDMDL
________________________________________________________________________________


	BEGINNING GENETIC ALGORITHM DOCKING 91 of 100
Run: 91 Seed: 1704380632 96039806 [ Run 91 of 100 GA/GALS ]
Beginning LAMARCKIAN GENETIC ALGORITHM (LGA), with a maximum of 2500000 energy evaluations.

Final-Value: -17.167


	FINAL GENETIC ALGORITHM DOCKED STATE
	_______________________________________________


Detailed state:  trans 36.707 16.393 123.099 quatxyzw -0.020246 -0.039290 -0.914588 -0.401965 center 0.460 0.128 -0.007 ntor 11 31.3627 -15.0665 69.0302 79.4442 -145.2846 -83.6450 -51.7346 -124.1311 159.4068 180.0000 36.0808
State:	 36.707  16.393 123.099  -0.022 -0.043 -0.999 -132.598     31.36  -15.07   69.03   79.44 -145.28  -83.64  -51.73 -124.13  159.41  180.00   36.08

DOCKED: MODEL       91
DOCKED: USER    Run = 91
DOCKED: USER    DPF = ligand_dock.biased.dpf
DOCKED: USER  
DOCKED: USER    Estimated Free Energy of Binding    =   -9.97 kcal/mol  [=(1)+(2)+(3)-(4)]
DOCKED: USER    Estimated Inhibition Constant, Ki   =   49.40 nM (nanomolar)  [Temperature = 298.15 K]
DOCKED: USER    
DOCKED: USER    (1) Final Intermolecular Energy     =  -13.25 kcal/mol
DOCKED: USER        vdW + Hbond + desolv Energy     =  -13.25 kcal/mol
DOCKED: USER        Electrostatic Energy            =   +0.00 kcal/mol
DOCKED: USER    (2) Final Total Internal Energy     =   -3.92 kcal/mol
DOCKED: USER    (3) Torsional Free Energy           =   +3.28 kcal/mol
DOCKED: USER    (4) Unbound System's Energy  [=(2)] =   -3.92 kcal/mol
DOCKED: USER    
DOCKED: USER    
DOCKED: USER    NEWDPF move ligand.dum.pdbqt
DOCKED: USER    NEWDPF about 0.460000 0.128000 -0.007000
DOCKED: USER    NEWDPF tran0 36.706768 16.392707 123.099009
DOCKED: USER    NEWDPF quaternion0 -0.020246 -0.039290 -0.914588 -0.401965
DOCKED: USER    NEWDPF axisangle0 -0.022111 -0.042909 -0.998834 -132.597874
DOCKED: USER    NEWDPF quat0 -0.022111 -0.042909 -0.998834 -132.597874
DOCKED: USER    NEWDPF dihe0 31.36 -15.07 69.03 79.44 -145.28 -83.64 -51.73 -124.13 159.41 180.00 36.08 
DOCKED: USER  keepresnum = 1 
DOCKED: USER  
DOCKED: REMARK  Name = 
DOCKED: REMARK  11 active torsions:
DOCKED: REMARK  status: ('A' for Active; 'I' for Inactive)
DOCKED: REMARK    1  A    between atoms: C_2  and  C_5
DOCKED: REMARK    2  A    between atoms: N_3  and  O_4
DOCKED: REMARK    3  A    between atoms: C_6  and  C_7
DOCKED: REMARK    4  A    between atoms: C_10  and  C_11
DOCKED: REMARK    5  A    between atoms: C_11  and  N_12
DOCKED: REMARK    6  A    between atoms: N_12  and  C_13
DOCKED: REMARK    7  A    between atoms: N_12  and  C_16
DOCKED: REMARK    8  A    between atoms: C_13  and  C_14
DOCKED: REMARK    9  A    between atoms: C_14  and  O_15
DOCKED: REMARK   10  A    between atoms: C_16  and  C_17
DOCKED: REMARK   11  A    between atoms: C_17  and  C_18
DOCKED: REMARK                            x       y       z     vdW  Elec       q    Type
DOCKED: REMARK                         _______ _______ _______ _____ _____    ______ ____
DOCKED: USER                              x       y       z     vdW  Elec       q    Type
DOCKED: USER                           _______ _______ _______ _____ _____    ______ ____
DOCKED: ROOT
DOCKED: ATOM      1  N   UNL     1      36.421  17.917 122.957 -0.18 -0.00    +0.000 N 
DOCKED: ATOM      2  H   UNL     1      36.102  17.352 122.169 +0.00 -0.00    +0.000 HD
DOCKED: ENDROOT
DOCKED: BRANCH   1   3
DOCKED: ATOM      3  C   UNL     1      36.945  17.004 123.996 -0.24 -0.00    +0.000 C 
DOCKED: BRANCH   3   7
DOCKED: ATOM      4  C   UNL     1      36.763  12.897 122.646 -0.52 -0.00    +0.000 A 
DOCKED: ATOM      5  C   UNL     1      37.658  13.803 122.053 -0.42 -0.00    +0.000 A 
DOCKED: ATOM      6  C   UNL     1      37.714  15.133 122.480 -0.33 -0.00    +0.000 A 
DOCKED: ATOM      7  C   UNL     1      36.879  15.579 123.515 -0.33 -0.00    +0.000 A 
DOCKED: ATOM      8  C   UNL     1      35.999  14.675 124.125 -0.41 -0.00    +0.000 A 
DOCKED: ATOM      9  C   UNL     1      35.940  13.344 123.698 -0.52 -0.00    +0.000 A 
DOCKED: ATOM     10  CM  UNL     1      36.825  14.239 123.086 +0.00 -0.00    +0.000 AC
DOCKED: BRANCH   4  11
DOCKED: ATOM     11  C   UNL     1      37.064  10.440 122.929 -0.59 -0.00    +0.000 C 
DOCKED: ATOM     12  C   UNL     1      36.751  11.493 122.162 -0.62 -0.00    +0.000 C 
DOCKED: BRANCH  10  13
DOCKED: ATOM     13  O   UNL     1      37.068   8.844 121.198 -2.69 -0.00    +0.000 OA
DOCKED: ATOM     14  C   UNL     1      37.049   9.045 122.441 -0.67 -0.00    +0.000 C 
DOCKED: ATOM     15  N   UNL     1      37.042   7.921 123.332 -0.75 -0.00    +0.000 N 
DOCKED: ATOM     16  H   UNL     1      37.132   8.063 124.302 -0.35 -0.00    +0.000 HD
DOCKED: BRANCH  14  16
DOCKED: ATOM     17  O   UNL     1      36.915   6.665 122.841 -1.41 -0.00    +0.000 OA
DOCKED: ATOM     18  H   UNL     1      37.318   6.620 121.961 -0.43 -0.00    +0.000 HD
DOCKED: ENDBRANCH  14  16
DOCKED: ENDBRANCH  10  13
DOCKED: ENDBRANCH   4  11
DOCKED: ENDBRANCH   3   7
DOCKED: ENDBRANCH   1   3
DOCKED: BRANCH   1  18
DOCKED: ATOM     19  C   UNL     1      35.220  18.645 123.430 -0.25 -0.00    +0.000 C 
DOCKED: BRANCH  18  19
DOCKED: ATOM     20  C   UNL     1      33.928  17.841 123.216 -0.29 -0.00    +0.000 C 
DOCKED: BRANCH  19  20
DOCKED: ATOM     21  O   UNL     1      34.134  16.778 122.324 -0.45 -0.00    +0.000 OA
DOCKED: ATOM     22  H   UNL     1      34.179  17.120 121.418 -0.03 -0.00    +0.000 HD
DOCKED: ENDBRANCH  19  20
DOCKED: ENDBRANCH  18  19
DOCKED: ENDBRANCH   1  18
DOCKED: BRANCH   1  22
DOCKED: ATOM     23  C   UNL     1      37.483  18.785 122.392 -0.12 -0.00    +0.000 C 
DOCKED: BRANCH  22  23
DOCKED: ATOM     24  C   UNL     1      38.162  18.213 121.131 -0.07 -0.00    +0.000 C 
DOCKED: BRANCH  23  24
DOCKED: ATOM     25  C   UNL     1      37.129  17.727 120.161 -0.09 -0.00    +0.000 A 
DOCKED: ATOM     26  C   UNL     1      35.926  18.353 119.844 -0.15 -0.00    +0.000 A 
DOCKED: ATOM     27  N   UNL     1      35.209  17.590 118.989 -0.16 -0.00    +0.000 N 
DOCKED: ATOM     28  C   UNL     1      35.940  16.482 118.775 -0.13 -0.00    +0.000 A 
DOCKED: ATOM     29  C   UNL     1      37.116  16.527 119.478 -0.13 -0.00    +0.000 A 
DOCKED: ATOM     30  C   UNL     1      38.035  15.478 119.443 -0.18 -0.00    +0.000 A 
DOCKED: ATOM     31  C   UNL     1      37.723  14.360 118.646 -0.27 -0.00    +0.000 A 
DOCKED: ATOM     32  C   UNL     1      36.514  14.316 117.917 -0.32 -0.00    +0.000 A 
DOCKED: ATOM     33  C   UNL     1      35.604  15.388 117.979 -0.14 -0.00    +0.000 A 
DOCKED: ATOM     34  H   UNL     1      34.329  17.803 118.601 -0.01 -0.00    +0.000 HD
DOCKED: ATOM     35  CM  UNL     1      36.230  17.344 119.434 +0.00 -0.00    +0.000 AC
DOCKED: ATOM     36  CM  UNL     1      36.822  15.425 118.706 +0.00 -0.00    +0.000 AC
DOCKED: ENDBRANCH  23  24
DOCKED: ENDBRANCH  22  23
DOCKED: ENDBRANCH   1  22
DOCKED: TORSDOF 11DOCKED: TER
DOCKED: ENDMDL
________________________________________________________________________________


	BEGINNING GENETIC ALGORITHM DOCKING 92 of 100
Run: 92 Seed: 1837850271 70147352 [ Run 92 of 100 GA/GALS ]
Beginning LAMARCKIAN GENETIC ALGORITHM (LGA), with a maximum of 2500000 energy evaluations.

Final-Value: -17.961


	FINAL GENETIC ALGORITHM DOCKED STATE
	_______________________________________________


Detailed state:  trans 37.768 14.333 121.924 quatxyzw -0.868061 0.494434 0.006687 -0.044280 center 0.460 0.128 -0.007 ntor 11 5.3750 -77.9743 103.2861 65.6441 68.4540 -27.1950 152.1102 -53.9353 82.0596 153.9508 42.6480
State:	 37.768  14.333 121.924  -0.869  0.495  0.007 -174.924      5.38  -77.97  103.29   65.64   68.45  -27.20  152.11  -53.94   82.06  153.95   42.65

DOCKED: MODEL       92
DOCKED: USER    Run = 92
DOCKED: USER    DPF = ligand_dock.biased.dpf
DOCKED: USER  
DOCKED: USER    Estimated Free Energy of Binding    =  -11.66 kcal/mol  [=(1)+(2)+(3)-(4)]
DOCKED: USER    Estimated Inhibition Constant, Ki   =    2.85 nM (nanomolar)  [Temperature = 298.15 K]
DOCKED: USER    
DOCKED: USER    (1) Final Intermolecular Energy     =  -14.94 kcal/mol
DOCKED: USER        vdW + Hbond + desolv Energy     =  -14.94 kcal/mol
DOCKED: USER        Electrostatic Energy            =   +0.00 kcal/mol
DOCKED: USER    (2) Final Total Internal Energy     =   -3.02 kcal/mol
DOCKED: USER    (3) Torsional Free Energy           =   +3.28 kcal/mol
DOCKED: USER    (4) Unbound System's Energy  [=(2)] =   -3.02 kcal/mol
DOCKED: USER    
DOCKED: USER    
DOCKED: USER    NEWDPF move ligand.dum.pdbqt
DOCKED: USER    NEWDPF about 0.460000 0.128000 -0.007000
DOCKED: USER    NEWDPF tran0 37.768029 14.332636 121.923887
DOCKED: USER    NEWDPF quaternion0 -0.868061 0.494434 0.006687 -0.044280
DOCKED: USER    NEWDPF axisangle0 -0.868913 0.494920 0.006694 -174.924247
DOCKED: USER    NEWDPF quat0 -0.868913 0.494920 0.006694 -174.924247
DOCKED: USER    NEWDPF dihe0 5.38 -77.97 103.29 65.64 68.45 -27.20 152.11 -53.94 82.06 153.95 42.65 
DOCKED: USER  keepresnum = 1 
DOCKED: USER  
DOCKED: REMARK  Name = 
DOCKED: REMARK  11 active torsions:
DOCKED: REMARK  status: ('A' for Active; 'I' for Inactive)
DOCKED: REMARK    1  A    between atoms: C_2  and  C_5
DOCKED: REMARK    2  A    between atoms: N_3  and  O_4
DOCKED: REMARK    3  A    between atoms: C_6  and  C_7
DOCKED: REMARK    4  A    between atoms: C_10  and  C_11
DOCKED: REMARK    5  A    between atoms: C_11  and  N_12
DOCKED: REMARK    6  A    between atoms: N_12  and  C_13
DOCKED: REMARK    7  A    between atoms: N_12  and  C_16
DOCKED: REMARK    8  A    between atoms: C_13  and  C_14
DOCKED: REMARK    9  A    between atoms: C_14  and  O_15
DOCKED: REMARK   10  A    between atoms: C_16  and  C_17
DOCKED: REMARK   11  A    between atoms: C_17  and  C_18
DOCKED: REMARK                            x       y       z     vdW  Elec       q    Type
DOCKED: REMARK                         _______ _______ _______ _____ _____    ______ ____
DOCKED: USER                              x       y       z     vdW  Elec       q    Type
DOCKED: USER                           _______ _______ _______ _____ _____    ______ ____
DOCKED: ROOT
DOCKED: ATOM      1  N   UNL     1      38.359  15.765 122.072 -0.24 -0.00    +0.000 N 
DOCKED: ATOM      2  H   UNL     1      38.540  15.150 122.866 -0.01 -0.00    +0.000 HD
DOCKED: ENDROOT
DOCKED: BRANCH   1   3
DOCKED: ATOM      3  C   UNL     1      37.679  14.977 121.022 -0.30 -0.00    +0.000 C 
DOCKED: BRANCH   3   7
DOCKED: ATOM      4  C   UNL     1      36.556  11.080 122.535 -0.59 -0.00    +0.000 A 
DOCKED: ATOM      5  C   UNL     1      36.367  12.231 123.318 -0.61 -0.00    +0.000 A 
DOCKED: ATOM      6  C   UNL     1      36.736  13.490 122.837 -0.49 -0.00    +0.000 A 
DOCKED: ATOM      7  C   UNL     1      37.296  13.623 121.558 -0.39 -0.00    +0.000 A 
DOCKED: ATOM      8  C   UNL     1      37.468  12.481 120.763 -0.46 -0.00    +0.000 A 
DOCKED: ATOM      9  C   UNL     1      37.100  11.221 121.243 -0.40 -0.00    +0.000 A 
DOCKED: ATOM     10  CM  UNL     1      36.921  12.355 122.042 +0.00 -0.00    +0.000 AC
DOCKED: BRANCH   4  11
DOCKED: ATOM     11  C   UNL     1      36.157   8.625 122.389 -0.74 -0.00    +0.000 C 
DOCKED: ATOM     12  C   UNL     1      36.137   9.769 123.089 -0.66 -0.00    +0.000 C 
DOCKED: BRANCH  10  13
DOCKED: ATOM     13  O   UNL     1      36.523   6.343 122.838 -1.22 -0.00    +0.000 OA
DOCKED: ATOM     14  C   UNL     1      35.739   7.322 122.948 -0.77 -0.00    +0.000 C 
DOCKED: ATOM     15  N   UNL     1      34.490   7.146 123.630 -0.70 -0.00    +0.000 N 
DOCKED: ATOM     16  H   UNL     1      33.916   7.925 123.813 -0.12 -0.00    +0.000 HD
DOCKED: BRANCH  14  16
DOCKED: ATOM     17  O   UNL     1      34.098   5.911 124.025 -0.81 -0.00    +0.000 OA
DOCKED: ATOM     18  H   UNL     1      34.809   5.275 123.846 -0.48 -0.00    +0.000 HD
DOCKED: ENDBRANCH  14  16
DOCKED: ENDBRANCH  10  13
DOCKED: ENDBRANCH   4  11
DOCKED: ENDBRANCH   3   7
DOCKED: ENDBRANCH   1   3
DOCKED: BRANCH   1  18
DOCKED: ATOM     19  C   UNL     1      39.694  16.228 121.623 -0.23 -0.00    +0.000 C 
DOCKED: BRANCH  18  19
DOCKED: ATOM     20  C   UNL     1      40.830  15.340 122.158 -0.44 -0.00    +0.000 C 
DOCKED: BRANCH  19  20
DOCKED: ATOM     21  O   UNL     1      40.344  14.092 122.573 -0.99 +0.00    +0.000 OA
DOCKED: ATOM     22  H   UNL     1      40.779  13.834 123.400 -0.07 -0.00    +0.000 HD
DOCKED: ENDBRANCH  19  20
DOCKED: ENDBRANCH  18  19
DOCKED: ENDBRANCH   1  18
DOCKED: BRANCH   1  22
DOCKED: ATOM     23  C   UNL     1      37.490  16.836 122.616 -0.23 -0.00    +0.000 C 
DOCKED: BRANCH  22  23
DOCKED: ATOM     24  C   UNL     1      35.997  16.676 122.265 -0.28 -0.00    +0.000 C 
DOCKED: BRANCH  23  24
DOCKED: ATOM     25  C   UNL     1      35.186  16.502 123.512 -0.39 -0.00    +0.000 A 
DOCKED: ATOM     26  C   UNL     1      34.463  15.371 123.883 -0.53 -0.00    +0.000 A 
DOCKED: ATOM     27  N   UNL     1      33.788  15.599 125.032 -0.50 -0.00    +0.000 N 
DOCKED: ATOM     28  C   UNL     1      34.067  16.867 125.382 -0.41 -0.00    +0.000 A 
DOCKED: ATOM     29  C   UNL     1      34.911  17.453 124.475 -0.35 -0.00    +0.000 A 
DOCKED: ATOM     30  C   UNL     1      35.326  18.779 124.604 -0.23 -0.00    +0.000 A 
DOCKED: ATOM     31  C   UNL     1      34.854  19.507 125.713 -0.19 -0.00    +0.000 A 
DOCKED: ATOM     32  C   UNL     1      33.988  18.903 126.651 -0.22 -0.00    +0.000 A 
DOCKED: ATOM     33  C   UNL     1      33.583  17.565 126.488 -0.33 -0.00    +0.000 A 
DOCKED: ATOM     34  H   UNL     1      33.210  14.965 125.515 -0.15 -0.00    +0.000 HD
DOCKED: ATOM     35  CM  UNL     1      34.460  16.334 124.476 -0.08 -0.00    +0.000 AC
DOCKED: ATOM     36  CM  UNL     1      34.455  18.179 125.553 -0.32 -0.00    +0.000 AC
DOCKED: ENDBRANCH  23  24
DOCKED: ENDBRANCH  22  23
DOCKED: ENDBRANCH   1  22
DOCKED: TORSDOF 11DOCKED: TER
DOCKED: ENDMDL
________________________________________________________________________________


	BEGINNING GENETIC ALGORITHM DOCKING 93 of 100
Run: 93 Seed: 2119259060 1167569881 [ Run 93 of 100 GA/GALS ]
Beginning LAMARCKIAN GENETIC ALGORITHM (LGA), with a maximum of 2500000 energy evaluations.

Final-Value: -17.086


	FINAL GENETIC ALGORITHM DOCKED STATE
	_______________________________________________


Detailed state:  trans 36.187 16.941 123.738 quatxyzw -0.904336 0.363720 0.122062 -0.187041 center 0.460 0.128 -0.007 ntor 11 -176.2108 65.3688 130.7108 18.6928 -29.4887 -15.4281 -98.6480 59.4173 -151.8782 175.5936 39.1707
State:	 36.187  16.941 123.738  -0.921  0.370  0.124 -158.440   -176.21   65.37  130.71   18.69  -29.49  -15.43  -98.65   59.42 -151.88  175.59   39.17

DOCKED: MODEL       93
DOCKED: USER    Run = 93
DOCKED: USER    DPF = ligand_dock.biased.dpf
DOCKED: USER  
DOCKED: USER    Estimated Free Energy of Binding    =  -11.49 kcal/mol  [=(1)+(2)+(3)-(4)]
DOCKED: USER    Estimated Inhibition Constant, Ki   =    3.79 nM (nanomolar)  [Temperature = 298.15 K]
DOCKED: USER    
DOCKED: USER    (1) Final Intermolecular Energy     =  -14.77 kcal/mol
DOCKED: USER        vdW + Hbond + desolv Energy     =  -14.77 kcal/mol
DOCKED: USER        Electrostatic Energy            =   +0.00 kcal/mol
DOCKED: USER    (2) Final Total Internal Energy     =   -2.32 kcal/mol
DOCKED: USER    (3) Torsional Free Energy           =   +3.28 kcal/mol
DOCKED: USER    (4) Unbound System's Energy  [=(2)] =   -2.32 kcal/mol
DOCKED: USER    
DOCKED: USER    
DOCKED: USER    NEWDPF move ligand.dum.pdbqt
DOCKED: USER    NEWDPF about 0.460000 0.128000 -0.007000
DOCKED: USER    NEWDPF tran0 36.186698 16.940847 123.738077
DOCKED: USER    NEWDPF quaternion0 -0.904336 0.363720 0.122062 -0.187041
DOCKED: USER    NEWDPF axisangle0 -0.920583 0.370255 0.124255 -158.439730
DOCKED: USER    NEWDPF quat0 -0.920583 0.370255 0.124255 -158.439730
DOCKED: USER    NEWDPF dihe0 -176.21 65.37 130.71 18.69 -29.49 -15.43 -98.65 59.42 -151.88 175.59 39.17 
DOCKED: USER  keepresnum = 1 
DOCKED: USER  
DOCKED: REMARK  Name = 
DOCKED: REMARK  11 active torsions:
DOCKED: REMARK  status: ('A' for Active; 'I' for Inactive)
DOCKED: REMARK    1  A    between atoms: C_2  and  C_5
DOCKED: REMARK    2  A    between atoms: N_3  and  O_4
DOCKED: REMARK    3  A    between atoms: C_6  and  C_7
DOCKED: REMARK    4  A    between atoms: C_10  and  C_11
DOCKED: REMARK    5  A    between atoms: C_11  and  N_12
DOCKED: REMARK    6  A    between atoms: N_12  and  C_13
DOCKED: REMARK    7  A    between atoms: N_12  and  C_16
DOCKED: REMARK    8  A    between atoms: C_13  and  C_14
DOCKED: REMARK    9  A    between atoms: C_14  and  O_15
DOCKED: REMARK   10  A    between atoms: C_16  and  C_17
DOCKED: REMARK   11  A    between atoms: C_17  and  C_18
DOCKED: REMARK                            x       y       z     vdW  Elec       q    Type
DOCKED: REMARK                         _______ _______ _______ _____ _____    ______ ____
DOCKED: USER                              x       y       z     vdW  Elec       q    Type
DOCKED: USER                           _______ _______ _______ _____ _____    ______ ____
DOCKED: ROOT
DOCKED: ATOM      1  N   UNL     1      36.404  18.338 124.390 -0.20 -0.00    +0.000 N 
DOCKED: ATOM      2  H   UNL     1      36.810  17.561 124.912 -0.02 -0.00    +0.000 HD
DOCKED: ENDROOT
DOCKED: BRANCH   1   3
DOCKED: ATOM      3  C   UNL     1      35.851  17.806 123.126 -0.27 -0.00    +0.000 C 
DOCKED: BRANCH   3   7
DOCKED: ATOM      4  C   UNL     1      36.145  13.489 123.035 -0.43 -0.00    +0.000 A 
DOCKED: ATOM      5  C   UNL     1      35.332  14.128 123.986 -0.36 -0.00    +0.000 A 
DOCKED: ATOM      6  C   UNL     1      35.241  15.522 124.024 -0.48 -0.00    +0.000 A 
DOCKED: ATOM      7  C   UNL     1      35.957  16.304 123.106 -0.32 -0.00    +0.000 A 
DOCKED: ATOM      8  C   UNL     1      36.754  15.672 122.141 -0.26 -0.00    +0.000 A 
DOCKED: ATOM      9  C   UNL     1      36.847  14.278 122.101 -0.31 -0.00    +0.000 A 
DOCKED: ATOM     10  CM  UNL     1      36.046  14.899 123.065 +0.00 -0.00    +0.000 AC
DOCKED: BRANCH   4  11
DOCKED: ATOM     11  C   UNL     1      37.017  11.293 122.242 -0.58 -0.00    +0.000 C 
DOCKED: ATOM     12  C   UNL     1      36.198  12.006 123.030 -0.67 -0.00    +0.000 C 
DOCKED: BRANCH  10  13
DOCKED: ATOM     13  O   UNL     1      37.064   9.215 121.137 -2.74 -0.00    +0.000 OA
DOCKED: ATOM     14  C   UNL     1      37.064   9.816 122.243 -0.58 -0.00    +0.000 C 
DOCKED: ATOM     15  N   UNL     1      37.140   9.052 123.455 -0.55 -0.00    +0.000 N 
DOCKED: ATOM     16  H   UNL     1      37.245   9.512 124.319 -0.58 -0.00    +0.000 HD
DOCKED: BRANCH  14  16
DOCKED: ATOM     17  O   UNL     1      37.067   7.700 123.412 -2.29 -0.00    +0.000 OA
DOCKED: ATOM     18  H   UNL     1      37.074   7.348 124.316 -0.54 -0.00    +0.000 HD
DOCKED: ENDBRANCH  14  16
DOCKED: ENDBRANCH  10  13
DOCKED: ENDBRANCH   4  11
DOCKED: ENDBRANCH   3   7
DOCKED: ENDBRANCH   1   3
DOCKED: BRANCH   1  18
DOCKED: ATOM     19  C   UNL     1      37.527  19.272 124.140 -0.14 -0.00    +0.000 C 
DOCKED: BRANCH  18  19
DOCKED: ATOM     20  C   UNL     1      38.600  19.202 125.239 -0.16 -0.00    +0.000 C 
DOCKED: BRANCH  19  20
DOCKED: ATOM     21  O   UNL     1      38.924  17.872 125.546 -0.19 -0.00    +0.000 OA
DOCKED: ATOM     22  H   UNL     1      38.450  17.276 124.946 -0.02 -0.00    +0.000 HD
DOCKED: ENDBRANCH  19  20
DOCKED: ENDBRANCH  18  19
DOCKED: ENDBRANCH   1  18
DOCKED: BRANCH   1  22
DOCKED: ATOM     23  C   UNL     1      35.345  18.875 125.278 -0.25 -0.00    +0.000 C 
DOCKED: BRANCH  22  23
DOCKED: ATOM     24  C   UNL     1      35.563  18.575 126.775 -0.18 -0.00    +0.000 C 
DOCKED: BRANCH  23  24
DOCKED: ATOM     25  C   UNL     1      34.327  17.971 127.369 -0.21 -0.00    +0.000 A 
DOCKED: ATOM     26  C   UNL     1      33.097  17.805 126.738 -0.25 -0.00    +0.000 A 
DOCKED: ATOM     27  N   UNL     1      32.189  17.298 127.602 -0.35 -0.00    +0.000 N 
DOCKED: ATOM     28  C   UNL     1      32.829  17.157 128.775 -0.31 -0.00    +0.000 A 
DOCKED: ATOM     29  C   UNL     1      34.135  17.563 128.674 -0.20 -0.00    +0.000 A 
DOCKED: ATOM     30  C   UNL     1      35.001  17.539 129.768 -0.15 -0.00    +0.000 A 
DOCKED: ATOM     31  C   UNL     1      34.493  17.070 130.994 -0.16 -0.00    +0.000 A 
DOCKED: ATOM     32  C   UNL     1      33.150  16.646 131.098 -0.24 -0.00    +0.000 A 
DOCKED: ATOM     33  C   UNL     1      32.300  16.690 129.977 -0.30 -0.00    +0.000 A 
DOCKED: ATOM     34  H   UNL     1      31.249  17.078 127.410 -0.49 -0.00    +0.000 HD
DOCKED: ATOM     35  CM  UNL     1      33.279  17.551 127.824 +0.00 -0.00    +0.000 AC
DOCKED: ATOM     36  CM  UNL     1      33.651  17.110 129.881 +0.00 -0.00    +0.000 AC
DOCKED: ENDBRANCH  23  24
DOCKED: ENDBRANCH  22  23
DOCKED: ENDBRANCH   1  22
DOCKED: TORSDOF 11DOCKED: TER
DOCKED: ENDMDL
________________________________________________________________________________


	BEGINNING GENETIC ALGORITHM DOCKING 94 of 100
Run: 94 Seed: 971933367 86287699 [ Run 94 of 100 GA/GALS ]
Beginning LAMARCKIAN GENETIC ALGORITHM (LGA), with a maximum of 2500000 energy evaluations.

Final-Value: -16.035


	FINAL GENETIC ALGORITHM DOCKED STATE
	_______________________________________________


Detailed state:  trans 36.660 16.767 122.996 quatxyzw 0.313806 -0.232364 -0.831985 -0.394123 center 0.460 0.128 -0.007 ntor 11 7.2166 58.6632 171.5620 119.4872 97.7393 -179.5202 -176.5656 112.8422 39.4136 -14.6419 34.4227
State:	 36.660  16.767 122.996   0.341 -0.253 -0.905 -133.577      7.22   58.66  171.56  119.49   97.74 -179.52 -176.57  112.84   39.41  -14.64   34.42

DOCKED: MODEL       94
DOCKED: USER    Run = 94
DOCKED: USER    DPF = ligand_dock.biased.dpf
DOCKED: USER  
DOCKED: USER    Estimated Free Energy of Binding    =  -10.07 kcal/mol  [=(1)+(2)+(3)-(4)]
DOCKED: USER    Estimated Inhibition Constant, Ki   =   41.25 nM (nanomolar)  [Temperature = 298.15 K]
DOCKED: USER    
DOCKED: USER    (1) Final Intermolecular Energy     =  -13.36 kcal/mol
DOCKED: USER        vdW + Hbond + desolv Energy     =  -13.36 kcal/mol
DOCKED: USER        Electrostatic Energy            =   +0.00 kcal/mol
DOCKED: USER    (2) Final Total Internal Energy     =   -2.68 kcal/mol
DOCKED: USER    (3) Torsional Free Energy           =   +3.28 kcal/mol
DOCKED: USER    (4) Unbound System's Energy  [=(2)] =   -2.68 kcal/mol
DOCKED: USER    
DOCKED: USER    
DOCKED: USER    NEWDPF move ligand.dum.pdbqt
DOCKED: USER    NEWDPF about 0.460000 0.128000 -0.007000
DOCKED: USER    NEWDPF tran0 36.660216 16.766810 122.995831
DOCKED: USER    NEWDPF quaternion0 0.313806 -0.232364 -0.831985 -0.394123
DOCKED: USER    NEWDPF axisangle0 0.341443 -0.252829 -0.905259 -133.577416
DOCKED: USER    NEWDPF quat0 0.341443 -0.252829 -0.905259 -133.577416
DOCKED: USER    NEWDPF dihe0 7.22 58.66 171.56 119.49 97.74 -179.52 -176.57 112.84 39.41 -14.64 34.42 
DOCKED: USER  keepresnum = 1 
DOCKED: USER  
DOCKED: REMARK  Name = 
DOCKED: REMARK  11 active torsions:
DOCKED: REMARK  status: ('A' for Active; 'I' for Inactive)
DOCKED: REMARK    1  A    between atoms: C_2  and  C_5
DOCKED: REMARK    2  A    between atoms: N_3  and  O_4
DOCKED: REMARK    3  A    between atoms: C_6  and  C_7
DOCKED: REMARK    4  A    between atoms: C_10  and  C_11
DOCKED: REMARK    5  A    between atoms: C_11  and  N_12
DOCKED: REMARK    6  A    between atoms: N_12  and  C_13
DOCKED: REMARK    7  A    between atoms: N_12  and  C_16
DOCKED: REMARK    8  A    between atoms: C_13  and  C_14
DOCKED: REMARK    9  A    between atoms: C_14  and  O_15
DOCKED: REMARK   10  A    between atoms: C_16  and  C_17
DOCKED: REMARK   11  A    between atoms: C_17  and  C_18
DOCKED: REMARK                            x       y       z     vdW  Elec       q    Type
DOCKED: REMARK                         _______ _______ _______ _____ _____    ______ ____
DOCKED: USER                              x       y       z     vdW  Elec       q    Type
DOCKED: USER                           _______ _______ _______ _____ _____    ______ ____
DOCKED: ROOT
DOCKED: ATOM      1  N   UNL     1      36.492  18.239 122.517 -0.16 -0.00    +0.000 N 
DOCKED: ATOM      2  H   UNL     1      36.850  17.602 121.805 +0.00 -0.00    +0.000 HD
DOCKED: ENDROOT
DOCKED: BRANCH   1   3
DOCKED: ATOM      3  C   UNL     1      36.165  17.447 123.723 -0.29 -0.00    +0.000 C 
DOCKED: BRANCH   3   7
DOCKED: ATOM      4  C   UNL     1      37.096  13.279 123.022 -0.51 -0.00    +0.000 A 
DOCKED: ATOM      5  C   UNL     1      35.813  13.661 123.450 -0.47 -0.00    +0.000 A 
DOCKED: ATOM      6  C   UNL     1      35.511  15.005 123.685 -0.47 -0.00    +0.000 A 
DOCKED: ATOM      7  C   UNL     1      36.486  15.994 123.490 -0.33 -0.00    +0.000 A 
DOCKED: ATOM      8  C   UNL     1      37.761  15.622 123.044 -0.31 -0.00    +0.000 A 
DOCKED: ATOM      9  C   UNL     1      38.066  14.278 122.808 -0.42 -0.00    +0.000 A 
DOCKED: ATOM     10  CM  UNL     1      36.789  14.640 123.250 +0.00 -0.00    +0.000 AC
DOCKED: BRANCH   4  11
DOCKED: ATOM     11  C   UNL     1      36.400  10.937 122.531 -0.68 -0.00    +0.000 C 
DOCKED: ATOM     12  C   UNL     1      37.361  11.839 122.776 -0.48 -0.00    +0.000 C 
DOCKED: BRANCH  10  13
DOCKED: ATOM     13  O   UNL     1      36.698   9.094 121.096 -2.62 -0.00    +0.000 OA
DOCKED: ATOM     14  C   UNL     1      36.672   9.505 122.286 -0.71 -0.00    +0.000 C 
DOCKED: ATOM     15  N   UNL     1      36.934   8.581 123.351 -0.67 -0.00    +0.000 N 
DOCKED: ATOM     16  H   UNL     1      37.020   8.909 124.275 -0.52 -0.00    +0.000 HD
DOCKED: BRANCH  14  16
DOCKED: ATOM     17  O   UNL     1      37.066   7.259 123.089 -2.08 -0.00    +0.000 OA
DOCKED: ATOM     18  H   UNL     1      37.069   7.120 122.129 -0.11 -0.00    +0.000 HD
DOCKED: ENDBRANCH  14  16
DOCKED: ENDBRANCH  10  13
DOCKED: ENDBRANCH   4  11
DOCKED: ENDBRANCH   3   7
DOCKED: ENDBRANCH   1   3
DOCKED: BRANCH   1  18
DOCKED: ATOM     19  C   UNL     1      35.278  18.849 121.924 -0.21 -0.00    +0.000 C 
DOCKED: BRANCH  18  19
DOCKED: ATOM     20  C   UNL     1      34.111  17.852 121.830 -0.39 -0.00    +0.000 C 
DOCKED: BRANCH  19  20
DOCKED: ATOM     21  O   UNL     1      33.363  17.835 123.015 -0.29 -0.00    +0.000 OA
DOCKED: ATOM     22  H   UNL     1      33.764  18.436 123.661 -0.03 -0.00    +0.000 HD
DOCKED: ENDBRANCH  19  20
DOCKED: ENDBRANCH  18  19
DOCKED: ENDBRANCH   1  18
DOCKED: BRANCH   1  22
DOCKED: ATOM     23  C   UNL     1      37.601  19.192 122.761 -0.11 -0.00    +0.000 C 
DOCKED: BRANCH  22  23
DOCKED: ATOM     24  C   UNL     1      37.725  19.655 124.226 -0.11 -0.00    +0.000 C 
DOCKED: BRANCH  23  24
DOCKED: ATOM     25  C   UNL     1      36.654  20.652 124.548 -0.11 -0.00    +0.000 A 
DOCKED: ATOM     26  C   UNL     1      36.691  22.021 124.297 -0.10 -0.00    +0.000 A 
DOCKED: ATOM     27  N   UNL     1      35.585  22.621 124.793 -0.13 -0.00    +0.000 N 
DOCKED: ATOM     28  C   UNL     1      34.859  21.647 125.368 -0.14 -0.00    +0.000 A 
DOCKED: ATOM     29  C   UNL     1      35.482  20.432 125.245 -0.15 -0.00    +0.000 A 
DOCKED: ATOM     30  C   UNL     1      34.939  19.266 125.786 -0.20 -0.00    +0.000 A 
DOCKED: ATOM     31  C   UNL     1      33.710  19.371 126.464 -0.22 -0.00    +0.000 A 
DOCKED: ATOM     32  C   UNL     1      33.064  20.621 126.587 -0.17 -0.00    +0.000 A 
DOCKED: ATOM     33  C   UNL     1      33.642  21.780 126.035 -0.16 -0.00    +0.000 A 
DOCKED: ATOM     34  H   UNL     1      35.358  23.578 124.743 -0.00 -0.00    +0.000 HD
DOCKED: ATOM     35  CM  UNL     1      35.845  21.511 124.849 +0.00 -0.00    +0.000 AC
DOCKED: ATOM     36  CM  UNL     1      34.282  20.519 125.914 +0.00 -0.00    +0.000 AC
DOCKED: ENDBRANCH  23  24
DOCKED: ENDBRANCH  22  23
DOCKED: ENDBRANCH   1  22
DOCKED: TORSDOF 11DOCKED: TER
DOCKED: ENDMDL
________________________________________________________________________________


	BEGINNING GENETIC ALGORITHM DOCKING 95 of 100
Run: 95 Seed: 1575342936 1042249524 [ Run 95 of 100 GA/GALS ]
Beginning LAMARCKIAN GENETIC ALGORITHM (LGA), with a maximum of 2500000 energy evaluations.

Final-Value: -16.755


	FINAL GENETIC ALGORITHM DOCKED STATE
	_______________________________________________


Detailed state:  trans 37.855 14.967 122.630 quatxyzw 0.685619 -0.705936 -0.087210 -0.154838 center 0.460 0.128 -0.007 ntor 11 35.6314 92.3110 118.0830 28.8769 175.3404 94.4872 171.5595 73.9075 165.4319 -7.0604 0.7155
State:	 37.855  14.967 122.630   0.694 -0.715 -0.088 -162.185     35.63   92.31  118.08   28.88  175.34   94.49  171.56   73.91  165.43   -7.06    0.72

DOCKED: MODEL       95
DOCKED: USER    Run = 95
DOCKED: USER    DPF = ligand_dock.biased.dpf
DOCKED: USER  
DOCKED: USER    Estimated Free Energy of Binding    =  -10.35 kcal/mol  [=(1)+(2)+(3)-(4)]
DOCKED: USER    Estimated Inhibition Constant, Ki   =   26.09 nM (nanomolar)  [Temperature = 298.15 K]
DOCKED: USER    
DOCKED: USER    (1) Final Intermolecular Energy     =  -13.63 kcal/mol
DOCKED: USER        vdW + Hbond + desolv Energy     =  -13.63 kcal/mol
DOCKED: USER        Electrostatic Energy            =   +0.00 kcal/mol
DOCKED: USER    (2) Final Total Internal Energy     =   -3.13 kcal/mol
DOCKED: USER    (3) Torsional Free Energy           =   +3.28 kcal/mol
DOCKED: USER    (4) Unbound System's Energy  [=(2)] =   -3.13 kcal/mol
DOCKED: USER    
DOCKED: USER    
DOCKED: USER    NEWDPF move ligand.dum.pdbqt
DOCKED: USER    NEWDPF about 0.460000 0.128000 -0.007000
DOCKED: USER    NEWDPF tran0 37.854930 14.967225 122.630094
DOCKED: USER    NEWDPF quaternion0 0.685619 -0.705936 -0.087210 -0.154838
DOCKED: USER    NEWDPF axisangle0 0.693989 -0.714554 -0.088274 -162.185172
DOCKED: USER    NEWDPF quat0 0.693989 -0.714554 -0.088274 -162.185172
DOCKED: USER    NEWDPF dihe0 35.63 92.31 118.08 28.88 175.34 94.49 171.56 73.91 165.43 -7.06 0.72 
DOCKED: USER  keepresnum = 1 
DOCKED: USER  
DOCKED: REMARK  Name = 
DOCKED: REMARK  11 active torsions:
DOCKED: REMARK  status: ('A' for Active; 'I' for Inactive)
DOCKED: REMARK    1  A    between atoms: C_2  and  C_5
DOCKED: REMARK    2  A    between atoms: N_3  and  O_4
DOCKED: REMARK    3  A    between atoms: C_6  and  C_7
DOCKED: REMARK    4  A    between atoms: C_10  and  C_11
DOCKED: REMARK    5  A    between atoms: C_11  and  N_12
DOCKED: REMARK    6  A    between atoms: N_12  and  C_13
DOCKED: REMARK    7  A    between atoms: N_12  and  C_16
DOCKED: REMARK    8  A    between atoms: C_13  and  C_14
DOCKED: REMARK    9  A    between atoms: C_14  and  O_15
DOCKED: REMARK   10  A    between atoms: C_16  and  C_17
DOCKED: REMARK   11  A    between atoms: C_17  and  C_18
DOCKED: REMARK                            x       y       z     vdW  Elec       q    Type
DOCKED: REMARK                         _______ _______ _______ _____ _____    ______ ____
DOCKED: USER                              x       y       z     vdW  Elec       q    Type
DOCKED: USER                           _______ _______ _______ _____ _____    ______ ____
DOCKED: ROOT
DOCKED: ATOM      1  N   UNL     1      39.041  15.843 122.128 -0.25 -0.00    +0.000 N 
DOCKED: ATOM      2  H   UNL     1      39.221  15.349 123.002 -0.02 -0.00    +0.000 HD
DOCKED: ENDROOT
DOCKED: BRANCH   1   3
DOCKED: ATOM      3  C   UNL     1      37.716  15.420 121.624 -0.28 -0.00    +0.000 C 
DOCKED: BRANCH   3   7
DOCKED: ATOM      4  C   UNL     1      37.003  11.288 122.697 -0.55 -0.00    +0.000 A 
DOCKED: ATOM      5  C   UNL     1      37.058  11.675 121.348 -0.48 -0.00    +0.000 A 
DOCKED: ATOM      6  C   UNL     1      37.280  13.009 120.997 -0.43 -0.00    +0.000 A 
DOCKED: ATOM      7  C   UNL     1      37.458  13.982 121.991 -0.39 -0.00    +0.000 A 
DOCKED: ATOM      8  C   UNL     1      37.424  13.600 123.339 -0.46 -0.00    +0.000 A 
DOCKED: ATOM      9  C   UNL     1      37.202  12.265 123.693 -0.51 -0.00    +0.000 A 
DOCKED: ATOM     10  CM  UNL     1      37.238  12.637 122.344 +0.00 -0.00    +0.000 AC
DOCKED: BRANCH   4  11
DOCKED: ATOM     11  C   UNL     1      35.649   9.197 122.712 -0.69 -0.00    +0.000 C 
DOCKED: ATOM     12  C   UNL     1      36.776   9.856 123.016 -0.66 -0.00    +0.000 C 
DOCKED: BRANCH  10  13
DOCKED: ATOM     13  O   UNL     1      36.435   7.038 123.230 -1.56 -0.00    +0.000 OA
DOCKED: ATOM     14  C   UNL     1      35.429   7.770 123.032 -0.73 -0.00    +0.000 C 
DOCKED: ATOM     15  N   UNL     1      34.117   7.204 123.151 -0.69 -0.00    +0.000 N 
DOCKED: ATOM     16  H   UNL     1      33.325   7.787 123.101 -0.10 -0.00    +0.000 HD
DOCKED: BRANCH  14  16
DOCKED: ATOM     17  O   UNL     1      33.965   5.871 123.333 -0.81 -0.00    +0.000 OA
DOCKED: ATOM     18  H   UNL     1      34.686   5.537 123.890 -0.40 -0.00    +0.000 HD
DOCKED: ENDBRANCH  14  16
DOCKED: ENDBRANCH  10  13
DOCKED: ENDBRANCH   4  11
DOCKED: ENDBRANCH   3   7
DOCKED: ENDBRANCH   1   3
DOCKED: BRANCH   1  18
DOCKED: ATOM     19  C   UNL     1      40.128  15.427 121.211 -0.29 -0.00    +0.000 C 
DOCKED: BRANCH  18  19
DOCKED: ATOM     20  C   UNL     1      41.333  14.840 121.963 -0.39 -0.00    +0.000 C 
DOCKED: BRANCH  19  20
DOCKED: ATOM     21  O   UNL     1      40.925  14.145 123.110 -0.97 +0.00    +0.000 OA
DOCKED: ATOM     22  H   UNL     1      40.052  13.753 122.958 -0.03 +0.00    +0.000 HD
DOCKED: ENDBRANCH  19  20
DOCKED: ENDBRANCH  18  19
DOCKED: ENDBRANCH   1  18
DOCKED: BRANCH   1  22
DOCKED: ATOM     23  C   UNL     1      39.063  17.279 122.496 -0.18 -0.00    +0.000 C 
DOCKED: BRANCH  22  23
DOCKED: ATOM     24  C   UNL     1      38.884  17.548 124.003 -0.24 -0.00    +0.000 C 
DOCKED: BRANCH  23  24
DOCKED: ATOM     25  C   UNL     1      37.596  18.273 124.251 -0.17 -0.00    +0.000 A 
DOCKED: ATOM     26  C   UNL     1      37.430  19.649 124.386 -0.11 -0.00    +0.000 A 
DOCKED: ATOM     27  N   UNL     1      36.143  19.942 124.682 -0.15 -0.00    +0.000 N 
DOCKED: ATOM     28  C   UNL     1      35.500  18.764 124.749 -0.22 -0.00    +0.000 A 
DOCKED: ATOM     29  C   UNL     1      36.355  17.722 124.498 -0.22 -0.00    +0.000 A 
DOCKED: ATOM     30  C   UNL     1      35.929  16.393 124.538 -0.18 -0.00    +0.000 A 
DOCKED: ATOM     31  C   UNL     1      34.575  16.148 124.835 -0.46 -0.00    +0.000 A 
DOCKED: ATOM     32  C   UNL     1      33.692  17.221 125.089 -0.25 -0.00    +0.000 A 
DOCKED: ATOM     33  C   UNL     1      34.155  18.550 125.048 -0.29 -0.00    +0.000 A 
DOCKED: ATOM     34  H   UNL     1      35.757  20.836 124.819 -0.01 -0.00    +0.000 HD
DOCKED: ATOM     35  CM  UNL     1      36.590  18.904 124.519 -0.02 -0.00    +0.000 AC
DOCKED: ATOM     36  CM  UNL     1      35.034  17.466 124.792 -0.42 -0.00    +0.000 AC
DOCKED: ENDBRANCH  23  24
DOCKED: ENDBRANCH  22  23
DOCKED: ENDBRANCH   1  22
DOCKED: TORSDOF 11DOCKED: TER
DOCKED: ENDMDL
________________________________________________________________________________


	BEGINNING GENETIC ALGORITHM DOCKING 96 of 100
Run: 96 Seed: 1311758205 629370139 [ Run 96 of 100 GA/GALS ]
Beginning LAMARCKIAN GENETIC ALGORITHM (LGA), with a maximum of 2500000 energy evaluations.

Final-Value: -16.437


	FINAL GENETIC ALGORITHM DOCKED STATE
	_______________________________________________


Detailed state:  trans 38.092 13.985 122.705 quatxyzw -0.915757 0.338690 -0.176264 -0.124938 center 0.460 0.128 -0.007 ntor 11 12.5632 -47.1242 29.3623 141.1727 62.7484 -179.2154 -104.3606 -26.8572 -177.9613 -68.3371 65.6627
State:	 38.092  13.985 122.705  -0.923  0.341 -0.178 -165.646     12.56  -47.12   29.36  141.17   62.75 -179.22 -104.36  -26.86 -177.96  -68.34   65.66

DOCKED: MODEL       96
DOCKED: USER    Run = 96
DOCKED: USER    DPF = ligand_dock.biased.dpf
DOCKED: USER  
DOCKED: USER    Estimated Free Energy of Binding    =  -11.26 kcal/mol  [=(1)+(2)+(3)-(4)]
DOCKED: USER    Estimated Inhibition Constant, Ki   =    5.62 nM (nanomolar)  [Temperature = 298.15 K]
DOCKED: USER    
DOCKED: USER    (1) Final Intermolecular Energy     =  -14.54 kcal/mol
DOCKED: USER        vdW + Hbond + desolv Energy     =  -14.54 kcal/mol
DOCKED: USER        Electrostatic Energy            =   +0.00 kcal/mol
DOCKED: USER    (2) Final Total Internal Energy     =   -1.90 kcal/mol
DOCKED: USER    (3) Torsional Free Energy           =   +3.28 kcal/mol
DOCKED: USER    (4) Unbound System's Energy  [=(2)] =   -1.90 kcal/mol
DOCKED: USER    
DOCKED: USER    
DOCKED: USER    NEWDPF move ligand.dum.pdbqt
DOCKED: USER    NEWDPF about 0.460000 0.128000 -0.007000
DOCKED: USER    NEWDPF tran0 38.092358 13.984608 122.704516
DOCKED: USER    NEWDPF quaternion0 -0.915757 0.338690 -0.176264 -0.124938
DOCKED: USER    NEWDPF axisangle0 -0.922989 0.341365 -0.177656 -165.645615
DOCKED: USER    NEWDPF quat0 -0.922989 0.341365 -0.177656 -165.645615
DOCKED: USER    NEWDPF dihe0 12.56 -47.12 29.36 141.17 62.75 -179.22 -104.36 -26.86 -177.96 -68.34 65.66 
DOCKED: USER  keepresnum = 1 
DOCKED: USER  
DOCKED: REMARK  Name = 
DOCKED: REMARK  11 active torsions:
DOCKED: REMARK  status: ('A' for Active; 'I' for Inactive)
DOCKED: REMARK    1  A    between atoms: C_2  and  C_5
DOCKED: REMARK    2  A    between atoms: N_3  and  O_4
DOCKED: REMARK    3  A    between atoms: C_6  and  C_7
DOCKED: REMARK    4  A    between atoms: C_10  and  C_11
DOCKED: REMARK    5  A    between atoms: C_11  and  N_12
DOCKED: REMARK    6  A    between atoms: N_12  and  C_13
DOCKED: REMARK    7  A    between atoms: N_12  and  C_16
DOCKED: REMARK    8  A    between atoms: C_13  and  C_14
DOCKED: REMARK    9  A    between atoms: C_14  and  O_15
DOCKED: REMARK   10  A    between atoms: C_16  and  C_17
DOCKED: REMARK   11  A    between atoms: C_17  and  C_18
DOCKED: REMARK                            x       y       z     vdW  Elec       q    Type
DOCKED: REMARK                         _______ _______ _______ _____ _____    ______ ____
DOCKED: USER                              x       y       z     vdW  Elec       q    Type
DOCKED: USER                           _______ _______ _______ _____ _____    ______ ____
DOCKED: ROOT
DOCKED: ATOM      1  N   UNL     1      38.144  15.525 122.923 -0.32 -0.00    +0.000 N 
DOCKED: ATOM      2  H   UNL     1      38.153  14.976 123.783 -0.03 -0.00    +0.000 HD
DOCKED: ENDROOT
DOCKED: BRANCH   1   3
DOCKED: ATOM      3  C   UNL     1      38.199  14.591 121.779 -0.39 -0.00    +0.000 C 
DOCKED: BRANCH   3   7
DOCKED: ATOM      4  C   UNL     1      36.202  10.890 122.805 -0.62 -0.00    +0.000 A 
DOCKED: ATOM      5  C   UNL     1      36.792  11.056 121.540 -0.42 -0.00    +0.000 A 
DOCKED: ATOM      6  C   UNL     1      37.430  12.252 121.202 -0.47 -0.00    +0.000 A 
DOCKED: ATOM      7  C   UNL     1      37.497  13.305 122.126 -0.45 -0.00    +0.000 A 
DOCKED: ATOM      8  C   UNL     1      36.929  13.139 123.397 -0.54 -0.00    +0.000 A 
DOCKED: ATOM      9  C   UNL     1      36.289  11.943 123.737 -0.63 -0.00    +0.000 A 
DOCKED: ATOM     10  CM  UNL     1      36.857  12.098 122.468 +0.00 -0.00    +0.000 AC
DOCKED: BRANCH   4  11
DOCKED: ATOM     11  C   UNL     1      35.821   8.450 122.479 -0.73 -0.00    +0.000 C 
DOCKED: ATOM     12  C   UNL     1      35.546   9.596 123.118 -0.61 -0.00    +0.000 C 
DOCKED: BRANCH  10  13
DOCKED: ATOM     13  O   UNL     1      35.881   6.136 122.909 -0.99 -0.00    +0.000 OA
DOCKED: ATOM     14  C   UNL     1      35.164   7.164 122.797 -0.74 -0.00    +0.000 C 
DOCKED: ATOM     15  N   UNL     1      33.749   7.058 123.007 -0.69 -0.00    +0.000 N 
DOCKED: ATOM     16  H   UNL     1      33.193   7.870 123.024 -0.11 -0.00    +0.000 HD
DOCKED: BRANCH  14  16
DOCKED: ATOM     17  O   UNL     1      33.177   5.843 123.183 -0.79 -0.00    +0.000 OA
DOCKED: ATOM     18  H   UNL     1      33.868   5.180 123.336 -0.51 -0.00    +0.000 HD
DOCKED: ENDBRANCH  14  16
DOCKED: ENDBRANCH  10  13
DOCKED: ENDBRANCH   4  11
DOCKED: ENDBRANCH   3   7
DOCKED: ENDBRANCH   1   3
DOCKED: BRANCH   1  18
DOCKED: ATOM     19  C   UNL     1      39.357  16.375 122.988 -0.27 -0.00    +0.000 C 
DOCKED: BRANCH  18  19
DOCKED: ATOM     20  C   UNL     1      40.561  15.727 122.286 -0.39 -0.00    +0.000 C 
DOCKED: BRANCH  19  20
DOCKED: ATOM     21  O   UNL     1      40.819  14.448 122.799 -1.07 -0.00    +0.000 OA
DOCKED: ATOM     22  H   UNL     1      41.627  14.470 123.334 -0.08 +0.00    +0.000 HD
DOCKED: ENDBRANCH  19  20
DOCKED: ENDBRANCH  18  19
DOCKED: ENDBRANCH   1  18
DOCKED: BRANCH   1  22
DOCKED: ATOM     23  C   UNL     1      36.866  16.275 122.969 -0.31 -0.00    +0.000 C 
DOCKED: BRANCH  22  23
DOCKED: ATOM     24  C   UNL     1      35.995  15.964 124.203 -0.37 -0.00    +0.000 C 
DOCKED: BRANCH  23  24
DOCKED: ATOM     25  C   UNL     1      35.274  17.198 124.653 -0.33 -0.00    +0.000 A 
DOCKED: ATOM     26  C   UNL     1      35.510  18.502 124.226 -0.24 -0.00    +0.000 A 
DOCKED: ATOM     27  N   UNL     1      34.725  19.369 124.905 -0.22 -0.00    +0.000 N 
DOCKED: ATOM     28  C   UNL     1      34.007  18.628 125.765 -0.29 -0.00    +0.000 A 
DOCKED: ATOM     29  C   UNL     1      34.319  17.298 125.646 -0.36 -0.00    +0.000 A 
DOCKED: ATOM     30  C   UNL     1      33.725  16.327 126.453 -0.34 -0.00    +0.000 A 
DOCKED: ATOM     31  C   UNL     1      32.775  16.754 127.400 -0.35 -0.00    +0.000 A 
DOCKED: ATOM     32  C   UNL     1      32.450  18.123 127.521 -0.22 -0.00    +0.000 A 
DOCKED: ATOM     33  C   UNL     1      33.072  19.079 126.696 -0.24 -0.00    +0.000 A 
DOCKED: ATOM     34  H   UNL     1      34.688  20.347 124.791 -0.02 -0.00    +0.000 HD
DOCKED: ATOM     35  CM  UNL     1      34.765  18.236 125.035 -0.41 -0.00    +0.000 AC
DOCKED: ATOM     36  CM  UNL     1      33.391  17.701 126.580 -0.02 -0.00    +0.000 AC
DOCKED: ENDBRANCH  23  24
DOCKED: ENDBRANCH  22  23
DOCKED: ENDBRANCH   1  22
DOCKED: TORSDOF 11DOCKED: TER
DOCKED: ENDMDL
________________________________________________________________________________


	BEGINNING GENETIC ALGORITHM DOCKING 97 of 100
Run: 97 Seed: 1766162405 445277168 [ Run 97 of 100 GA/GALS ]
Beginning LAMARCKIAN GENETIC ALGORITHM (LGA), with a maximum of 2500000 energy evaluations.

Final-Value: -17.175


	FINAL GENETIC ALGORITHM DOCKED STATE
	_______________________________________________


Detailed state:  trans 36.226 16.394 123.568 quatxyzw 0.422444 -0.016739 0.809910 0.406579 center 0.460 0.128 -0.007 ntor 11 33.4734 -178.8357 59.2029 80.6597 166.6960 -68.7409 -110.6740 87.0037 155.7917 -118.8768 56.8084
State:	 36.226  16.394 123.568   0.462 -0.018  0.886 132.020     33.47 -178.84   59.20   80.66  166.70  -68.74 -110.67   87.00  155.79 -118.88   56.81

DOCKED: MODEL       97
DOCKED: USER    Run = 97
DOCKED: USER    DPF = ligand_dock.biased.dpf
DOCKED: USER  
DOCKED: USER    Estimated Free Energy of Binding    =  -10.23 kcal/mol  [=(1)+(2)+(3)-(4)]
DOCKED: USER    Estimated Inhibition Constant, Ki   =   31.88 nM (nanomolar)  [Temperature = 298.15 K]
DOCKED: USER    
DOCKED: USER    (1) Final Intermolecular Energy     =  -13.51 kcal/mol
DOCKED: USER        vdW + Hbond + desolv Energy     =  -13.51 kcal/mol
DOCKED: USER        Electrostatic Energy            =   +0.00 kcal/mol
DOCKED: USER    (2) Final Total Internal Energy     =   -3.67 kcal/mol
DOCKED: USER    (3) Torsional Free Energy           =   +3.28 kcal/mol
DOCKED: USER    (4) Unbound System's Energy  [=(2)] =   -3.67 kcal/mol
DOCKED: USER    
DOCKED: USER    
DOCKED: USER    NEWDPF move ligand.dum.pdbqt
DOCKED: USER    NEWDPF about 0.460000 0.128000 -0.007000
DOCKED: USER    NEWDPF tran0 36.225966 16.393948 123.568177
DOCKED: USER    NEWDPF quaternion0 0.422444 -0.016739 0.809910 0.406579
DOCKED: USER    NEWDPF axisangle0 0.462387 -0.018322 0.886489 132.019717
DOCKED: USER    NEWDPF quat0 0.462387 -0.018322 0.886489 132.019717
DOCKED: USER    NEWDPF dihe0 33.47 -178.84 59.20 80.66 166.70 -68.74 -110.67 87.00 155.79 -118.88 56.81 
DOCKED: USER  keepresnum = 1 
DOCKED: USER  
DOCKED: REMARK  Name = 
DOCKED: REMARK  11 active torsions:
DOCKED: REMARK  status: ('A' for Active; 'I' for Inactive)
DOCKED: REMARK    1  A    between atoms: C_2  and  C_5
DOCKED: REMARK    2  A    between atoms: N_3  and  O_4
DOCKED: REMARK    3  A    between atoms: C_6  and  C_7
DOCKED: REMARK    4  A    between atoms: C_10  and  C_11
DOCKED: REMARK    5  A    between atoms: C_11  and  N_12
DOCKED: REMARK    6  A    between atoms: N_12  and  C_13
DOCKED: REMARK    7  A    between atoms: N_12  and  C_16
DOCKED: REMARK    8  A    between atoms: C_13  and  C_14
DOCKED: REMARK    9  A    between atoms: C_14  and  O_15
DOCKED: REMARK   10  A    between atoms: C_16  and  C_17
DOCKED: REMARK   11  A    between atoms: C_17  and  C_18
DOCKED: REMARK                            x       y       z     vdW  Elec       q    Type
DOCKED: REMARK                         _______ _______ _______ _____ _____    ______ ____
DOCKED: USER                              x       y       z     vdW  Elec       q    Type
DOCKED: USER                           _______ _______ _______ _____ _____    ______ ____
DOCKED: ROOT
DOCKED: ATOM      1  N   UNL     1      35.710  17.853 123.397 -0.25 -0.00    +0.000 N 
DOCKED: ATOM      2  H   UNL     1      35.011  17.133 123.208 -0.01 -0.00    +0.000 HD
DOCKED: ENDROOT
DOCKED: BRANCH   1   3
DOCKED: ATOM      3  C   UNL     1      36.939  17.188 123.880 -0.26 -0.00    +0.000 C 
DOCKED: BRANCH   3   7
DOCKED: ATOM      4  C   UNL     1      37.022  13.062 122.574 -0.50 -0.00    +0.000 A 
DOCKED: ATOM      5  C   UNL     1      38.135  13.896 122.374 -0.41 -0.00    +0.000 A 
DOCKED: ATOM      6  C   UNL     1      38.109  15.231 122.786 -0.33 -0.00    +0.000 A 
DOCKED: ATOM      7  C   UNL     1      36.971  15.756 123.414 -0.32 -0.00    +0.000 A 
DOCKED: ATOM      8  C   UNL     1      35.864  14.924 123.636 -0.45 -0.00    +0.000 A 
DOCKED: ATOM      9  C   UNL     1      35.888  13.588 123.223 -0.40 -0.00    +0.000 A 
DOCKED: ATOM     10  CM  UNL     1      36.998  14.410 123.002 +0.00 -0.00    +0.000 AC
DOCKED: BRANCH   4  11
DOCKED: ATOM     11  C   UNL     1      36.745  10.606 122.888 -0.67 -0.00    +0.000 C 
DOCKED: ATOM     12  C   UNL     1      37.106  11.649 122.127 -0.55 -0.00    +0.000 C 
DOCKED: BRANCH  10  13
DOCKED: ATOM     13  O   UNL     1      36.692   8.957 121.208 -2.62 -0.00    +0.000 OA
DOCKED: ATOM     14  C   UNL     1      36.830   9.202 122.436 -0.70 -0.00    +0.000 C 
DOCKED: ATOM     15  N   UNL     1      37.090   8.120 123.341 -0.74 -0.00    +0.000 N 
DOCKED: ATOM     16  H   UNL     1      37.301   8.308 124.283 -0.43 -0.00    +0.000 HD
DOCKED: BRANCH  14  16
DOCKED: ATOM     17  O   UNL     1      37.046   6.839 122.901 -1.59 -0.00    +0.000 OA
DOCKED: ATOM     18  H   UNL     1      37.352   6.804 121.981 -0.32 -0.00    +0.000 HD
DOCKED: ENDBRANCH  14  16
DOCKED: ENDBRANCH  10  13
DOCKED: ENDBRANCH   4  11
DOCKED: ENDBRANCH   3   7
DOCKED: ENDBRANCH   1   3
DOCKED: BRANCH   1  18
DOCKED: ATOM     19  C   UNL     1      35.112  18.715 124.445 -0.28 -0.00    +0.000 C 
DOCKED: BRANCH  18  19
DOCKED: ATOM     20  C   UNL     1      34.208  17.924 125.404 -0.39 -0.00    +0.000 C 
DOCKED: BRANCH  19  20
DOCKED: ATOM     21  O   UNL     1      33.702  16.770 124.789 -0.49 -0.00    +0.000 OA
DOCKED: ATOM     22  H   UNL     1      33.984  15.987 125.286 -0.04 -0.00    +0.000 HD
DOCKED: ENDBRANCH  19  20
DOCKED: ENDBRANCH  18  19
DOCKED: ENDBRANCH   1  18
DOCKED: BRANCH   1  22
DOCKED: ATOM     23  C   UNL     1      35.917  18.527 122.093 -0.23 -0.00    +0.000 C 
DOCKED: BRANCH  22  23
DOCKED: ATOM     24  C   UNL     1      35.657  17.627 120.868 -0.24 -0.00    +0.000 C 
DOCKED: BRANCH  23  24
DOCKED: ATOM     25  C   UNL     1      36.953  17.143 120.294 -0.13 -0.00    +0.000 A 
DOCKED: ATOM     26  C   UNL     1      38.216  17.685 120.521 -0.06 -0.00    +0.000 A 
DOCKED: ATOM     27  N   UNL     1      39.145  17.043 119.777 -0.08 -0.00    +0.000 N 
DOCKED: ATOM     28  C   UNL     1      38.479  16.111 119.073 -0.12 -0.00    +0.000 A 
DOCKED: ATOM     29  C   UNL     1      37.138  16.146 119.357 -0.15 -0.00    +0.000 A 
DOCKED: ATOM     30  C   UNL     1      36.229  15.293 118.730 -0.14 -0.00    +0.000 A 
DOCKED: ATOM     31  C   UNL     1      36.735  14.374 117.791 -0.31 -0.00    +0.000 A 
DOCKED: ATOM     32  C   UNL     1      38.117  14.333 117.502 -0.22 -0.00    +0.000 A 
DOCKED: ATOM     33  C   UNL     1      39.007  15.213 118.147 -0.09 -0.00    +0.000 A 
DOCKED: ATOM     34  H   UNL     1      40.113  17.221 119.756 +0.00 -0.00    +0.000 HD
DOCKED: ATOM     35  CM  UNL     1      38.023  16.833 119.803 +0.00 -0.00    +0.000 AC
DOCKED: ATOM     36  CM  UNL     1      37.618  15.244 118.433 +0.00 -0.00    +0.000 AC
DOCKED: ENDBRANCH  23  24
DOCKED: ENDBRANCH  22  23
DOCKED: ENDBRANCH   1  22
DOCKED: TORSDOF 11DOCKED: TER
DOCKED: ENDMDL
________________________________________________________________________________


	BEGINNING GENETIC ALGORITHM DOCKING 98 of 100
Run: 98 Seed: 587642458 403995415 [ Run 98 of 100 GA/GALS ]
Beginning LAMARCKIAN GENETIC ALGORITHM (LGA), with a maximum of 2500000 energy evaluations.

Final-Value: -16.832


	FINAL GENETIC ALGORITHM DOCKED STATE
	_______________________________________________


Detailed state:  trans 36.376 16.874 123.495 quatxyzw 0.056209 0.162952 -0.719309 -0.672965 center 0.460 0.128 -0.007 ntor 11 12.8490 -11.6365 -41.7781 -155.7356 -168.2502 90.8339 27.7559 135.2527 159.0216 50.8712 -1.0579
State:	 36.376  16.874 123.495   0.076  0.220 -0.972 -95.407     12.85  -11.64  -41.78 -155.74 -168.25   90.83   27.76  135.25  159.02   50.87   -1.06

DOCKED: MODEL       98
DOCKED: USER    Run = 98
DOCKED: USER    DPF = ligand_dock.biased.dpf
DOCKED: USER  
DOCKED: USER    Estimated Free Energy of Binding    =  -10.78 kcal/mol  [=(1)+(2)+(3)-(4)]
DOCKED: USER    Estimated Inhibition Constant, Ki   =   12.63 nM (nanomolar)  [Temperature = 298.15 K]
DOCKED: USER    
DOCKED: USER    (1) Final Intermolecular Energy     =  -14.06 kcal/mol
DOCKED: USER        vdW + Hbond + desolv Energy     =  -14.06 kcal/mol
DOCKED: USER        Electrostatic Energy            =   +0.00 kcal/mol
DOCKED: USER    (2) Final Total Internal Energy     =   -2.78 kcal/mol
DOCKED: USER    (3) Torsional Free Energy           =   +3.28 kcal/mol
DOCKED: USER    (4) Unbound System's Energy  [=(2)] =   -2.78 kcal/mol
DOCKED: USER    
DOCKED: USER    
DOCKED: USER    NEWDPF move ligand.dum.pdbqt
DOCKED: USER    NEWDPF about 0.460000 0.128000 -0.007000
DOCKED: USER    NEWDPF tran0 36.375808 16.874147 123.495183
DOCKED: USER    NEWDPF quaternion0 0.056209 0.162952 -0.719309 -0.672965
DOCKED: USER    NEWDPF axisangle0 0.075991 0.220303 -0.972467 -95.407432
DOCKED: USER    NEWDPF quat0 0.075991 0.220303 -0.972467 -95.407432
DOCKED: USER    NEWDPF dihe0 12.85 -11.64 -41.78 -155.74 -168.25 90.83 27.76 135.25 159.02 50.87 -1.06 
DOCKED: USER  keepresnum = 1 
DOCKED: USER  
DOCKED: REMARK  Name = 
DOCKED: REMARK  11 active torsions:
DOCKED: REMARK  status: ('A' for Active; 'I' for Inactive)
DOCKED: REMARK    1  A    between atoms: C_2  and  C_5
DOCKED: REMARK    2  A    between atoms: N_3  and  O_4
DOCKED: REMARK    3  A    between atoms: C_6  and  C_7
DOCKED: REMARK    4  A    between atoms: C_10  and  C_11
DOCKED: REMARK    5  A    between atoms: C_11  and  N_12
DOCKED: REMARK    6  A    between atoms: N_12  and  C_13
DOCKED: REMARK    7  A    between atoms: N_12  and  C_16
DOCKED: REMARK    8  A    between atoms: C_13  and  C_14
DOCKED: REMARK    9  A    between atoms: C_14  and  O_15
DOCKED: REMARK   10  A    between atoms: C_16  and  C_17
DOCKED: REMARK   11  A    between atoms: C_17  and  C_18
DOCKED: REMARK                            x       y       z     vdW  Elec       q    Type
DOCKED: REMARK                         _______ _______ _______ _____ _____    ______ ____
DOCKED: USER                              x       y       z     vdW  Elec       q    Type
DOCKED: USER                           _______ _______ _______ _____ _____    ______ ____
DOCKED: ROOT
DOCKED: ATOM      1  N   UNL     1      35.229  17.816 123.965 -0.29 -0.00    +0.000 N 
DOCKED: ATOM      2  H   UNL     1      35.162  17.524 122.990 -0.00 -0.00    +0.000 HD
DOCKED: ENDROOT
DOCKED: BRANCH   1   3
DOCKED: ATOM      3  C   UNL     1      36.371  17.108 124.582 -0.19 -0.00    +0.000 C 
DOCKED: BRANCH   3   7
DOCKED: ATOM      4  C   UNL     1      36.736  13.143 122.887 -0.52 -0.00    +0.000 A 
DOCKED: ATOM      5  C   UNL     1      35.565  13.524 123.564 -0.41 -0.00    +0.000 A 
DOCKED: ATOM      6  C   UNL     1      35.447  14.800 124.120 -0.48 -0.00    +0.000 A 
DOCKED: ATOM      7  C   UNL     1      36.496  15.724 124.003 -0.24 -0.00    +0.000 A 
DOCKED: ATOM      8  C   UNL     1      37.658  15.357 123.311 -0.30 -0.00    +0.000 A 
DOCKED: ATOM      9  C   UNL     1      37.779  14.080 122.754 -0.44 -0.00    +0.000 A 
DOCKED: ATOM     10  CM  UNL     1      36.613  14.438 123.440 +0.00 -0.00    +0.000 AC
DOCKED: BRANCH   4  11
DOCKED: ATOM     11  C   UNL     1      36.857  10.659 123.040 -0.66 -0.00    +0.000 C 
DOCKED: ATOM     12  C   UNL     1      36.806  11.779 122.305 -0.62 -0.00    +0.000 C 
DOCKED: BRANCH  10  13
DOCKED: ATOM     13  O   UNL     1      36.841   9.186 121.203 -2.67 -0.00    +0.000 OA
DOCKED: ATOM     14  C   UNL     1      36.926   9.304 122.454 -0.67 -0.00    +0.000 C 
DOCKED: ATOM     15  N   UNL     1      37.115   8.130 123.256 -0.73 -0.00    +0.000 N 
DOCKED: ATOM     16  H   UNL     1      37.285   8.218 124.221 -0.39 -0.00    +0.000 HD
DOCKED: BRANCH  14  16
DOCKED: ATOM     17  O   UNL     1      37.059   6.902 122.689 -1.58 -0.00    +0.000 OA
DOCKED: ATOM     18  H   UNL     1      37.088   6.991 121.723 -0.15 -0.00    +0.000 HD
DOCKED: ENDBRANCH  14  16
DOCKED: ENDBRANCH  10  13
DOCKED: ENDBRANCH   4  11
DOCKED: ENDBRANCH   3   7
DOCKED: ENDBRANCH   1   3
DOCKED: BRANCH   1  18
DOCKED: ATOM     19  C   UNL     1      33.943  17.413 124.584 -0.38 -0.00    +0.000 C 
DOCKED: BRANCH  18  19
DOCKED: ATOM     20  C   UNL     1      34.060  17.232 126.106 -0.41 -0.00    +0.000 C 
DOCKED: BRANCH  19  20
DOCKED: ATOM     21  O   UNL     1      33.601  15.968 126.503 -1.07 -0.00    +0.000 OA
DOCKED: ATOM     22  H   UNL     1      32.634  15.938 126.432 -0.27 -0.00    +0.000 HD
DOCKED: ENDBRANCH  19  20
DOCKED: ENDBRANCH  18  19
DOCKED: ENDBRANCH   1  18
DOCKED: BRANCH   1  22
DOCKED: ATOM     23  C   UNL     1      35.448  19.281 123.905 -0.19 -0.00    +0.000 C 
DOCKED: BRANCH  22  23
DOCKED: ATOM     24  C   UNL     1      36.092  19.770 122.592 -0.16 -0.00    +0.000 C 
DOCKED: BRANCH  23  24
DOCKED: ATOM     25  C   UNL     1      37.351  19.007 122.316 -0.10 -0.00    +0.000 A 
DOCKED: ATOM     26  C   UNL     1      37.621  18.227 121.194 -0.08 -0.00    +0.000 A 
DOCKED: ATOM     27  N   UNL     1      38.824  17.623 121.319 -0.08 -0.00    +0.000 N 
DOCKED: ATOM     28  C   UNL     1      39.309  18.002 122.514 -0.11 -0.00    +0.000 A 
DOCKED: ATOM     29  C   UNL     1      38.435  18.842 123.155 -0.09 -0.00    +0.000 A 
DOCKED: ATOM     30  C   UNL     1      38.701  19.351 124.427 -0.11 -0.00    +0.000 A 
DOCKED: ATOM     31  C   UNL     1      39.913  18.981 125.040 -0.18 -0.00    +0.000 A 
DOCKED: ATOM     32  C   UNL     1      40.816  18.120 124.378 -0.27 -0.00    +0.000 A 
DOCKED: ATOM     33  C   UNL     1      40.515  17.618 123.098 -0.21 -0.00    +0.000 A 
DOCKED: ATOM     34  H   UNL     1      39.257  17.027 120.666 +0.01 -0.00    +0.000 HD
DOCKED: ATOM     35  CM  UNL     1      38.325  18.317 122.075 +0.00 -0.00    +0.000 AC
DOCKED: ATOM     36  CM  UNL     1      39.616  18.486 123.768 +0.00 -0.00    +0.000 AC
DOCKED: ENDBRANCH  23  24
DOCKED: ENDBRANCH  22  23
DOCKED: ENDBRANCH   1  22
DOCKED: TORSDOF 11DOCKED: TER
DOCKED: ENDMDL
________________________________________________________________________________


	BEGINNING GENETIC ALGORITHM DOCKING 99 of 100
Run: 99 Seed: 792996679 1729939413 [ Run 99 of 100 GA/GALS ]
Beginning LAMARCKIAN GENETIC ALGORITHM (LGA), with a maximum of 2500000 energy evaluations.

Final-Value: -17.789


	FINAL GENETIC ALGORITHM DOCKED STATE
	_______________________________________________


Detailed state:  trans 37.164 16.932 123.680 quatxyzw 0.790340 -0.607027 0.016615 0.081267 center 0.460 0.128 -0.007 ntor 11 8.6090 173.7084 -110.5366 40.9937 50.0923 82.2300 150.2948 -109.1139 84.0059 11.0783 3.9408
State:	 37.164  16.932 123.680   0.793 -0.609  0.017 170.677      8.61  173.71 -110.54   40.99   50.09   82.23  150.29 -109.11   84.01   11.08    3.94

DOCKED: MODEL       99
DOCKED: USER    Run = 99
DOCKED: USER    DPF = ligand_dock.biased.dpf
DOCKED: USER  
DOCKED: USER    Estimated Free Energy of Binding    =  -12.16 kcal/mol  [=(1)+(2)+(3)-(4)]
DOCKED: USER    Estimated Inhibition Constant, Ki   =    1.22 nM (nanomolar)  [Temperature = 298.15 K]
DOCKED: USER    
DOCKED: USER    (1) Final Intermolecular Energy     =  -15.44 kcal/mol
DOCKED: USER        vdW + Hbond + desolv Energy     =  -15.44 kcal/mol
DOCKED: USER        Electrostatic Energy            =   +0.00 kcal/mol
DOCKED: USER    (2) Final Total Internal Energy     =   -2.35 kcal/mol
DOCKED: USER    (3) Torsional Free Energy           =   +3.28 kcal/mol
DOCKED: USER    (4) Unbound System's Energy  [=(2)] =   -2.35 kcal/mol
DOCKED: USER    
DOCKED: USER    
DOCKED: USER    NEWDPF move ligand.dum.pdbqt
DOCKED: USER    NEWDPF about 0.460000 0.128000 -0.007000
DOCKED: USER    NEWDPF tran0 37.163517 16.931762 123.679548
DOCKED: USER    NEWDPF quaternion0 0.790340 -0.607027 0.016615 0.081267
DOCKED: USER    NEWDPF axisangle0 0.792963 -0.609042 0.016670 170.677234
DOCKED: USER    NEWDPF quat0 0.792963 -0.609042 0.016670 170.677234
DOCKED: USER    NEWDPF dihe0 8.61 173.71 -110.54 40.99 50.09 82.23 150.29 -109.11 84.01 11.08 3.94 
DOCKED: USER  keepresnum = 1 
DOCKED: USER  
DOCKED: REMARK  Name = 
DOCKED: REMARK  11 active torsions:
DOCKED: REMARK  status: ('A' for Active; 'I' for Inactive)
DOCKED: REMARK    1  A    between atoms: C_2  and  C_5
DOCKED: REMARK    2  A    between atoms: N_3  and  O_4
DOCKED: REMARK    3  A    between atoms: C_6  and  C_7
DOCKED: REMARK    4  A    between atoms: C_10  and  C_11
DOCKED: REMARK    5  A    between atoms: C_11  and  N_12
DOCKED: REMARK    6  A    between atoms: N_12  and  C_13
DOCKED: REMARK    7  A    between atoms: N_12  and  C_16
DOCKED: REMARK    8  A    between atoms: C_13  and  C_14
DOCKED: REMARK    9  A    between atoms: C_14  and  O_15
DOCKED: REMARK   10  A    between atoms: C_16  and  C_17
DOCKED: REMARK   11  A    between atoms: C_17  and  C_18
DOCKED: REMARK                            x       y       z     vdW  Elec       q    Type
DOCKED: REMARK                         _______ _______ _______ _____ _____    ______ ____
DOCKED: USER                              x       y       z     vdW  Elec       q    Type
DOCKED: USER                           _______ _______ _______ _____ _____    ______ ____
DOCKED: ROOT
DOCKED: ATOM      1  N   UNL     1      38.108  18.141 123.941 -0.17 -0.00    +0.000 N 
DOCKED: ATOM      2  H   UNL     1      38.058  17.471 124.709 -0.02 -0.00    +0.000 HD
DOCKED: ENDROOT
DOCKED: BRANCH   1   3
DOCKED: ATOM      3  C   UNL     1      37.317  17.609 122.811 -0.19 -0.00    +0.000 C 
DOCKED: BRANCH   3   7
DOCKED: ATOM      4  C   UNL     1      37.370  13.282 122.907 -0.50 -0.00    +0.000 A 
DOCKED: ATOM      5  C   UNL     1      38.216  13.986 122.034 -0.40 -0.00    +0.000 A 
DOCKED: ATOM      6  C   UNL     1      38.196  15.383 121.993 -0.28 -0.00    +0.000 A 
DOCKED: ATOM      7  C   UNL     1      37.333  16.103 122.832 -0.27 -0.00    +0.000 A 
DOCKED: ATOM      8  C   UNL     1      36.501  15.407 123.721 -0.36 -0.00    +0.000 A 
DOCKED: ATOM      9  C   UNL     1      36.519  14.010 123.762 -0.44 -0.00    +0.000 A 
DOCKED: ATOM     10  CM  UNL     1      37.356  14.696 122.875 +0.00 -0.00    +0.000 AC
DOCKED: BRANCH   4  11
DOCKED: ATOM     11  C   UNL     1      36.890  11.023 121.973 -0.58 -0.00    +0.000 C 
DOCKED: ATOM     12  C   UNL     1      37.438  11.799 122.918 -0.44 -0.00    +0.000 C 
DOCKED: BRANCH  10  13
DOCKED: ATOM     13  O   UNL     1      37.025   8.936 120.890 -2.71 -0.00    +0.000 OA
DOCKED: ATOM     14  C   UNL     1      36.962   9.546 121.990 -0.63 -0.00    +0.000 C 
DOCKED: ATOM     15  N   UNL     1      36.990   8.795 123.211 -0.67 -0.00    +0.000 N 
DOCKED: ATOM     16  H   UNL     1      37.045   9.263 124.074 -0.54 -0.00    +0.000 HD
DOCKED: BRANCH  14  16
DOCKED: ATOM     17  O   UNL     1      36.942   7.441 123.178 -2.15 -0.00    +0.000 OA
DOCKED: ATOM     18  H   UNL     1      37.027   7.138 122.260 -0.10 -0.00    +0.000 HD
DOCKED: ENDBRANCH  14  16
DOCKED: ENDBRANCH  10  13
DOCKED: ENDBRANCH   4  11
DOCKED: ENDBRANCH   3   7
DOCKED: ENDBRANCH   1   3
DOCKED: BRANCH   1  18
DOCKED: ATOM     19  C   UNL     1      39.547  18.238 123.598 -0.19 -0.00    +0.000 C 
DOCKED: BRANCH  18  19
DOCKED: ATOM     20  C   UNL     1      40.436  17.467 124.587 -0.19 -0.00    +0.000 C 
DOCKED: BRANCH  19  20
DOCKED: ATOM     21  O   UNL     1      41.727  17.284 124.072 -0.74 -0.00    +0.000 OA
DOCKED: ATOM     22  H   UNL     1      42.361  17.795 124.598 -0.61 -0.00    +0.000 HD
DOCKED: ENDBRANCH  19  20
DOCKED: ENDBRANCH  18  19
DOCKED: ENDBRANCH   1  18
DOCKED: BRANCH   1  22
DOCKED: ATOM     23  C   UNL     1      37.524  19.388 124.491 -0.14 -0.00    +0.000 C 
DOCKED: BRANCH  22  23
DOCKED: ATOM     24  C   UNL     1      36.057  19.632 124.082 -0.20 -0.00    +0.000 C 
DOCKED: BRANCH  23  24
DOCKED: ATOM     25  C   UNL     1      35.182  18.537 124.611 -0.26 -0.00    +0.000 A 
DOCKED: ATOM     26  C   UNL     1      34.439  17.630 123.860 -0.37 -0.00    +0.000 A 
DOCKED: ATOM     27  N   UNL     1      33.706  16.835 124.671 -0.36 -0.00    +0.000 N 
DOCKED: ATOM     28  C   UNL     1      33.968  17.240 125.926 -0.37 -0.00    +0.000 A 
DOCKED: ATOM     29  C   UNL     1      34.860  18.282 125.929 -0.25 -0.00    +0.000 A 
DOCKED: ATOM     30  C   UNL     1      35.269  18.897 127.113 -0.15 -0.00    +0.000 A 
DOCKED: ATOM     31  C   UNL     1      34.742  18.406 128.322 -0.14 -0.00    +0.000 A 
DOCKED: ATOM     32  C   UNL     1      33.827  17.330 128.320 -0.25 -0.00    +0.000 A 
DOCKED: ATOM     33  C   UNL     1      33.429  16.735 127.108 -0.39 -0.00    +0.000 A 
DOCKED: ATOM     34  H   UNL     1      33.103  16.106 124.398 +0.04 -0.00    +0.000 HD
DOCKED: ATOM     35  CM  UNL     1      34.408  17.677 124.989 -0.41 -0.00    +0.000 AC
DOCKED: ATOM     36  CM  UNL     1      34.349  17.814 127.120 -0.02 -0.00    +0.000 AC
DOCKED: ENDBRANCH  23  24
DOCKED: ENDBRANCH  22  23
DOCKED: ENDBRANCH   1  22
DOCKED: TORSDOF 11DOCKED: TER
DOCKED: ENDMDL
________________________________________________________________________________


	BEGINNING GENETIC ALGORITHM DOCKING 100 of 100
Run: 100 Seed: 1410798051 72183286 [ Run 100 of 100 GA/GALS ]
Beginning LAMARCKIAN GENETIC ALGORITHM (LGA), with a maximum of 2500000 energy evaluations.

Final-Value: -16.144


	FINAL GENETIC ALGORITHM DOCKED STATE
	_______________________________________________


Detailed state:  trans 36.584 17.140 122.789 quatxyzw -0.310913 0.405490 -0.630075 -0.584736 center 0.460 0.128 -0.007 ntor 11 9.0650 152.9929 117.5563 18.3007 -162.5905 -95.4822 -25.5456 -108.5851 -18.6479 -78.9538 -1.8140
State:	 36.584  17.140 122.789  -0.383  0.500 -0.777 -108.431      9.07  152.99  117.56   18.30 -162.59  -95.48  -25.55 -108.59  -18.65  -78.95   -1.81

DOCKED: MODEL      100
DOCKED: USER    Run = 100
DOCKED: USER    DPF = ligand_dock.biased.dpf
DOCKED: USER  
DOCKED: USER    Estimated Free Energy of Binding    =   -9.82 kcal/mol  [=(1)+(2)+(3)-(4)]
DOCKED: USER    Estimated Inhibition Constant, Ki   =   63.09 nM (nanomolar)  [Temperature = 298.15 K]
DOCKED: USER    
DOCKED: USER    (1) Final Intermolecular Energy     =  -13.10 kcal/mol
DOCKED: USER        vdW + Hbond + desolv Energy     =  -13.10 kcal/mol
DOCKED: USER        Electrostatic Energy            =   +0.00 kcal/mol
DOCKED: USER    (2) Final Total Internal Energy     =   -3.04 kcal/mol
DOCKED: USER    (3) Torsional Free Energy           =   +3.28 kcal/mol
DOCKED: USER    (4) Unbound System's Energy  [=(2)] =   -3.04 kcal/mol
DOCKED: USER    
DOCKED: USER    
DOCKED: USER    NEWDPF move ligand.dum.pdbqt
DOCKED: USER    NEWDPF about 0.460000 0.128000 -0.007000
DOCKED: USER    NEWDPF tran0 36.584184 17.139900 122.788760
DOCKED: USER    NEWDPF quaternion0 -0.310913 0.405490 -0.630075 -0.584736
DOCKED: USER    NEWDPF axisangle0 -0.383264 0.499850 -0.776697 -108.431367
DOCKED: USER    NEWDPF quat0 -0.383264 0.499850 -0.776697 -108.431367
DOCKED: USER    NEWDPF dihe0 9.07 152.99 117.56 18.30 -162.59 -95.48 -25.55 -108.59 -18.65 -78.95 -1.81 
DOCKED: USER  keepresnum = 1 
DOCKED: USER  
DOCKED: REMARK  Name = 
DOCKED: REMARK  11 active torsions:
DOCKED: REMARK  status: ('A' for Active; 'I' for Inactive)
DOCKED: REMARK    1  A    between atoms: C_2  and  C_5
DOCKED: REMARK    2  A    between atoms: N_3  and  O_4
DOCKED: REMARK    3  A    between atoms: C_6  and  C_7
DOCKED: REMARK    4  A    between atoms: C_10  and  C_11
DOCKED: REMARK    5  A    between atoms: C_11  and  N_12
DOCKED: REMARK    6  A    between atoms: N_12  and  C_13
DOCKED: REMARK    7  A    between atoms: N_12  and  C_16
DOCKED: REMARK    8  A    between atoms: C_13  and  C_14
DOCKED: REMARK    9  A    between atoms: C_14  and  O_15
DOCKED: REMARK   10  A    between atoms: C_16  and  C_17
DOCKED: REMARK   11  A    between atoms: C_17  and  C_18
DOCKED: REMARK                            x       y       z     vdW  Elec       q    Type
DOCKED: REMARK                         _______ _______ _______ _____ _____    ______ ____
DOCKED: USER                              x       y       z     vdW  Elec       q    Type
DOCKED: USER                           _______ _______ _______ _____ _____    ______ ____
DOCKED: ROOT
DOCKED: ATOM      1  N   UNL     1      36.088  18.050 123.950 -0.22 -0.00    +0.000 N 
DOCKED: ATOM      2  H   UNL     1      35.342  17.605 123.415 -0.00 -0.00    +0.000 HD
DOCKED: ENDROOT
DOCKED: BRANCH   1   3
DOCKED: ATOM      3  C   UNL     1      37.383  17.540 123.451 -0.23 -0.00    +0.000 C 
DOCKED: BRANCH   3   7
DOCKED: ATOM      4  C   UNL     1      37.004  13.367 122.366 -0.46 -0.00    +0.000 A 
DOCKED: ATOM      5  C   UNL     1      38.161  14.089 122.030 -0.40 -0.00    +0.000 A 
DOCKED: ATOM      6  C   UNL     1      38.284  15.439 122.371 -0.30 -0.00    +0.000 A 
DOCKED: ATOM      7  C   UNL     1      37.253  16.091 123.062 -0.28 -0.00    +0.000 A 
DOCKED: ATOM      8  C   UNL     1      36.104  15.371 123.419 -0.40 -0.00    +0.000 A 
DOCKED: ATOM      9  C   UNL     1      35.979  14.021 123.078 -0.38 -0.00    +0.000 A 
DOCKED: ATOM     10  CM  UNL     1      37.131  14.730 122.721 +0.00 -0.00    +0.000 AC
DOCKED: BRANCH   4  11
DOCKED: ATOM     11  C   UNL     1      37.063  10.927 122.866 -0.61 -0.00    +0.000 C 
DOCKED: ATOM     12  C   UNL     1      36.929  11.933 121.991 -0.58 -0.00    +0.000 C 
DOCKED: BRANCH  10  13
DOCKED: ATOM     13  O   UNL     1      36.796   9.213 121.274 -2.60 -0.00    +0.000 OA
DOCKED: ATOM     14  C   UNL     1      36.986   9.501 122.485 -0.64 -0.00    +0.000 C 
DOCKED: ATOM     15  N   UNL     1      37.148   8.442 123.439 -0.68 -0.00    +0.000 N 
DOCKED: ATOM     16  H   UNL     1      37.399   8.652 124.367 -0.54 -0.00    +0.000 HD
DOCKED: BRANCH  14  16
DOCKED: ATOM     17  O   UNL     1      36.957   7.154 123.065 -1.93 -0.00    +0.000 OA
DOCKED: ATOM     18  H   UNL     1      36.858   7.109 122.102 -0.09 -0.00    +0.000 HD
DOCKED: ENDBRANCH  14  16
DOCKED: ENDBRANCH  10  13
DOCKED: ENDBRANCH   4  11
DOCKED: ENDBRANCH   3   7
DOCKED: ENDBRANCH   1   3
DOCKED: BRANCH   1  18
DOCKED: ATOM     19  C   UNL     1      35.853  17.648 125.358 -0.12 -0.00    +0.000 C 
DOCKED: BRANCH  18  19
DOCKED: ATOM     20  C   UNL     1      34.365  17.405 125.655 -0.40 -0.00    +0.000 C 
DOCKED: BRANCH  19  20
DOCKED: ATOM     21  O   UNL     1      33.702  16.888 124.533 -0.47 -0.00    +0.000 OA
DOCKED: ATOM     22  H   UNL     1      33.713  15.920 124.567 -0.04 -0.00    +0.000 HD
DOCKED: ENDBRANCH  19  20
DOCKED: ENDBRANCH  18  19
DOCKED: ENDBRANCH   1  18
DOCKED: BRANCH   1  22
DOCKED: ATOM     23  C   UNL     1      35.924  19.501 123.691 -0.21 -0.00    +0.000 C 
DOCKED: BRANCH  22  23
DOCKED: ATOM     24  C   UNL     1      36.543  20.410 124.771 -0.14 -0.00    +0.000 C 
DOCKED: BRANCH  23  24
DOCKED: ATOM     25  C   UNL     1      38.027  20.210 124.829 -0.07 -0.00    +0.000 A 
DOCKED: ATOM     26  C   UNL     1      38.951  20.552 123.844 -0.04 -0.00    +0.000 A 
DOCKED: ATOM     27  N   UNL     1      40.192  20.154 124.204 -0.07 -0.00    +0.000 N 
DOCKED: ATOM     28  C   UNL     1      40.058  19.552 125.399 -0.14 -0.00    +0.000 A 
DOCKED: ATOM     29  C   UNL     1      38.750  19.561 125.810 -0.12 -0.00    +0.000 A 
DOCKED: ATOM     30  C   UNL     1      38.350  18.970 127.009 -0.15 -0.00    +0.000 A 
DOCKED: ATOM     31  C   UNL     1      39.343  18.364 127.803 -0.19 -0.00    +0.000 A 
DOCKED: ATOM     32  C   UNL     1      40.691  18.358 127.383 -0.35 -0.00    +0.000 A 
DOCKED: ATOM     33  C   UNL     1      41.061  18.957 126.163 -0.26 -0.00    +0.000 A 
DOCKED: ATOM     34  H   UNL     1      41.024  20.280 123.695 +0.00 -0.00    +0.000 HD
DOCKED: ATOM     35  CM  UNL     1      39.228  20.010 124.798 +0.00 -0.00    +0.000 AC
DOCKED: ATOM     36  CM  UNL     1      39.709  18.961 126.595 +0.00 -0.00    +0.000 AC
DOCKED: ENDBRANCH  23  24
DOCKED: ENDBRANCH  22  23
DOCKED: ENDBRANCH   1  22
DOCKED: TORSDOF 11DOCKED: TER
DOCKED: ENDMDL
________________________________________________________________________________

DPF> analysis                             # perform a ranked cluster analysis


		CLUSTER ANALYSIS OF CONFORMATIONS
		_________________________________

Number of conformations = 100

RMSD cluster analysis will be performed using the ligand atoms only (36 / 36 total atoms).

Outputting structurally similar clusters, ranked in order of increasing energy.


________________________________________________________________________________

Number of distinct conformational clusters found = 21,  out of 100 runs,
Using an rmsd-tolerance of 2.0 A


	CLUSTERING HISTOGRAM
	____________________

________________________________________________________________________________
     |           |     |           |     |                                    
Clus | Lowest    | Run | Mean      | Num | Histogram                          
-ter | Binding   |     | Binding   | in  |                                    
Rank | Energy    |     | Energy    | Clus|    5    10   15   20   25   30   35
_____|___________|_____|___________|_____|____:____|____:____|____:____|____:___
   1 |    -12.16 |  99 |    -11.05 |  18 |##################
   2 |    -12.12 |  26 |    -11.74 |   2 |##
   3 |    -12.10 |  67 |    -10.88 |  10 |##########
   4 |    -12.01 |   8 |    -11.26 |   4 |####
   5 |    -11.66 |  92 |    -10.68 |   9 |#########
   6 |    -11.59 |  72 |    -10.68 |   5 |#####
   7 |    -11.46 |  50 |    -10.59 |  15 |###############
   8 |    -11.22 |  17 |    -11.00 |   2 |##
   9 |    -11.21 |  21 |    -10.64 |   5 |#####
  10 |    -11.04 |  22 |    -10.32 |  10 |##########
  11 |    -10.56 |  77 |    -10.34 |   5 |#####
  12 |    -10.46 |   9 |    -10.46 |   1 |#
  13 |    -10.35 |  65 |    -10.35 |   1 |#
  14 |    -10.35 |  31 |    -10.12 |   2 |##
  15 |    -10.10 |  78 |     -9.64 |   2 |##
  16 |    -10.07 |  94 |    -10.07 |   1 |#
  17 |     -9.94 |  49 |     -9.69 |   2 |##
  18 |     -9.80 |  23 |     -9.79 |   2 |##
  19 |     -9.58 |  13 |     -9.58 |   1 |#
  20 |     -9.46 |  43 |     -8.95 |   2 |##
  21 |     -9.17 |  58 |     -9.17 |   1 |#
_____|___________|_____|___________|_____|______________________________________


Number of multi-member conformational clusters found = 16, out of 100 runs.

	RMSD TABLE
	__________

_____________________________________________________________________
     |      |      |           |         |                 |
Rank | Sub- | Run  | Binding   | Cluster | Reference       | Grep
     | Rank |      | Energy    | RMSD    | RMSD            | Pattern
_____|______|______|___________|_________|_________________|___________
   1      1     99      -12.16      0.00    127.83           RANKING
   1      2     47      -11.73      0.72    127.61           RANKING
   1      3     48      -11.64      1.96    127.02           RANKING
   1      4     93      -11.49      1.76    128.82           RANKING
   1      5     68      -11.44      1.82    128.32           RANKING
   1      6     57      -11.37      1.98    127.28           RANKING
   1      7     86      -11.28      1.52    127.14           RANKING
   1      8     82      -11.22      1.75    127.84           RANKING
   1      9     54      -11.04      1.72    127.02           RANKING
   1     10     76      -10.99      1.80    127.10           RANKING
   1     11     52      -10.98      1.74    126.75           RANKING
   1     12     66      -10.75      1.86    126.67           RANKING
   1     13     39      -10.75      1.53    127.07           RANKING
   1     14     83      -10.73      1.51    127.13           RANKING
   1     15     40      -10.72      1.96    126.73           RANKING
   1     16     10      -10.54      1.06    127.42           RANKING
   1     17     63      -10.27      1.53    126.80           RANKING
   1     18     41       -9.76      1.44    126.93           RANKING
   2      1     26      -12.12      0.00    129.18           RANKING
   2      2     32      -11.36      1.31    128.45           RANKING
   3      1     67      -12.10      0.00    128.55           RANKING
   3      2     36      -11.79      1.63    128.86           RANKING
   3      3      1      -11.78      1.54    128.39           RANKING
   3      4     70      -11.31      1.98    126.96           RANKING
   3      5     19      -10.87      1.97    126.96           RANKING
   3      6     59      -10.72      1.92    126.97           RANKING
   3      7     15      -10.26      1.28    128.54           RANKING
   3      8     71      -10.11      1.73    128.34           RANKING
   3      9     14      -10.04      1.32    127.65           RANKING
   3     10    100       -9.82      1.83    128.07           RANKING
   4      1      8      -12.01      0.00    125.53           RANKING
   4      2     34      -11.49      1.06    124.96           RANKING
   4      3     55      -10.88      1.38    124.71           RANKING
   4      4      6      -10.65      1.86    124.95           RANKING
   5      1     92      -11.66      0.00    126.81           RANKING
   5      2     96      -11.26      1.48    127.19           RANKING
   5      3      2      -11.02      0.86    126.86           RANKING
   5      4     11      -10.76      1.66    126.10           RANKING
   5      5     85      -10.44      1.84    127.12           RANKING
   5      6     27      -10.42      1.33    126.74           RANKING
   5      7     95      -10.35      1.74    126.98           RANKING
   5      8     61      -10.15      1.73    126.09           RANKING
   5      9      5      -10.06      1.98    126.57           RANKING
   6      1     72      -11.59      0.00    124.14           RANKING
   6      2     45      -11.57      1.43    124.40           RANKING
   6      3     30      -10.16      1.98    125.62           RANKING
   6      4     53      -10.11      1.81    123.62           RANKING
   6      5     91       -9.97      1.77    125.14           RANKING
   7      1     50      -11.46      0.00    126.79           RANKING
   7      2     35      -11.38      1.55    126.79           RANKING
   7      3     80      -11.29      1.64    126.84           RANKING
   7      4     73      -11.16      1.82    127.05           RANKING
   7      5     29      -10.95      1.50    126.90           RANKING
   7      6     60      -10.83      1.10    126.76           RANKING
   7      7     75      -10.81      1.53    126.80           RANKING
   7      8     46      -10.73      1.59    126.71           RANKING
   7      9     51      -10.68      1.81    127.22           RANKING
   7     10     64      -10.29      1.72    126.38           RANKING
   7     11     74      -10.00      1.99    125.65           RANKING
   7     12     79       -9.99      1.98    125.92           RANKING
   7     13     81       -9.82      1.83    126.59           RANKING
   7     14      3       -9.76      1.45    126.84           RANKING
   7     15     25       -9.69      2.00    126.92           RANKING
   8      1     17      -11.22      0.00    127.29           RANKING
   8      2     98      -10.78      1.69    127.16           RANKING
   9      1     21      -11.21      0.00    127.64           RANKING
   9      2     89      -10.83      1.42    127.09           RANKING
   9      3     33      -10.78      1.33    126.83           RANKING
   9      4     28      -10.39      1.68    126.44           RANKING
   9      5     38       -9.97      1.85    127.39           RANKING
  10      1     22      -11.04      0.00    124.76           RANKING
  10      2     69      -10.76      1.83    125.69           RANKING
  10      3     90      -10.67      1.45    124.12           RANKING
  10      4     37      -10.48      1.89    124.69           RANKING
  10      5     44      -10.22      1.57    124.85           RANKING
  10      6     87      -10.19      1.86    125.40           RANKING
  10      7     16      -10.09      1.69    124.09           RANKING
  10      8     62      -10.02      1.60    123.72           RANKING
  10      9     84       -9.96      1.90    123.14           RANKING
  10     10      4       -9.80      1.71    123.94           RANKING
  11      1     77      -10.56      0.00    125.86           RANKING
  11      2     18      -10.46      1.84    124.82           RANKING
  11      3     24      -10.35      1.59    126.52           RANKING
  11      4     97      -10.23      0.87    125.52           RANKING
  11      5     12      -10.10      1.92    124.70           RANKING
  12      1      9      -10.46      0.00    125.46           RANKING
  13      1     65      -10.35      0.00    126.51           RANKING
  14      1     31      -10.35      0.00    123.74           RANKING
  14      2      7       -9.90      1.57    124.78           RANKING
  15      1     78      -10.10      0.00    126.08           RANKING
  15      2     56       -9.17      1.92    126.53           RANKING
  16      1     94      -10.07      0.00    127.41           RANKING
  17      1     49       -9.94      0.00    126.24           RANKING
  17      2     42       -9.44      0.95    126.06           RANKING
  18      1     23       -9.80      0.00    124.10           RANKING
  18      2     20       -9.79      1.84    124.29           RANKING
  19      1     13       -9.58      0.00    126.58           RANKING
  20      1     43       -9.46      0.00    123.13           RANKING
  20      2     88       -8.44      1.67    123.04           RANKING
  21      1     58       -9.17      0.00    122.71           RANKING
_______________________________________________________________________



	INFORMATION ENTROPY ANALYSIS FOR THIS CLUSTERING
	________________________________________________


Information entropy for this clustering = 0.57  (rmstol = 2.00 Angstrom)

_______________________________________________________________________


	STATISTICAL MECHANICAL ANALYSIS
	_______________________________


Partition function, Q =   101.81            at Temperature, T = 298.15 K
Free energy,        A ~ -2739.08 kcal/mol   at Temperature, T = 298.15 K
Internal energy,    U =   -10.61 kcal/mol   at Temperature, T = 298.15 K
Entropy,            S =     9.15 kcal/mol/K at Temperature, T = 298.15 K

_______________________________________________________________________


	LOWEST ENERGY DOCKED CONFORMATION from EACH CLUSTER
	___________________________________________________



Keeping original residue number (specified in the input PDBQ file) for outputting.

MODEL       99
USER    Run = 99
USER    Cluster Rank = 1
USER    Number of conformations in this cluster = 18
USER  
USER    RMSD from reference structure       = 127.826 A
USER  
USER    Estimated Free Energy of Binding    =  -12.16 kcal/mol  [=(1)+(2)+(3)-(4)]
USER    Estimated Inhibition Constant, Ki   =    1.22 nM (nanomolar)  [Temperature = 298.15 K]
USER    
USER    (1) Final Intermolecular Energy     =  -15.44 kcal/mol
USER        vdW + Hbond + desolv Energy     =  -15.44 kcal/mol
USER        Electrostatic Energy            =   +0.00 kcal/mol
USER    (2) Final Total Internal Energy     =   -2.35 kcal/mol
USER    (3) Torsional Free Energy           =   +3.28 kcal/mol
USER    (4) Unbound System's Energy  [=(2)] =   -2.35 kcal/mol
USER    
USER    
USER  
USER    DPF = ligand_dock.biased.dpf
USER    NEWDPF move	ligand.dum.pdbqt
USER    NEWDPF about	0.460000 0.128000 -0.007000
USER    NEWDPF tran0	37.163517 16.931762 123.679548
USER    NEWDPF axisangle0	0.792963 -0.609042 0.016670 170.677234
USER    NEWDPF quaternion0	0.790340 -0.607027 0.016615 0.081267
USER    NEWDPF dihe0	8.61 173.71 -110.54 40.99 50.09 82.23 150.29 -109.11 84.01 11.08 3.94 
USER  
USER                              x       y       z    vdW   Elec        q     RMS 
ATOM      1  N   UNL     1      38.108  18.141 123.941 -0.17 -0.00    +0.000    127.826
ATOM      2  H   UNL     1      38.058  17.471 124.709 -0.02 -0.00    +0.000    127.826
ATOM      3  C   UNL     1      37.317  17.609 122.811 -0.19 -0.00    +0.000    127.826
ATOM      4  C   UNL     1      37.370  13.282 122.907 -0.50 -0.00    +0.000    127.826
ATOM      5  C   UNL     1      38.216  13.986 122.034 -0.40 -0.00    +0.000    127.826
ATOM      6  C   UNL     1      38.196  15.383 121.993 -0.28 -0.00    +0.000    127.826
ATOM      7  C   UNL     1      37.333  16.103 122.832 -0.27 -0.00    +0.000    127.826
ATOM      8  C   UNL     1      36.501  15.407 123.721 -0.36 -0.00    +0.000    127.826
ATOM      9  C   UNL     1      36.519  14.010 123.762 -0.44 -0.00    +0.000    127.826
ATOM     10  CM  UNL     1      37.356  14.696 122.875 +0.00 -0.00    +0.000    127.826
ATOM     11  C   UNL     1      36.890  11.023 121.973 -0.58 -0.00    +0.000    127.826
ATOM     12  C   UNL     1      37.438  11.799 122.918 -0.44 -0.00    +0.000    127.826
ATOM     13  O   UNL     1      37.025   8.936 120.890 -2.71 -0.00    +0.000    127.826
ATOM     14  C   UNL     1      36.962   9.546 121.990 -0.63 -0.00    +0.000    127.826
ATOM     15  N   UNL     1      36.990   8.795 123.211 -0.67 -0.00    +0.000    127.826
ATOM     16  H   UNL     1      37.045   9.263 124.074 -0.54 -0.00    +0.000    127.826
ATOM     17  O   UNL     1      36.942   7.441 123.178 -2.15 -0.00    +0.000    127.826
ATOM     18  H   UNL     1      37.027   7.138 122.260 -0.10 -0.00    +0.000    127.826
ATOM     19  C   UNL     1      39.547  18.238 123.598 -0.19 -0.00    +0.000    127.826
ATOM     20  C   UNL     1      40.436  17.467 124.587 -0.19 -0.00    +0.000    127.826
ATOM     21  O   UNL     1      41.727  17.284 124.072 -0.74 -0.00    +0.000    127.826
ATOM     22  H   UNL     1      42.361  17.795 124.598 -0.61 -0.00    +0.000    127.826
ATOM     23  C   UNL     1      37.524  19.388 124.491 -0.14 -0.00    +0.000    127.826
ATOM     24  C   UNL     1      36.057  19.632 124.082 -0.20 -0.00    +0.000    127.826
ATOM     25  C   UNL     1      35.182  18.537 124.611 -0.26 -0.00    +0.000    127.826
ATOM     26  C   UNL     1      34.439  17.630 123.860 -0.37 -0.00    +0.000    127.826
ATOM     27  N   UNL     1      33.706  16.835 124.671 -0.36 -0.00    +0.000    127.826
ATOM     28  C   UNL     1      33.968  17.240 125.926 -0.37 -0.00    +0.000    127.826
ATOM     29  C   UNL     1      34.860  18.282 125.929 -0.25 -0.00    +0.000    127.826
ATOM     30  C   UNL     1      35.269  18.897 127.113 -0.15 -0.00    +0.000    127.826
ATOM     31  C   UNL     1      34.742  18.406 128.322 -0.14 -0.00    +0.000    127.826
ATOM     32  C   UNL     1      33.827  17.330 128.320 -0.25 -0.00    +0.000    127.826
ATOM     33  C   UNL     1      33.429  16.735 127.108 -0.39 -0.00    +0.000    127.826
ATOM     34  H   UNL     1      33.103  16.106 124.398 +0.04 -0.00    +0.000    127.826
ATOM     35  CM  UNL     1      34.408  17.677 124.989 -0.41 -0.00    +0.000    127.826
ATOM     36  CM  UNL     1      34.349  17.814 127.120 -0.02 -0.00    +0.000    127.826
TER
ENDMDL
MODEL       26
USER    Run = 26
USER    Cluster Rank = 2
USER    Number of conformations in this cluster = 2
USER  
USER    RMSD from reference structure       = 129.183 A
USER  
USER    Estimated Free Energy of Binding    =  -12.12 kcal/mol  [=(1)+(2)+(3)-(4)]
USER    Estimated Inhibition Constant, Ki   =    1.30 nM (nanomolar)  [Temperature = 298.15 K]
USER    
USER    (1) Final Intermolecular Energy     =  -15.40 kcal/mol
USER        vdW + Hbond + desolv Energy     =  -15.40 kcal/mol
USER        Electrostatic Energy            =   +0.00 kcal/mol
USER    (2) Final Total Internal Energy     =   -2.78 kcal/mol
USER    (3) Torsional Free Energy           =   +3.28 kcal/mol
USER    (4) Unbound System's Energy  [=(2)] =   -2.78 kcal/mol
USER    
USER    
USER  
USER    DPF = ligand_dock.biased.dpf
USER    NEWDPF move	ligand.dum.pdbqt
USER    NEWDPF about	0.460000 0.128000 -0.007000
USER    NEWDPF tran0	35.967713 16.853387 124.184415
USER    NEWDPF axisangle0	0.979356 0.024860 -0.200610 150.605404
USER    NEWDPF quaternion0	0.947311 0.024047 -0.194046 0.253712
USER    NEWDPF dihe0	-0.48 -22.17 62.21 29.49 73.02 -136.79 165.01 32.30 -66.24 -175.64 71.16 
USER  
USER                              x       y       z    vdW   Elec        q     RMS 
ATOM      1  N   UNL     1      35.173  17.798 125.134 -0.29 -0.00    +0.000    129.183
ATOM      2  H   UNL     1      36.018  17.399 125.545 -0.02 -0.00    +0.000    129.183
ATOM      3  C   UNL     1      35.111  17.384 123.715 -0.38 -0.00    +0.000    129.183
ATOM      4  C   UNL     1      36.550  13.329 123.249 -0.53 -0.00    +0.000    129.183
ATOM      5  C   UNL     1      35.297  13.579 123.833 -0.13 -0.00    +0.000    129.183
ATOM      6  C   UNL     1      34.832  14.887 123.994 -0.49 -0.00    +0.000    129.183
ATOM      7  C   UNL     1      35.610  15.972 123.565 -0.40 -0.00    +0.000    129.183
ATOM      8  C   UNL     1      36.853  15.729 122.962 -0.32 -0.00    +0.000    129.183
ATOM      9  C   UNL     1      37.320  14.422 122.802 -0.41 -0.00    +0.000    129.183
ATOM     10  CM  UNL     1      36.077  14.653 123.401 +0.00 -0.00    +0.000    129.183
ATOM     11  C   UNL     1      36.369  11.029 122.310 -0.66 -0.00    +0.000    129.183
ATOM     12  C   UNL     1      36.992  11.921 123.092 -0.66 -0.00    +0.000    129.183
ATOM     13  O   UNL     1      37.065   9.200 121.000 -2.74 -0.00    +0.000    129.183
ATOM     14  C   UNL     1      36.815   9.628 122.158 -0.66 -0.00    +0.000    129.183
ATOM     15  N   UNL     1      36.998   8.756 123.282 -0.66 -0.00    +0.000    129.183
ATOM     16  H   UNL     1      36.905   9.108 124.196 -0.52 -0.00    +0.000    129.183
ATOM     17  O   UNL     1      37.298   7.449 123.087 -2.08 -0.00    +0.000    129.183
ATOM     18  H   UNL     1      37.343   7.267 122.136 -0.13 -0.00    +0.000    129.183
ATOM     19  C   UNL     1      35.330  19.266 125.264 -0.23 -0.00    +0.000    129.183
ATOM     20  C   UNL     1      36.387  19.649 126.313 -0.14 -0.00    +0.000    129.183
ATOM     21  O   UNL     1      36.588  18.610 127.233 -0.19 -0.00    +0.000    129.183
ATOM     22  H   UNL     1      35.908  18.651 127.922 -0.01 -0.00    +0.000    129.183
ATOM     23  C   UNL     1      34.061  17.226 125.930 -0.42 -0.00    +0.000    129.183
ATOM     24  C   UNL     1      33.348  18.246 126.841 -0.32 -0.00    +0.000    129.183
ATOM     25  C   UNL     1      32.681  17.543 127.984 -0.30 -0.00    +0.000    129.183
ATOM     26  C   UNL     1      31.323  17.256 128.105 -0.27 -0.00    +0.000    129.183
ATOM     27  N   UNL     1      31.068  16.684 129.304 -0.46 -0.00    +0.000    129.183
ATOM     28  C   UNL     1      32.247  16.621 129.945 -0.29 -0.00    +0.000    129.183
ATOM     29  C   UNL     1      33.255  17.141 129.174 -0.26 -0.00    +0.000    129.183
ATOM     30  C   UNL     1      34.571  17.214 129.632 -0.18 -0.00    +0.000    129.183
ATOM     31  C   UNL     1      34.843  16.722 130.922 -0.19 -0.00    +0.000    129.183
ATOM     32  C   UNL     1      33.807  16.181 131.716 -0.23 -0.00    +0.000    129.183
ATOM     33  C   UNL     1      32.488  16.128 131.227 -0.21 -0.00    +0.000    129.183
ATOM     34  H   UNL     1      30.195  16.377 129.638 -0.61 -0.00    +0.000    129.183
ATOM     35  CM  UNL     1      32.081  17.038 128.915 +0.00 -0.00    +0.000    129.183
ATOM     36  CM  UNL     1      33.535  16.667 130.436 +0.00 -0.00    +0.000    129.183
TER
ENDMDL
MODEL       67
USER    Run = 67
USER    Cluster Rank = 3
USER    Number of conformations in this cluster = 10
USER  
USER    RMSD from reference structure       = 128.554 A
USER  
USER    Estimated Free Energy of Binding    =  -12.10 kcal/mol  [=(1)+(2)+(3)-(4)]
USER    Estimated Inhibition Constant, Ki   =    1.34 nM (nanomolar)  [Temperature = 298.15 K]
USER    
USER    (1) Final Intermolecular Energy     =  -15.38 kcal/mol
USER        vdW + Hbond + desolv Energy     =  -15.38 kcal/mol
USER        Electrostatic Energy            =   +0.00 kcal/mol
USER    (2) Final Total Internal Energy     =   -1.94 kcal/mol
USER    (3) Torsional Free Energy           =   +3.28 kcal/mol
USER    (4) Unbound System's Energy  [=(2)] =   -1.94 kcal/mol
USER    
USER    
USER  
USER    DPF = ligand_dock.biased.dpf
USER    NEWDPF move	ligand.dum.pdbqt
USER    NEWDPF about	0.460000 0.128000 -0.007000
USER    NEWDPF tran0	36.928342 16.986624 123.714993
USER    NEWDPF axisangle0	0.813566 -0.430895 -0.390436 -169.829739
USER    NEWDPF quaternion0	0.810364 -0.429199 -0.388899 -0.088636
USER    NEWDPF dihe0	48.82 -36.36 155.18 180.00 81.04 -124.18 -111.72 -99.13 158.55 -128.02 21.16 
USER  
USER                              x       y       z    vdW   Elec        q     RMS 
ATOM      1  N   UNL     1      37.407  18.467 123.645 -0.14 -0.00    +0.000    128.554
ATOM      2  H   UNL     1      38.124  17.805 123.944 -0.01 -0.00    +0.000    128.554
ATOM      3  C   UNL     1      36.195  17.701 123.282 -0.26 -0.00    +0.000    128.554
ATOM      4  C   UNL     1      37.121  13.486 122.954 -0.49 -0.00    +0.000    128.554
ATOM      5  C   UNL     1      36.154  13.935 123.869 -0.47 -0.00    +0.000    128.554
ATOM      6  C   UNL     1      35.858  15.296 123.984 -0.42 -0.00    +0.000    128.554
ATOM      7  C   UNL     1      36.520  16.235 123.180 -0.30 -0.00    +0.000    128.554
ATOM      8  C   UNL     1      37.471  15.792 122.250 -0.26 -0.00    +0.000    128.554
ATOM      9  C   UNL     1      37.769  14.431 122.133 -0.37 -0.00    +0.000    128.554
ATOM     10  CM  UNL     1      36.815  14.863 123.061 +0.00 -0.00    +0.000    128.554
ATOM     11  C   UNL     1      36.583  11.162 122.235 -0.64 -0.00    +0.000    128.554
ATOM     12  C   UNL     1      37.390  12.029 122.863 -0.51 -0.00    +0.000    128.554
ATOM     13  O   UNL     1      37.067   9.208 121.013 -2.74 -0.00    +0.000    128.554
ATOM     14  C   UNL     1      36.858   9.712 122.148 -0.65 -0.00    +0.000    128.554
ATOM     15  N   UNL     1      36.921   8.873 123.310 -0.63 -0.00    +0.000    128.554
ATOM     16  H   UNL     1      36.863   9.272 124.207 -0.52 -0.00    +0.000    128.554
ATOM     17  O   UNL     1      37.063   7.533 123.174 -2.24 -0.00    +0.000    128.554
ATOM     18  H   UNL     1      37.786   7.346 122.555 -0.26 -0.00    +0.000    128.554
ATOM     19  C   UNL     1      37.982  19.162 122.468 -0.09 -0.00    +0.000    128.554
ATOM     20  C   UNL     1      36.999  19.219 121.287 -0.13 -0.00    +0.000    128.554
ATOM     21  O   UNL     1      35.940  20.100 121.552 -0.75 +0.00    +0.000    128.554
ATOM     22  H   UNL     1      35.175  19.599 121.874 -0.02 -0.00    +0.000    128.554
ATOM     23  C   UNL     1      37.184  19.338 124.823 -0.15 -0.00    +0.000    128.554
ATOM     24  C   UNL     1      37.532  18.677 126.172 -0.09 -0.00    +0.000    128.554
ATOM     25  C   UNL     1      39.018  18.558 126.324 -0.13 -0.00    +0.000    128.554
ATOM     26  C   UNL     1      39.965  18.617 125.304 -0.23 -0.00    +0.000    128.554
ATOM     27  N   UNL     1      41.203  18.391 125.799 -0.34 -0.00    +0.000    128.554
ATOM     28  C   UNL     1      41.045  18.176 127.116 -0.38 -0.00    +0.000    128.554
ATOM     29  C   UNL     1      39.724  18.264 127.473 -0.24 -0.00    +0.000    128.554
ATOM     30  C   UNL     1      39.300  18.051 128.786 -0.26 -0.00    +0.000    128.554
ATOM     31  C   UNL     1      40.281  17.750 129.750 -0.32 -0.00    +0.000    128.554
ATOM     32  C   UNL     1      41.642  17.665 129.384 -0.42 -0.00    +0.000    128.554
ATOM     33  C   UNL     1      42.037  17.878 128.049 -0.41 -0.00    +0.000    128.554
ATOM     34  H   UNL     1      42.049  18.385 125.295 -0.49 -0.00    +0.000    128.554
ATOM     35  CM  UNL     1      40.224  18.400 126.384 +0.00 -0.00    +0.000    128.554
ATOM     36  CM  UNL     1      40.672  17.964 128.426 +0.00 -0.00    +0.000    128.554
TER
ENDMDL
MODEL        8
USER    Run = 8
USER    Cluster Rank = 4
USER    Number of conformations in this cluster = 4
USER  
USER    RMSD from reference structure       = 125.531 A
USER  
USER    Estimated Free Energy of Binding    =  -12.01 kcal/mol  [=(1)+(2)+(3)-(4)]
USER    Estimated Inhibition Constant, Ki   =    1.58 nM (nanomolar)  [Temperature = 298.15 K]
USER    
USER    (1) Final Intermolecular Energy     =  -15.29 kcal/mol
USER        vdW + Hbond + desolv Energy     =  -15.29 kcal/mol
USER        Electrostatic Energy            =   +0.00 kcal/mol
USER    (2) Final Total Internal Energy     =   -2.49 kcal/mol
USER    (3) Torsional Free Energy           =   +3.28 kcal/mol
USER    (4) Unbound System's Energy  [=(2)] =   -2.49 kcal/mol
USER    
USER    
USER  
USER    DPF = ligand_dock.biased.dpf
USER    NEWDPF move	ligand.dum.pdbqt
USER    NEWDPF about	0.460000 0.128000 -0.007000
USER    NEWDPF tran0	35.734988 16.596966 124.340321
USER    NEWDPF axisangle0	0.762593 0.070573 0.643018 145.455539
USER    NEWDPF quaternion0	0.728203 0.067391 0.614021 0.296912
USER    NEWDPF dihe0	18.42 -15.90 40.96 52.09 -25.41 -61.61 48.76 43.93 45.03 98.24 71.85 
USER  
USER                              x       y       z    vdW   Elec        q     RMS 
ATOM      1  N   UNL     1      34.930  17.856 123.903 -0.32 -0.00    +0.000    125.531
ATOM      2  H   UNL     1      34.399  17.189 124.464 -0.01 -0.00    +0.000    125.531
ATOM      3  C   UNL     1      36.329  17.384 123.828 -0.28 -0.00    +0.000    125.531
ATOM      4  C   UNL     1      36.442  13.075 123.446 -0.56 -0.00    +0.000    125.531
ATOM      5  C   UNL     1      35.252  13.728 123.807 -0.20 -0.00    +0.000    125.531
ATOM      6  C   UNL     1      35.213  15.118 123.940 -0.50 -0.00    +0.000    125.531
ATOM      7  C   UNL     1      36.365  15.884 123.706 -0.34 -0.00    +0.000    125.531
ATOM      8  C   UNL     1      37.550  15.240 123.325 -0.32 -0.00    +0.000    125.531
ATOM      9  C   UNL     1      37.591  13.849 123.192 -0.44 -0.00    +0.000    125.531
ATOM     10  CM  UNL     1      36.402  14.483 123.569 +0.00 -0.00    +0.000    125.531
ATOM     11  C   UNL     1      37.063  10.934 122.332 -0.56 -0.00    +0.000    125.531
ATOM     12  C   UNL     1      36.426  11.597 123.308 -0.70 -0.00    +0.000    125.531
ATOM     13  O   UNL     1      36.901   8.963 121.054 -2.67 -0.00    +0.000    125.531
ATOM     14  C   UNL     1      37.043   9.462 122.201 -0.63 -0.00    +0.000    125.531
ATOM     15  N   UNL     1      37.208   8.590 123.328 -0.65 -0.00    +0.000    125.531
ATOM     16  H   UNL     1      37.422   8.966 124.212 -0.60 -0.00    +0.000    125.531
ATOM     17  O   UNL     1      37.070   7.251 123.178 -2.05 -0.00    +0.000    125.531
ATOM     18  H   UNL     1      37.152   7.022 122.239 -0.14 -0.00    +0.000    125.531
ATOM     19  C   UNL     1      34.830  19.145 124.628 -0.21 -0.00    +0.000    125.531
ATOM     20  C   UNL     1      34.085  19.007 125.965 -0.29 -0.00    +0.000    125.531
ATOM     21  O   UNL     1      32.941  18.208 125.827 -0.39 -0.00    +0.000    125.531
ATOM     22  H   UNL     1      32.238  18.720 125.399 -0.29 -0.00    +0.000    125.531
ATOM     23  C   UNL     1      34.266  17.844 122.577 -0.37 -0.00    +0.000    125.531
ATOM     24  C   UNL     1      35.241  17.878 121.383 -0.29 -0.00    +0.000    125.531
ATOM     25  C   UNL     1      34.661  18.685 120.261 -0.24 -0.00    +0.000    125.531
ATOM     26  C   UNL     1      35.351  19.552 119.418 -0.14 -0.00    +0.000    125.531
ATOM     27  N   UNL     1      34.494  20.169 118.574 -0.15 -0.00    +0.000    125.531
ATOM     28  C   UNL     1      33.269  19.712 118.886 -0.22 -0.00    +0.000    125.531
ATOM     29  C   UNL     1      33.330  18.809 119.916 -0.30 -0.00    +0.000    125.531
ATOM     30  C   UNL     1      32.183  18.212 120.442 -0.42 -0.00    +0.000    125.531
ATOM     31  C   UNL     1      30.945  18.559 119.871 -0.41 -0.00    +0.000    125.531
ATOM     32  C   UNL     1      30.881  19.486 118.807 -0.33 -0.00    +0.000    125.531
ATOM     33  C   UNL     1      32.056  20.075 118.304 -0.21 -0.00    +0.000    125.531
ATOM     34  H   UNL     1      34.721  20.821 117.872 -0.01 -0.00    +0.000    125.531
ATOM     35  CM  UNL     1      34.229  19.411 119.384 +0.00 -0.00    +0.000    125.531
ATOM     36  CM  UNL     1      32.110  19.142 119.370 +0.00 -0.00    +0.000    125.531
TER
ENDMDL
MODEL       92
USER    Run = 92
USER    Cluster Rank = 5
USER    Number of conformations in this cluster = 9
USER  
USER    RMSD from reference structure       = 126.812 A
USER  
USER    Estimated Free Energy of Binding    =  -11.66 kcal/mol  [=(1)+(2)+(3)-(4)]
USER    Estimated Inhibition Constant, Ki   =    2.85 nM (nanomolar)  [Temperature = 298.15 K]
USER    
USER    (1) Final Intermolecular Energy     =  -14.94 kcal/mol
USER        vdW + Hbond + desolv Energy     =  -14.94 kcal/mol
USER        Electrostatic Energy            =   +0.00 kcal/mol
USER    (2) Final Total Internal Energy     =   -3.02 kcal/mol
USER    (3) Torsional Free Energy           =   +3.28 kcal/mol
USER    (4) Unbound System's Energy  [=(2)] =   -3.02 kcal/mol
USER    
USER    
USER  
USER    DPF = ligand_dock.biased.dpf
USER    NEWDPF move	ligand.dum.pdbqt
USER    NEWDPF about	0.460000 0.128000 -0.007000
USER    NEWDPF tran0	37.768029 14.332636 121.923887
USER    NEWDPF axisangle0	-0.868913 0.494920 0.006694 -174.924247
USER    NEWDPF quaternion0	-0.868061 0.494434 0.006687 -0.044280
USER    NEWDPF dihe0	5.38 -77.97 103.29 65.64 68.45 -27.20 152.11 -53.94 82.06 153.95 42.65 
USER  
USER                              x       y       z    vdW   Elec        q     RMS 
ATOM      1  N   UNL     1      38.359  15.765 122.072 -0.24 -0.00    +0.000    126.812
ATOM      2  H   UNL     1      38.540  15.150 122.866 -0.01 -0.00    +0.000    126.812
ATOM      3  C   UNL     1      37.679  14.977 121.022 -0.30 -0.00    +0.000    126.812
ATOM      4  C   UNL     1      36.556  11.080 122.535 -0.59 -0.00    +0.000    126.812
ATOM      5  C   UNL     1      36.367  12.231 123.318 -0.61 -0.00    +0.000    126.812
ATOM      6  C   UNL     1      36.736  13.490 122.837 -0.49 -0.00    +0.000    126.812
ATOM      7  C   UNL     1      37.296  13.623 121.558 -0.39 -0.00    +0.000    126.812
ATOM      8  C   UNL     1      37.468  12.481 120.763 -0.46 -0.00    +0.000    126.812
ATOM      9  C   UNL     1      37.100  11.221 121.243 -0.40 -0.00    +0.000    126.812
ATOM     10  CM  UNL     1      36.921  12.355 122.042 +0.00 -0.00    +0.000    126.812
ATOM     11  C   UNL     1      36.157   8.625 122.389 -0.74 -0.00    +0.000    126.812
ATOM     12  C   UNL     1      36.137   9.769 123.089 -0.66 -0.00    +0.000    126.812
ATOM     13  O   UNL     1      36.523   6.343 122.838 -1.22 -0.00    +0.000    126.812
ATOM     14  C   UNL     1      35.739   7.322 122.948 -0.77 -0.00    +0.000    126.812
ATOM     15  N   UNL     1      34.490   7.146 123.630 -0.70 -0.00    +0.000    126.812
ATOM     16  H   UNL     1      33.916   7.925 123.813 -0.12 -0.00    +0.000    126.812
ATOM     17  O   UNL     1      34.098   5.911 124.025 -0.81 -0.00    +0.000    126.812
ATOM     18  H   UNL     1      34.809   5.275 123.846 -0.48 -0.00    +0.000    126.812
ATOM     19  C   UNL     1      39.694  16.228 121.623 -0.23 -0.00    +0.000    126.812
ATOM     20  C   UNL     1      40.830  15.340 122.158 -0.44 -0.00    +0.000    126.812
ATOM     21  O   UNL     1      40.344  14.092 122.573 -0.99 +0.00    +0.000    126.812
ATOM     22  H   UNL     1      40.779  13.834 123.400 -0.07 -0.00    +0.000    126.812
ATOM     23  C   UNL     1      37.490  16.836 122.616 -0.23 -0.00    +0.000    126.812
ATOM     24  C   UNL     1      35.997  16.676 122.265 -0.28 -0.00    +0.000    126.812
ATOM     25  C   UNL     1      35.186  16.502 123.512 -0.39 -0.00    +0.000    126.812
ATOM     26  C   UNL     1      34.463  15.371 123.883 -0.53 -0.00    +0.000    126.812
ATOM     27  N   UNL     1      33.788  15.599 125.032 -0.50 -0.00    +0.000    126.812
ATOM     28  C   UNL     1      34.067  16.867 125.382 -0.41 -0.00    +0.000    126.812
ATOM     29  C   UNL     1      34.911  17.453 124.475 -0.35 -0.00    +0.000    126.812
ATOM     30  C   UNL     1      35.326  18.779 124.604 -0.23 -0.00    +0.000    126.812
ATOM     31  C   UNL     1      34.854  19.507 125.713 -0.19 -0.00    +0.000    126.812
ATOM     32  C   UNL     1      33.988  18.903 126.651 -0.22 -0.00    +0.000    126.812
ATOM     33  C   UNL     1      33.583  17.565 126.488 -0.33 -0.00    +0.000    126.812
ATOM     34  H   UNL     1      33.210  14.965 125.515 -0.15 -0.00    +0.000    126.812
ATOM     35  CM  UNL     1      34.460  16.334 124.476 -0.08 -0.00    +0.000    126.812
ATOM     36  CM  UNL     1      34.455  18.179 125.553 -0.32 -0.00    +0.000    126.812
TER
ENDMDL
MODEL       72
USER    Run = 72
USER    Cluster Rank = 6
USER    Number of conformations in this cluster = 5
USER  
USER    RMSD from reference structure       = 124.142 A
USER  
USER    Estimated Free Energy of Binding    =  -11.59 kcal/mol  [=(1)+(2)+(3)-(4)]
USER    Estimated Inhibition Constant, Ki   =    3.17 nM (nanomolar)  [Temperature = 298.15 K]
USER    
USER    (1) Final Intermolecular Energy     =  -14.88 kcal/mol
USER        vdW + Hbond + desolv Energy     =  -14.88 kcal/mol
USER        Electrostatic Energy            =   +0.00 kcal/mol
USER    (2) Final Total Internal Energy     =   -2.17 kcal/mol
USER    (3) Torsional Free Energy           =   +3.28 kcal/mol
USER    (4) Unbound System's Energy  [=(2)] =   -2.17 kcal/mol
USER    
USER    
USER  
USER    DPF = ligand_dock.biased.dpf
USER    NEWDPF move	ligand.dum.pdbqt
USER    NEWDPF about	0.460000 0.128000 -0.007000
USER    NEWDPF tran0	36.186666 16.752480 120.862738
USER    NEWDPF axisangle0	0.399597 -0.184458 0.897941 100.694216
USER    NEWDPF quaternion0	0.307659 -0.142019 0.691347 0.638135
USER    NEWDPF dihe0	13.21 -52.07 -132.14 85.78 162.06 -175.72 -68.52 -95.70 177.43 19.97 7.57 
USER  
USER                              x       y       z    vdW   Elec        q     RMS 
ATOM      1  N   UNL     1      35.188  17.838 121.361 -0.27 -0.00    +0.000    124.142
ATOM      2  H   UNL     1      34.763  17.101 120.798 -0.02 -0.00    +0.000    124.142
ATOM      3  C   UNL     1      36.612  17.497 121.570 -0.19 -0.00    +0.000    124.142
ATOM      4  C   UNL     1      37.142  13.210 121.302 -0.41 -0.00    +0.000    124.142
ATOM      5  C   UNL     1      36.882  13.821 122.540 -0.43 -0.00    +0.000    124.142
ATOM      6  C   UNL     1      36.719  15.205 122.633 -0.33 -0.00    +0.000    124.142
ATOM      7  C   UNL     1      36.805  16.006 121.485 -0.20 -0.00    +0.000    124.142
ATOM      8  C   UNL     1      37.043  15.402 120.243 -0.19 -0.00    +0.000    124.142
ATOM      9  C   UNL     1      37.207  14.017 120.148 -0.30 -0.00    +0.000    124.142
ATOM     10  CM  UNL     1      36.966  14.611 121.392 +0.00 -0.00    +0.000    124.142
ATOM     11  C   UNL     1      36.752  10.902 122.156 -0.62 -0.00    +0.000    124.142
ATOM     12  C   UNL     1      37.296  11.735 121.257 -0.49 -0.00    +0.000    124.142
ATOM     13  O   UNL     1      36.960   8.875 120.977 -2.68 -0.00    +0.000    124.142
ATOM     14  C   UNL     1      36.910   9.434 122.104 -0.66 -0.00    +0.000    124.142
ATOM     15  N   UNL     1      37.035   8.634 123.289 -0.67 -0.00    +0.000    124.142
ATOM     16  H   UNL     1      37.100   9.069 124.169 -0.56 -0.00    +0.000    124.142
ATOM     17  O   UNL     1      37.063   7.283 123.197 -2.08 -0.00    +0.000    124.142
ATOM     18  H   UNL     1      37.198   7.025 122.272 -0.15 -0.00    +0.000    124.142
ATOM     19  C   UNL     1      34.437  17.838 122.639 -0.39 -0.00    +0.000    124.142
ATOM     20  C   UNL     1      34.065  16.418 123.097 -0.35 -0.00    +0.000    124.142
ATOM     21  O   UNL     1      34.143  16.298 124.492 -0.57 -0.00    +0.000    124.142
ATOM     22  H   UNL     1      34.868  15.698 124.726 -0.03 -0.00    +0.000    124.142
ATOM     23  C   UNL     1      35.024  19.071 120.553 -0.18 -0.00    +0.000    124.142
ATOM     24  C   UNL     1      34.452  18.829 119.142 -0.23 -0.00    +0.000    124.142
ATOM     25  C   UNL     1      32.980  18.561 119.216 -0.30 -0.00    +0.000    124.142
ATOM     26  C   UNL     1      32.112  18.965 120.227 -0.32 -0.00    +0.000    124.142
ATOM     27  N   UNL     1      30.870  18.478 120.004 -0.49 -0.00    +0.000    124.142
ATOM     28  C   UNL     1      30.950  17.760 118.871 -0.30 -0.00    +0.000    124.142
ATOM     29  C   UNL     1      32.224  17.782 118.364 -0.18 -0.00    +0.000    124.142
ATOM     30  C   UNL     1      32.567  17.085 117.204 -0.15 -0.00    +0.000    124.142
ATOM     31  C   UNL     1      31.554  16.357 116.554 -0.19 -0.00    +0.000    124.142
ATOM     32  C   UNL     1      30.240  16.337 117.072 -0.27 -0.00    +0.000    124.142
ATOM     33  C   UNL     1      29.927  17.045 118.248 -0.33 -0.00    +0.000    124.142
ATOM     34  H   UNL     1      30.070  18.621 120.559 -0.34 -0.00    +0.000    124.142
ATOM     35  CM  UNL     1      31.796  18.314 119.358 +0.00 -0.00    +0.000    124.142
ATOM     36  CM  UNL     1      31.243  17.061 117.718 +0.00 -0.00    +0.000    124.142
TER
ENDMDL
MODEL       50
USER    Run = 50
USER    Cluster Rank = 7
USER    Number of conformations in this cluster = 15
USER  
USER    RMSD from reference structure       = 126.793 A
USER  
USER    Estimated Free Energy of Binding    =  -11.46 kcal/mol  [=(1)+(2)+(3)-(4)]
USER    Estimated Inhibition Constant, Ki   =    3.97 nM (nanomolar)  [Temperature = 298.15 K]
USER    
USER    (1) Final Intermolecular Energy     =  -14.74 kcal/mol
USER        vdW + Hbond + desolv Energy     =  -14.74 kcal/mol
USER        Electrostatic Energy            =   +0.00 kcal/mol
USER    (2) Final Total Internal Energy     =   -2.25 kcal/mol
USER    (3) Torsional Free Energy           =   +3.28 kcal/mol
USER    (4) Unbound System's Energy  [=(2)] =   -2.25 kcal/mol
USER    
USER    
USER  
USER    DPF = ligand_dock.biased.dpf
USER    NEWDPF move	ligand.dum.pdbqt
USER    NEWDPF about	0.460000 0.128000 -0.007000
USER    NEWDPF tran0	36.635057 16.986573 122.503725
USER    NEWDPF axisangle0	0.480311 -0.332021 -0.811827 -173.497735
USER    NEWDPF quaternion0	0.479538 -0.331487 -0.810520 -0.056713
USER    NEWDPF dihe0	16.95 180.00 -116.87 -131.26 -24.85 144.72 5.83 -57.66 139.70 103.15 57.58 
USER  
USER                              x       y       z    vdW   Elec        q     RMS 
ATOM      1  N   UNL     1      37.423  18.329 122.456 -0.11 -0.00    +0.000    126.793
ATOM      2  H   UNL     1      37.774  17.611 121.822 +0.01 -0.00    +0.000    126.793
ATOM      3  C   UNL     1      36.196  17.814 123.102 -0.25 -0.00    +0.000    126.793
ATOM      4  C   UNL     1      36.203  13.486 123.107 -0.47 -0.00    +0.000    126.793
ATOM      5  C   UNL     1      37.182  14.200 122.396 -0.40 -0.00    +0.000    126.793
ATOM      6  C   UNL     1      37.178  15.598 122.384 -0.28 -0.00    +0.000    126.793
ATOM      7  C   UNL     1      36.198  16.308 123.092 -0.31 -0.00    +0.000    126.793
ATOM      8  C   UNL     1      35.231  15.603 123.821 -0.47 -0.00    +0.000    126.793
ATOM      9  C   UNL     1      35.232  14.205 123.833 -0.42 -0.00    +0.000    126.793
ATOM     10  CM  UNL     1      36.204  14.900 123.106 +0.00 -0.00    +0.000    126.793
ATOM     11  C   UNL     1      37.005  11.294 122.237 -0.58 -0.00    +0.000    126.793
ATOM     12  C   UNL     1      36.259  12.003 123.095 -0.68 -0.00    +0.000    126.793
ATOM     13  O   UNL     1      37.047   9.220 121.122 -2.73 -0.00    +0.000    126.793
ATOM     14  C   UNL     1      37.056   9.816 122.231 -0.59 -0.00    +0.000    126.793
ATOM     15  N   UNL     1      37.142   9.048 123.439 -0.55 -0.00    +0.000    126.793
ATOM     16  H   UNL     1      37.254   9.504 124.304 -0.59 -0.00    +0.000    126.793
ATOM     17  O   UNL     1      37.072   7.696 123.391 -2.29 -0.00    +0.000    126.793
ATOM     18  H   UNL     1      37.231   7.396 122.483 -0.11 -0.00    +0.000    126.793
ATOM     19  C   UNL     1      37.131  19.502 121.597 -0.12 -0.00    +0.000    126.793
ATOM     20  C   UNL     1      36.605  20.699 122.405 -0.09 -0.00    +0.000    126.793
ATOM     21  O   UNL     1      36.789  21.902 121.706 -0.17 -0.00    +0.000    126.793
ATOM     22  H   UNL     1      35.929  22.317 121.544 -0.63 -0.00    +0.000    126.793
ATOM     23  C   UNL     1      38.520  18.539 123.431 -0.14 -0.00    +0.000    126.793
ATOM     24  C   UNL     1      39.161  17.237 123.951 -0.20 -0.00    +0.000    126.793
ATOM     25  C   UNL     1      40.582  17.137 123.487 -0.27 -0.00    +0.000    126.793
ATOM     26  C   UNL     1      41.720  17.464 124.220 -0.23 -0.00    +0.000    126.793
ATOM     27  N   UNL     1      42.828  17.324 123.457 -0.34 -0.00    +0.000    126.793
ATOM     28  C   UNL     1      42.399  16.927 122.247 -0.29 -0.00    +0.000    126.793
ATOM     29  C   UNL     1      41.033  16.808 122.224 -0.23 -0.00    +0.000    126.793
ATOM     30  C   UNL     1      40.345  16.436 121.069 -0.17 -0.00    +0.000    126.793
ATOM     31  C   UNL     1      41.102  16.172 119.912 -0.13 -0.00    +0.000    126.793
ATOM     32  C   UNL     1      42.509  16.289 119.935 -0.17 -0.00    +0.000    126.793
ATOM     33  C   UNL     1      43.174  16.674 121.116 -0.22 -0.00    +0.000    126.793
ATOM     34  H   UNL     1      43.760  17.481 123.733 -0.51 -0.00    +0.000    126.793
ATOM     35  CM  UNL     1      41.748  17.138 123.137 +0.00 -0.00    +0.000    126.793
ATOM     36  CM  UNL     1      41.761  16.551 121.084 +0.00 -0.00    +0.000    126.793
TER
ENDMDL
MODEL       17
USER    Run = 17
USER    Cluster Rank = 8
USER    Number of conformations in this cluster = 2
USER  
USER    RMSD from reference structure       = 127.286 A
USER  
USER    Estimated Free Energy of Binding    =  -11.22 kcal/mol  [=(1)+(2)+(3)-(4)]
USER    Estimated Inhibition Constant, Ki   =    6.00 nM (nanomolar)  [Temperature = 298.15 K]
USER    
USER    (1) Final Intermolecular Energy     =  -14.50 kcal/mol
USER        vdW + Hbond + desolv Energy     =  -14.50 kcal/mol
USER        Electrostatic Energy            =   +0.00 kcal/mol
USER    (2) Final Total Internal Energy     =   -2.19 kcal/mol
USER    (3) Torsional Free Energy           =   +3.28 kcal/mol
USER    (4) Unbound System's Energy  [=(2)] =   -2.19 kcal/mol
USER    
USER    
USER  
USER    DPF = ligand_dock.biased.dpf
USER    NEWDPF move	ligand.dum.pdbqt
USER    NEWDPF about	0.460000 0.128000 -0.007000
USER    NEWDPF tran0	35.899900 18.514625 121.470949
USER    NEWDPF axisangle0	0.279614 0.801756 -0.528208 -118.067594
USER    NEWDPF quaternion0	0.239761 0.687483 -0.452923 -0.514532
USER    NEWDPF dihe0	34.81 6.50 -75.76 -78.45 84.38 86.78 -175.72 82.16 103.90 -119.05 -106.86 
USER  
USER                              x       y       z    vdW   Elec        q     RMS 
ATOM      1  N   UNL     1      35.237  18.059 122.804 -0.28 -0.00    +0.000    127.286
ATOM      2  H   UNL     1      34.703  18.755 122.284 -0.02 -0.00    +0.000    127.286
ATOM      3  C   UNL     1      36.411  17.675 121.991 -0.21 -0.00    +0.000    127.286
ATOM      4  C   UNL     1      37.154  13.426 122.343 -0.46 -0.00    +0.000    127.286
ATOM      5  C   UNL     1      37.085  14.036 121.079 -0.29 -0.00    +0.000    127.286
ATOM      6  C   UNL     1      36.837  15.406 120.961 -0.15 -0.00    +0.000    127.286
ATOM      7  C   UNL     1      36.660  16.195 122.106 -0.23 -0.00    +0.000    127.286
ATOM      8  C   UNL     1      36.748  15.597 123.371 -0.34 -0.00    +0.000    127.286
ATOM      9  C   UNL     1      36.996  14.226 123.492 -0.42 -0.00    +0.000    127.286
ATOM     10  CM  UNL     1      36.913  14.815 122.225 +0.00 -0.00    +0.000    127.286
ATOM     11  C   UNL     1      36.542  11.026 122.071 -0.63 -0.00    +0.000    127.286
ATOM     12  C   UNL     1      37.431  11.970 122.414 -0.45 -0.00    +0.000    127.286
ATOM     13  O   UNL     1      36.900   8.926 121.068 -2.67 -0.00    +0.000    127.286
ATOM     14  C   UNL     1      36.824   9.577 122.143 -0.67 -0.00    +0.000    127.286
ATOM     15  N   UNL     1      37.042   8.900 123.389 -0.61 -0.00    +0.000    127.286
ATOM     16  H   UNL     1      37.088   9.415 124.226 -0.57 -0.00    +0.000    127.286
ATOM     17  O   UNL     1      37.185   7.554 123.415 -2.18 -0.00    +0.000    127.286
ATOM     18  H   UNL     1      37.648   7.263 122.614 -0.29 -0.00    +0.000    127.286
ATOM     19  C   UNL     1      34.312  16.916 122.993 -0.41 -0.00    +0.000    127.286
ATOM     20  C   UNL     1      34.187  16.505 124.469 -0.49 -0.00    +0.000    127.286
ATOM     21  O   UNL     1      33.695  15.197 124.591 -0.66 -0.00    +0.000    127.286
ATOM     22  H   UNL     1      32.861  15.118 124.103 -0.31 -0.00    +0.000    127.286
ATOM     23  C   UNL     1      35.629  18.745 124.059 -0.25 -0.00    +0.000    127.286
ATOM     24  C   UNL     1      36.847  19.680 123.913 -0.15 -0.00    +0.000    127.286
ATOM     25  C   UNL     1      38.055  19.062 124.549 -0.13 -0.00    +0.000    127.286
ATOM     26  C   UNL     1      38.392  19.095 125.900 -0.15 -0.00    +0.000    127.286
ATOM     27  N   UNL     1      39.590  18.502 126.101 -0.25 -0.00    +0.000    127.286
ATOM     28  C   UNL     1      40.019  18.108 124.889 -0.25 -0.00    +0.000    127.286
ATOM     29  C   UNL     1      39.111  18.438 123.916 -0.16 -0.00    +0.000    127.286
ATOM     30  C   UNL     1      39.342  18.159 122.568 -0.10 -0.00    +0.000    127.286
ATOM     31  C   UNL     1      40.545  17.510 122.231 -0.15 -0.00    +0.000    127.286
ATOM     32  C   UNL     1      41.478  17.165 123.233 -0.31 -0.00    +0.000    127.286
ATOM     33  C   UNL     1      41.219  17.467 124.583 -0.25 -0.00    +0.000    127.286
ATOM     34  H   UNL     1      40.055  18.383 126.961 -0.02 -0.00    +0.000    127.286
ATOM     35  CM  UNL     1      39.052  18.637 125.104 +0.00 -0.00    +0.000    127.286
ATOM     36  CM  UNL     1      40.286  17.807 123.570 +0.00 -0.00    +0.000    127.286
TER
ENDMDL
MODEL       21
USER    Run = 21
USER    Cluster Rank = 9
USER    Number of conformations in this cluster = 5
USER  
USER    RMSD from reference structure       = 127.636 A
USER  
USER    Estimated Free Energy of Binding    =  -11.21 kcal/mol  [=(1)+(2)+(3)-(4)]
USER    Estimated Inhibition Constant, Ki   =    6.07 nM (nanomolar)  [Temperature = 298.15 K]
USER    
USER    (1) Final Intermolecular Energy     =  -14.49 kcal/mol
USER        vdW + Hbond + desolv Energy     =  -14.49 kcal/mol
USER        Electrostatic Energy            =   +0.00 kcal/mol
USER    (2) Final Total Internal Energy     =   -2.21 kcal/mol
USER    (3) Torsional Free Energy           =   +3.28 kcal/mol
USER    (4) Unbound System's Energy  [=(2)] =   -2.21 kcal/mol
USER    
USER    
USER  
USER    DPF = ligand_dock.biased.dpf
USER    NEWDPF move	ligand.dum.pdbqt
USER    NEWDPF about	0.460000 0.128000 -0.007000
USER    NEWDPF tran0	37.522292 17.615204 122.629136
USER    NEWDPF axisangle0	0.540815 0.149971 -0.827664 -76.016991
USER    NEWDPF quaternion0	0.333022 0.092349 -0.509658 -0.787919
USER    NEWDPF dihe0	26.57 -113.32 139.81 -35.28 -14.90 119.97 -119.14 120.40 52.45 -147.65 -56.23 
USER  
USER                              x       y       z    vdW   Elec        q     RMS 
ATOM      1  N   UNL     1      36.014  17.992 122.540 -0.20 -0.00    +0.000    127.636
ATOM      2  H   UNL     1      36.531  18.108 121.667 +0.00 -0.00    +0.000    127.636
ATOM      3  C   UNL     1      36.923  17.386 123.537 -0.25 -0.00    +0.000    127.636
ATOM      4  C   UNL     1      36.667  13.068 123.386 -0.55 -0.00    +0.000    127.636
ATOM      5  C   UNL     1      37.740  13.741 122.778 -0.46 -0.00    +0.000    127.636
ATOM      6  C   UNL     1      37.822  15.135 122.816 -0.35 -0.00    +0.000    127.636
ATOM      7  C   UNL     1      36.834  15.884 123.472 -0.32 -0.00    +0.000    127.636
ATOM      8  C   UNL     1      35.772  15.218 124.099 -0.42 -0.00    +0.000    127.636
ATOM      9  C   UNL     1      35.688  13.823 124.061 -0.38 -0.00    +0.000    127.636
ATOM     10  CM  UNL     1      36.754  14.479 123.436 +0.00 -0.00    +0.000    127.636
ATOM     11  C   UNL     1      36.996  10.877 122.246 -0.57 -0.00    +0.000    127.636
ATOM     12  C   UNL     1      36.634  11.585 123.325 -0.70 -0.00    +0.000    127.636
ATOM     13  O   UNL     1      36.719   8.846 121.088 -2.62 -0.00    +0.000    127.636
ATOM     14  C   UNL     1      36.961   9.400 122.193 -0.65 -0.00    +0.000    127.636
ATOM     15  N   UNL     1      37.218   8.585 123.344 -0.64 -0.00    +0.000    127.636
ATOM     16  H   UNL     1      37.509   9.003 124.186 -0.59 -0.00    +0.000    127.636
ATOM     17  O   UNL     1      37.063   7.241 123.275 -2.03 -0.00    +0.000    127.636
ATOM     18  H   UNL     1      37.192   6.949 122.359 -0.17 -0.00    +0.000    127.636
ATOM     19  C   UNL     1      34.888  17.086 122.210 -0.35 -0.00    +0.000    127.636
ATOM     20  C   UNL     1      33.696  17.836 121.595 -0.37 -0.00    +0.000    127.636
ATOM     21  O   UNL     1      34.088  18.570 120.466 -0.35 -0.00    +0.000    127.636
ATOM     22  H   UNL     1      33.343  19.105 120.152 -0.03 -0.00    +0.000    127.636
ATOM     23  C   UNL     1      35.605  19.365 122.921 -0.15 -0.00    +0.000    127.636
ATOM     24  C   UNL     1      35.905  19.728 124.390 -0.20 -0.00    +0.000    127.636
ATOM     25  C   UNL     1      35.037  18.925 125.310 -0.23 -0.00    +0.000    127.636
ATOM     26  C   UNL     1      33.788  18.385 125.015 -0.29 -0.00    +0.000    127.636
ATOM     27  N   UNL     1      33.262  17.790 126.109 -0.34 -0.00    +0.000    127.636
ATOM     28  C   UNL     1      34.159  17.962 127.095 -0.25 -0.00    +0.000    127.636
ATOM     29  C   UNL     1      35.254  18.656 126.647 -0.18 -0.00    +0.000    127.636
ATOM     30  C   UNL     1      36.313  18.986 127.493 -0.13 -0.00    +0.000    127.636
ATOM     31  C   UNL     1      36.233  18.572 128.836 -0.11 -0.00    +0.000    127.636
ATOM     32  C   UNL     1      35.108  17.853 129.297 -0.13 -0.00    +0.000    127.636
ATOM     33  C   UNL     1      34.052  17.542 128.420 -0.22 -0.00    +0.000    127.636
ATOM     34  H   UNL     1      32.396  17.325 126.171 -0.13 -0.00    +0.000    127.636
ATOM     35  CM  UNL     1      34.267  18.326 126.038 -0.15 -0.00    +0.000    127.636
ATOM     36  CM  UNL     1      35.187  18.261 127.965 +0.00 -0.00    +0.000    127.636
TER
ENDMDL
MODEL       22
USER    Run = 22
USER    Cluster Rank = 10
USER    Number of conformations in this cluster = 10
USER  
USER    RMSD from reference structure       = 124.764 A
USER  
USER    Estimated Free Energy of Binding    =  -11.04 kcal/mol  [=(1)+(2)+(3)-(4)]
USER    Estimated Inhibition Constant, Ki   =    8.08 nM (nanomolar)  [Temperature = 298.15 K]
USER    
USER    (1) Final Intermolecular Energy     =  -14.32 kcal/mol
USER        vdW + Hbond + desolv Energy     =  -14.32 kcal/mol
USER        Electrostatic Energy            =   +0.00 kcal/mol
USER    (2) Final Total Internal Energy     =   -2.77 kcal/mol
USER    (3) Torsional Free Energy           =   +3.28 kcal/mol
USER    (4) Unbound System's Energy  [=(2)] =   -2.77 kcal/mol
USER    
USER    
USER  
USER    DPF = ligand_dock.biased.dpf
USER    NEWDPF move	ligand.dum.pdbqt
USER    NEWDPF about	0.460000 0.128000 -0.007000
USER    NEWDPF tran0	36.063068 17.768015 122.828789
USER    NEWDPF axisangle0	0.291724 0.095278 0.951745 -136.648024
USER    NEWDPF quaternion0	0.271096 0.088541 0.884445 -0.369357
USER    NEWDPF dihe0	10.37 36.61 52.61 86.70 -14.15 96.89 -40.78 34.54 -169.73 179.95 136.08 
USER  
USER                              x       y       z    vdW   Elec        q     RMS 
ATOM      1  N   UNL     1      37.354  17.998 121.990 -0.11 -0.00    +0.000    124.764
ATOM      2  H   UNL     1      36.503  18.367 121.564 +0.00 -0.00    +0.000    124.764
ATOM      3  C   UNL     1      37.011  17.475 123.330 -0.23 -0.00    +0.000    124.764
ATOM      4  C   UNL     1      36.729  13.157 123.250 -0.54 -0.00    +0.000    124.764
ATOM      5  C   UNL     1      37.971  13.794 123.087 -0.45 -0.00    +0.000    124.764
ATOM      6  C   UNL     1      38.065  15.188 123.104 -0.32 -0.00    +0.000    124.764
ATOM      7  C   UNL     1      36.918  15.973 123.291 -0.30 -0.00    +0.000    124.764
ATOM      8  C   UNL     1      35.679  15.344 123.474 -0.43 -0.00    +0.000    124.764
ATOM      9  C   UNL     1      35.582  13.949 123.457 -0.43 -0.00    +0.000    124.764
ATOM     10  CM  UNL     1      36.824  14.568 123.277 +0.00 -0.00    +0.000    124.764
ATOM     11  C   UNL     1      37.044  10.930 122.179 -0.56 -0.00    +0.000    124.764
ATOM     12  C   UNL     1      36.685  11.674 123.235 -0.70 -0.00    +0.000    124.764
ATOM     13  O   UNL     1      36.768   8.865 121.082 -2.63 -0.00    +0.000    124.764
ATOM     14  C   UNL     1      36.998   9.452 122.171 -0.64 -0.00    +0.000    124.764
ATOM     15  N   UNL     1      37.234   8.672 123.352 -0.62 -0.00    +0.000    124.764
ATOM     16  H   UNL     1      37.515   9.115 124.184 -0.61 -0.00    +0.000    124.764
ATOM     17  O   UNL     1      37.070   7.328 123.322 -2.11 -0.00    +0.000    124.764
ATOM     18  H   UNL     1      36.953   7.037 122.404 -0.09 -0.00    +0.000    124.764
ATOM     19  C   UNL     1      38.280  19.153 122.079 -0.07 -0.00    +0.000    124.764
ATOM     20  C   UNL     1      37.555  20.453 122.462 -0.10 -0.00    +0.000    124.764
ATOM     21  O   UNL     1      36.245  20.469 121.962 -0.71 -0.00    +0.000    124.764
ATOM     22  H   UNL     1      36.185  19.882 121.193 -0.01 -0.00    +0.000    124.764
ATOM     23  C   UNL     1      37.800  16.924 121.070 -0.14 -0.00    +0.000    124.764
ATOM     24  C   UNL     1      36.979  16.826 119.769 -0.15 -0.00    +0.000    124.764
ATOM     25  C   UNL     1      37.033  15.430 119.226 -0.19 -0.00    +0.000    124.764
ATOM     26  C   UNL     1      36.746  14.257 119.919 -0.09 -0.00    +0.000    124.764
ATOM     27  N   UNL     1      36.977  13.179 119.135 -0.42 -0.00    +0.000    124.764
ATOM     28  C   UNL     1      37.419  13.660 117.961 -0.36 -0.00    +0.000    124.764
ATOM     29  C   UNL     1      37.473  15.030 117.980 -0.21 -0.00    +0.000    124.764
ATOM     30  C   UNL     1      37.929  15.765 116.884 -0.13 -0.00    +0.000    124.764
ATOM     31  C   UNL     1      38.328  15.052 115.738 -0.22 -0.00    +0.000    124.764
ATOM     32  C   UNL     1      38.268  13.641 115.716 -0.41 -0.00    +0.000    124.764
ATOM     33  C   UNL     1      37.810  12.928 116.840 -0.30 -0.00    +0.000    124.764
ATOM     34  H   UNL     1      36.846  12.234 119.377 -0.04 -0.00    +0.000    124.764
ATOM     35  CM  UNL     1      37.125  14.275 118.853 +0.00 -0.00    +0.000    124.764
ATOM     36  CM  UNL     1      37.871  14.346 116.853 +0.00 -0.00    +0.000    124.764
TER
ENDMDL
MODEL       77
USER    Run = 77
USER    Cluster Rank = 11
USER    Number of conformations in this cluster = 5
USER  
USER    RMSD from reference structure       = 125.855 A
USER  
USER    Estimated Free Energy of Binding    =  -10.56 kcal/mol  [=(1)+(2)+(3)-(4)]
USER    Estimated Inhibition Constant, Ki   =   18.14 nM (nanomolar)  [Temperature = 298.15 K]
USER    
USER    (1) Final Intermolecular Energy     =  -13.84 kcal/mol
USER        vdW + Hbond + desolv Energy     =  -13.84 kcal/mol
USER        Electrostatic Energy            =   +0.00 kcal/mol
USER    (2) Final Total Internal Energy     =   -3.18 kcal/mol
USER    (3) Torsional Free Energy           =   +3.28 kcal/mol
USER    (4) Unbound System's Energy  [=(2)] =   -3.18 kcal/mol
USER    
USER    
USER  
USER    DPF = ligand_dock.biased.dpf
USER    NEWDPF move	ligand.dum.pdbqt
USER    NEWDPF about	0.460000 0.128000 -0.007000
USER    NEWDPF tran0	36.343321 16.496823 123.108324
USER    NEWDPF axisangle0	0.005310 -0.099709 0.995002 98.643893
USER    NEWDPF quaternion0	0.004027 -0.075618 0.754594 0.651808
USER    NEWDPF dihe0	15.41 60.70 -28.57 -168.90 155.91 -22.51 -163.54 130.11 176.01 -154.88 10.16 
USER  
USER                              x       y       z    vdW   Elec        q     RMS 
ATOM      1  N   UNL     1      35.259  17.591 123.335 -0.30 -0.00    +0.000    125.855
ATOM      2  H   UNL     1      35.184  17.101 122.443 -0.01 -0.00    +0.000    125.855
ATOM      3  C   UNL     1      36.341  16.959 124.119 -0.30 -0.00    +0.000    125.855
ATOM      4  C   UNL     1      36.970  12.879 122.820 -0.53 -0.00    +0.000    125.855
ATOM      5  C   UNL     1      37.739  13.925 122.283 -0.42 -0.00    +0.000    125.855
ATOM      6  C   UNL     1      37.533  15.245 122.693 -0.33 -0.00    +0.000    125.855
ATOM      7  C   UNL     1      36.558  15.543 123.656 -0.34 -0.00    +0.000    125.855
ATOM      8  C   UNL     1      35.801  14.501 124.211 -0.44 -0.00    +0.000    125.855
ATOM      9  C   UNL     1      36.005  13.180 123.802 -0.53 -0.00    +0.000    125.855
ATOM     10  CM  UNL     1      36.767  14.212 123.244 +0.00 -0.00    +0.000    125.855
ATOM     11  C   UNL     1      36.586  10.417 122.823 -0.69 -0.00    +0.000    125.855
ATOM     12  C   UNL     1      37.235  11.493 122.358 -0.45 -0.00    +0.000    125.855
ATOM     13  O   UNL     1      37.051   8.850 121.128 -2.69 -0.00    +0.000    125.855
ATOM     14  C   UNL     1      36.855   9.040 122.357 -0.71 -0.00    +0.000    125.855
ATOM     15  N   UNL     1      36.929   7.927 123.259 -0.75 -0.00    +0.000    125.855
ATOM     16  H   UNL     1      36.881   8.078 124.230 -0.32 -0.00    +0.000    125.855
ATOM     17  O   UNL     1      37.065   6.669 122.776 -1.39 -0.00    +0.000    125.855
ATOM     18  H   UNL     1      37.337   6.708 121.846 -0.39 -0.00    +0.000    125.855
ATOM     19  C   UNL     1      33.941  17.416 123.990 -0.33 -0.00    +0.000    125.855
ATOM     20  C   UNL     1      34.065  17.235 125.511 -0.44 -0.00    +0.000    125.855
ATOM     21  O   UNL     1      33.682  15.944 125.902 -0.92 -0.00    +0.000    125.855
ATOM     22  H   UNL     1      33.416  15.435 125.121 -0.11 -0.00    +0.000    125.855
ATOM     23  C   UNL     1      35.581  18.991 122.969 -0.22 -0.00    +0.000    125.855
ATOM     24  C   UNL     1      35.882  19.200 121.471 -0.18 -0.00    +0.000    125.855
ATOM     25  C   UNL     1      37.032  18.337 121.048 -0.11 -0.00    +0.000    125.855
ATOM     26  C   UNL     1      38.369  18.502 121.399 -0.06 -0.00    +0.000    125.855
ATOM     27  N   UNL     1      39.138  17.584 120.770 -0.07 -0.00    +0.000    125.855
ATOM     28  C   UNL     1      38.301  16.852 120.015 -0.09 -0.00    +0.000    125.855
ATOM     29  C   UNL     1      37.008  17.285 120.153 -0.11 -0.00    +0.000    125.855
ATOM     30  C   UNL     1      35.955  16.701 119.447 -0.13 -0.00    +0.000    125.855
ATOM     31  C   UNL     1      36.260  15.632 118.584 -0.17 -0.00    +0.000    125.855
ATOM     32  C   UNL     1      37.592  15.181 118.444 -0.20 -0.00    +0.000    125.855
ATOM     33  C   UNL     1      38.632  15.797 119.166 -0.14 -0.00    +0.000    125.855
ATOM     34  H   UNL     1      40.113  17.475 120.849 +0.01 -0.00    +0.000    125.855
ATOM     35  CM  UNL     1      38.007  17.708 120.679 +0.00 -0.00    +0.000    125.855
ATOM     36  CM  UNL     1      37.292  16.241 119.302 +0.00 -0.00    +0.000    125.855
TER
ENDMDL
MODEL        9
USER    Run = 9
USER    Cluster Rank = 12
USER    Number of conformations in this cluster = 1
USER  
USER    RMSD from reference structure       = 125.457 A
USER  
USER    Estimated Free Energy of Binding    =  -10.46 kcal/mol  [=(1)+(2)+(3)-(4)]
USER    Estimated Inhibition Constant, Ki   =   21.51 nM (nanomolar)  [Temperature = 298.15 K]
USER    
USER    (1) Final Intermolecular Energy     =  -13.74 kcal/mol
USER        vdW + Hbond + desolv Energy     =  -13.74 kcal/mol
USER        Electrostatic Energy            =   +0.00 kcal/mol
USER    (2) Final Total Internal Energy     =   -2.43 kcal/mol
USER    (3) Torsional Free Energy           =   +3.28 kcal/mol
USER    (4) Unbound System's Energy  [=(2)] =   -2.43 kcal/mol
USER    
USER    
USER  
USER    DPF = ligand_dock.biased.dpf
USER    NEWDPF move	ligand.dum.pdbqt
USER    NEWDPF about	0.460000 0.128000 -0.007000
USER    NEWDPF tran0	37.750841 18.532385 123.283517
USER    NEWDPF axisangle0	-0.363766 0.812775 -0.455050 124.108727
USER    NEWDPF quaternion0	-0.321348 0.718000 -0.401988 0.468634
USER    NEWDPF dihe0	12.84 -128.59 -51.22 14.35 -171.63 140.32 -103.18 -55.17 -52.87 -143.72 -110.30 
USER  
USER                              x       y       z    vdW   Elec        q     RMS 
ATOM      1  N   UNL     1      39.129  18.034 122.759 -0.12 -0.00    +0.000    125.457
ATOM      2  H   UNL     1      39.187  18.767 123.466 +0.00 -0.00    +0.000    125.457
ATOM      3  C   UNL     1      37.708  17.657 122.599 -0.16 -0.00    +0.000    125.457
ATOM      4  C   UNL     1      37.348  13.414 121.827 -0.42 -0.00    +0.000    125.457
ATOM      5  C   UNL     1      37.016  13.940 123.087 -0.47 -0.00    +0.000    125.457
ATOM      6  C   UNL     1      37.139  15.308 123.343 -0.35 -0.00    +0.000    125.457
ATOM      7  C   UNL     1      37.590  16.179 122.340 -0.23 -0.00    +0.000    125.457
ATOM      8  C   UNL     1      37.904  15.663 121.075 -0.20 -0.00    +0.000    125.457
ATOM      9  C   UNL     1      37.782  14.295 120.816 -0.32 -0.00    +0.000    125.457
ATOM     10  CM  UNL     1      37.463  14.800 122.081 +0.00 -0.00    +0.000    125.457
ATOM     11  C   UNL     1      37.101  11.056 122.595 -0.55 -0.00    +0.000    125.457
ATOM     12  C   UNL     1      37.190  11.955 121.604 -0.53 -0.00    +0.000    125.457
ATOM     13  O   UNL     1      36.726   9.203 121.191 -2.64 -0.00    +0.000    125.457
ATOM     14  C   UNL     1      36.943   9.605 122.365 -0.64 -0.00    +0.000    125.457
ATOM     15  N   UNL     1      37.055   8.644 123.424 -0.65 -0.00    +0.000    125.457
ATOM     16  H   UNL     1      37.326   8.936 124.324 -0.58 -0.00    +0.000    125.457
ATOM     17  O   UNL     1      36.790   7.337 123.188 -2.03 -0.00    +0.000    125.457
ATOM     18  H   UNL     1      36.739   7.186 122.231 -0.06 -0.00    +0.000    125.457
ATOM     19  C   UNL     1      39.932  16.908 123.294 -0.26 -0.00    +0.000    125.457
ATOM     20  C   UNL     1      41.134  17.391 124.122 -0.32 -0.00    +0.000    125.457
ATOM     21  O   UNL     1      42.293  16.671 123.800 -1.02 -0.00    +0.000    125.457
ATOM     22  H   UNL     1      43.061  17.088 124.220 -0.64 -0.00    +0.000    125.457
ATOM     23  C   UNL     1      39.683  18.652 121.529 -0.06 -0.00    +0.000    125.457
ATOM     24  C   UNL     1      40.874  17.887 120.920 -0.09 -0.00    +0.000    125.457
ATOM     25  C   UNL     1      40.520  17.374 119.558 -0.07 -0.00    +0.000    125.457
ATOM     26  C   UNL     1      39.254  17.360 118.978 -0.05 -0.00    +0.000    125.457
ATOM     27  N   UNL     1      39.295  16.751 117.771 -0.09 -0.00    +0.000    125.457
ATOM     28  C   UNL     1      40.570  16.368 117.590 -0.13 -0.00    +0.000    125.457
ATOM     29  C   UNL     1      41.347  16.725 118.662 -0.11 -0.00    +0.000    125.457
ATOM     30  C   UNL     1      42.706  16.411 118.725 -0.16 -0.00    +0.000    125.457
ATOM     31  C   UNL     1      43.268  15.718 117.636 -0.26 -0.00    +0.000    125.457
ATOM     32  C   UNL     1      42.470  15.355 116.529 -0.27 -0.00    +0.000    125.457
ATOM     33  C   UNL     1      41.101  15.679 116.500 -0.26 -0.00    +0.000    125.457
ATOM     34  H   UNL     1      38.542  16.616 117.151 +0.00 -0.00    +0.000    125.457
ATOM     35  CM  UNL     1      40.169  16.910 118.488 +0.00 -0.00    +0.000    125.457
ATOM     36  CM  UNL     1      41.911  16.043 117.607 +0.00 -0.00    +0.000    125.457
TER
ENDMDL
MODEL       65
USER    Run = 65
USER    Cluster Rank = 13
USER    Number of conformations in this cluster = 1
USER  
USER    RMSD from reference structure       = 126.514 A
USER  
USER    Estimated Free Energy of Binding    =  -10.35 kcal/mol  [=(1)+(2)+(3)-(4)]
USER    Estimated Inhibition Constant, Ki   =   25.73 nM (nanomolar)  [Temperature = 298.15 K]
USER    
USER    (1) Final Intermolecular Energy     =  -13.64 kcal/mol
USER        vdW + Hbond + desolv Energy     =  -13.64 kcal/mol
USER        Electrostatic Energy            =   +0.00 kcal/mol
USER    (2) Final Total Internal Energy     =   -1.52 kcal/mol
USER    (3) Torsional Free Energy           =   +3.28 kcal/mol
USER    (4) Unbound System's Energy  [=(2)] =   -1.52 kcal/mol
USER    
USER    
USER  
USER    DPF = ligand_dock.biased.dpf
USER    NEWDPF move	ligand.dum.pdbqt
USER    NEWDPF about	0.460000 0.128000 -0.007000
USER    NEWDPF tran0	37.802130 16.516392 120.849517
USER    NEWDPF axisangle0	-0.481435 -0.621414 0.618114 154.409409
USER    NEWDPF quaternion0	-0.469480 -0.605983 0.602765 0.221468
USER    NEWDPF dihe0	144.81 130.14 -53.12 -72.68 156.60 115.40 -122.21 96.91 146.07 -101.81 -141.20 
USER  
USER                              x       y       z    vdW   Elec        q     RMS 
ATOM      1  N   UNL     1      37.195  16.451 122.282 -0.21 -0.00    +0.000    126.514
ATOM      2  H   UNL     1      37.263  17.393 121.895 +0.00 -0.00    +0.000    126.514
ATOM      3  C   UNL     1      37.616  15.492 121.238 -0.26 -0.00    +0.000    126.514
ATOM      4  C   UNL     1      37.072  11.433 122.640 -0.53 -0.00    +0.000    126.514
ATOM      5  C   UNL     1      36.908  11.746 121.281 -0.47 -0.00    +0.000    126.514
ATOM      6  C   UNL     1      37.074  13.057 120.825 -0.41 -0.00    +0.000    126.514
ATOM      7  C   UNL     1      37.416  14.080 121.721 -0.37 -0.00    +0.000    126.514
ATOM      8  C   UNL     1      37.601  13.771 123.076 -0.47 -0.00    +0.000    126.514
ATOM      9  C   UNL     1      37.435  12.461 123.534 -0.47 -0.00    +0.000    126.514
ATOM     10  CM  UNL     1      37.251  12.758 122.180 +0.00 -0.00    +0.000    126.514
ATOM     11  C   UNL     1      35.896   9.237 122.645 -0.70 -0.00    +0.000    126.514
ATOM     12  C   UNL     1      36.894  10.024 123.071 -0.62 -0.00    +0.000    126.514
ATOM     13  O   UNL     1      36.752   7.112 123.190 -1.82 -0.00    +0.000    126.514
ATOM     14  C   UNL     1      35.726   7.834 123.077 -0.75 -0.00    +0.000    126.514
ATOM     15  N   UNL     1      34.442   7.281 123.397 -0.69 -0.00    +0.000    126.514
ATOM     16  H   UNL     1      33.648   7.861 123.412 -0.11 -0.00    +0.000    126.514
ATOM     17  O   UNL     1      34.320   5.961 123.678 -0.87 -0.00    +0.000    126.514
ATOM     18  H   UNL     1      33.641   5.838 124.359 -0.63 -0.00    +0.000    126.514
ATOM     19  C   UNL     1      35.766  16.274 122.636 -0.33 -0.00    +0.000    126.514
ATOM     20  C   UNL     1      35.568  15.980 124.132 -0.46 -0.00    +0.000    126.514
ATOM     21  O   UNL     1      34.616  14.969 124.328 -0.66 -0.00    +0.000    126.514
ATOM     22  H   UNL     1      34.973  14.123 124.019 -0.05 -0.00    +0.000    126.514
ATOM     23  C   UNL     1      38.119  16.453 123.442 -0.28 -0.00    +0.000    126.514
ATOM     24  C   UNL     1      39.415  17.256 123.215 -0.24 -0.00    +0.000    126.514
ATOM     25  C   UNL     1      40.491  16.364 122.674 -0.29 -0.00    +0.000    126.514
ATOM     26  C   UNL     1      40.635  14.999 122.909 -0.25 -0.00    +0.000    126.514
ATOM     27  N   UNL     1      41.764  14.537 122.326 -0.51 -0.00    +0.000    126.514
ATOM     28  C   UNL     1      42.341  15.599 121.738 -0.35 -0.00    +0.000    126.514
ATOM     29  C   UNL     1      41.597  16.734 121.934 -0.24 -0.00    +0.000    126.514
ATOM     30  C   UNL     1      42.003  17.975 121.443 -0.10 -0.00    +0.000    126.514
ATOM     31  C   UNL     1      43.210  18.031 120.721 -0.08 -0.00    +0.000    126.514
ATOM     32  C   UNL     1      43.975  16.862 120.514 -0.17 -0.00    +0.000    126.514
ATOM     33  C   UNL     1      43.541  15.626 121.029 -0.20 -0.00    +0.000    126.514
ATOM     34  H   UNL     1      42.096  13.610 122.330 -0.05 -0.00    +0.000    126.514
ATOM     35  CM  UNL     1      41.379  15.611 122.316 +0.00 -0.00    +0.000    126.514
ATOM     36  CM  UNL     1      42.778  16.804 121.229 +0.00 -0.00    +0.000    126.514
TER
ENDMDL
MODEL       31
USER    Run = 31
USER    Cluster Rank = 14
USER    Number of conformations in this cluster = 2
USER  
USER    RMSD from reference structure       = 123.739 A
USER  
USER    Estimated Free Energy of Binding    =  -10.35 kcal/mol  [=(1)+(2)+(3)-(4)]
USER    Estimated Inhibition Constant, Ki   =   26.05 nM (nanomolar)  [Temperature = 298.15 K]
USER    
USER    (1) Final Intermolecular Energy     =  -13.63 kcal/mol
USER        vdW + Hbond + desolv Energy     =  -13.63 kcal/mol
USER        Electrostatic Energy            =   +0.00 kcal/mol
USER    (2) Final Total Internal Energy     =   -2.91 kcal/mol
USER    (3) Torsional Free Energy           =   +3.28 kcal/mol
USER    (4) Unbound System's Energy  [=(2)] =   -2.91 kcal/mol
USER    
USER    
USER  
USER    DPF = ligand_dock.biased.dpf
USER    NEWDPF move	ligand.dum.pdbqt
USER    NEWDPF about	0.460000 0.128000 -0.007000
USER    NEWDPF tran0	36.605933 16.943736 120.820276
USER    NEWDPF axisangle0	0.057621 0.174013 0.983056 95.130300
USER    NEWDPF quaternion0	0.042527 0.128430 0.725540 0.674751
USER    NEWDPF dihe0	25.65 173.04 -112.18 -58.79 61.01 98.31 -15.14 -151.25 -168.36 168.89 1.73 
USER  
USER                              x       y       z    vdW   Elec        q     RMS 
ATOM      1  N   UNL     1      35.455  17.917 120.431 -0.21 -0.00    +0.000    123.739
ATOM      2  H   UNL     1      35.598  17.150 119.774 -0.01 -0.00    +0.000    123.739
ATOM      3  C   UNL     1      36.362  17.716 121.582 -0.20 -0.00    +0.000    123.739
ATOM      4  C   UNL     1      36.978  13.495 122.314 -0.44 -0.00    +0.000    123.739
ATOM      5  C   UNL     1      37.291  14.055 121.065 -0.32 -0.00    +0.000    123.739
ATOM      6  C   UNL     1      37.086  15.416 120.821 -0.20 -0.00    +0.000    123.739
ATOM      7  C   UNL     1      36.569  16.245 121.827 -0.21 -0.00    +0.000    123.739
ATOM      8  C   UNL     1      36.273  15.697 123.083 -0.35 -0.00    +0.000    123.739
ATOM      9  C   UNL     1      36.477  14.336 123.329 -0.45 -0.00    +0.000    123.739
ATOM     10  CM  UNL     1      36.779  14.874 122.073 +0.00 -0.00    +0.000    123.739
ATOM     11  C   UNL     1      36.637  11.080 121.805 -0.58 -0.00    +0.000    123.739
ATOM     12  C   UNL     1      37.225  12.047 122.524 -0.55 -0.00    +0.000    123.739
ATOM     13  O   UNL     1      37.065   8.905 121.012 -2.71 -0.00    +0.000    123.739
ATOM     14  C   UNL     1      36.889   9.640 122.020 -0.64 -0.00    +0.000    123.739
ATOM     15  N   UNL     1      36.965   9.062 123.330 -0.60 -0.00    +0.000    123.739
ATOM     16  H   UNL     1      36.932   9.641 124.124 -0.52 -0.00    +0.000    123.739
ATOM     17  O   UNL     1      37.084   7.720 123.476 -2.27 -0.00    +0.000    123.739
ATOM     18  H   UNL     1      37.497   7.345 122.683 -0.21 -0.00    +0.000    123.739
ATOM     19  C   UNL     1      34.032  17.822 120.840 -0.25 -0.00    +0.000    123.739
ATOM     20  C   UNL     1      33.170  18.928 120.211 -0.25 -0.00    +0.000    123.739
ATOM     21  O   UNL     1      31.805  18.615 120.293 -0.58 -0.00    +0.000    123.739
ATOM     22  H   UNL     1      31.368  19.230 120.901 -0.08 -0.00    +0.000    123.739
ATOM     23  C   UNL     1      35.792  19.139 119.663 -0.16 -0.00    +0.000    123.739
ATOM     24  C   UNL     1      36.044  18.892 118.162 -0.08 -0.00    +0.000    123.739
ATOM     25  C   UNL     1      35.422  17.597 117.738 -0.10 -0.00    +0.000    123.739
ATOM     26  C   UNL     1      34.072  17.366 117.484 -0.13 -0.00    +0.000    123.739
ATOM     27  N   UNL     1      33.863  16.061 117.201 -0.14 -0.00    +0.000    123.739
ATOM     28  C   UNL     1      35.064  15.463 117.287 -0.18 -0.00    +0.000    123.739
ATOM     29  C   UNL     1      36.039  16.367 117.620 -0.13 -0.00    +0.000    123.739
ATOM     30  C   UNL     1      37.369  15.984 117.797 -0.13 -0.00    +0.000    123.739
ATOM     31  C   UNL     1      37.689  14.626 117.613 -0.24 -0.00    +0.000    123.739
ATOM     32  C   UNL     1      36.686  13.694 117.266 -0.35 -0.00    +0.000    123.739
ATOM     33  C   UNL     1      35.352  14.112 117.101 -0.33 -0.00    +0.000    123.739
ATOM     34  H   UNL     1      33.004  15.635 116.976 -0.01 -0.00    +0.000    123.739
ATOM     35  CM  UNL     1      34.859  16.554 117.457 +0.00 -0.00    +0.000    123.739
ATOM     36  CM  UNL     1      36.367  15.041 117.447 +0.00 -0.00    +0.000    123.739
TER
ENDMDL
MODEL       78
USER    Run = 78
USER    Cluster Rank = 15
USER    Number of conformations in this cluster = 2
USER  
USER    RMSD from reference structure       = 126.080 A
USER  
USER    Estimated Free Energy of Binding    =  -10.10 kcal/mol  [=(1)+(2)+(3)-(4)]
USER    Estimated Inhibition Constant, Ki   =   39.31 nM (nanomolar)  [Temperature = 298.15 K]
USER    
USER    (1) Final Intermolecular Energy     =  -13.38 kcal/mol
USER        vdW + Hbond + desolv Energy     =  -13.38 kcal/mol
USER        Electrostatic Energy            =   +0.00 kcal/mol
USER    (2) Final Total Internal Energy     =   -2.54 kcal/mol
USER    (3) Torsional Free Energy           =   +3.28 kcal/mol
USER    (4) Unbound System's Energy  [=(2)] =   -2.54 kcal/mol
USER    
USER    
USER  
USER    DPF = ligand_dock.biased.dpf
USER    NEWDPF move	ligand.dum.pdbqt
USER    NEWDPF about	0.460000 0.128000 -0.007000
USER    NEWDPF tran0	38.202058 14.090668 121.860148
USER    NEWDPF axisangle0	-0.229513 0.454165 0.860847 149.289920
USER    NEWDPF quaternion0	-0.221320 0.437953 0.830118 0.264800
USER    NEWDPF dihe0	25.75 -90.70 96.41 37.40 -13.52 -132.35 31.40 15.07 98.85 121.51 18.48 
USER  
USER                              x       y       z    vdW   Elec        q     RMS 
ATOM      1  N   UNL     1      38.614  15.270 120.931 -0.23 -0.00    +0.000    126.080
ATOM      2  H   UNL     1      38.701  14.347 120.505 -0.03 -0.00    +0.000    126.080
ATOM      3  C   UNL     1      38.005  15.106 122.269 -0.37 -0.00    +0.000    126.080
ATOM      4  C   UNL     1      36.256  11.166 122.658 -0.61 -0.00    +0.000    126.080
ATOM      5  C   UNL     1      37.074  11.477 121.559 -0.48 -0.00    +0.000    126.080
ATOM      6  C   UNL     1      37.634  12.751 121.425 -0.43 -0.00    +0.000    126.080
ATOM      7  C   UNL     1      37.391  13.736 122.393 -0.44 -0.00    +0.000    126.080
ATOM      8  C   UNL     1      36.592  13.426 123.502 -0.52 -0.00    +0.000    126.080
ATOM      9  C   UNL     1      36.030  12.153 123.638 -0.59 -0.00    +0.000    126.080
ATOM     10  CM  UNL     1      36.830  12.452 122.529 +0.00 -0.00    +0.000    126.080
ATOM     11  C   UNL     1      36.436   8.704 122.998 -0.74 -0.00    +0.000    126.080
ATOM     12  C   UNL     1      35.695   9.796 122.758 -0.68 -0.00    +0.000    126.080
ATOM     13  O   UNL     1      36.588   6.368 122.750 -1.25 -0.00    +0.000    126.080
ATOM     14  C   UNL     1      35.870   7.342 123.097 -0.78 -0.00    +0.000    126.080
ATOM     15  N   UNL     1      34.549   7.096 123.599 -0.70 -0.00    +0.000    126.080
ATOM     16  H   UNL     1      34.019   7.837 123.969 -0.12 -0.00    +0.000    126.080
ATOM     17  O   UNL     1      34.032   5.844 123.565 -0.81 -0.00    +0.000    126.080
ATOM     18  H   UNL     1      34.753   5.196 123.572 -0.47 -0.00    +0.000    126.080
ATOM     19  C   UNL     1      37.729  16.039 120.023 -0.18 -0.00    +0.000    126.080
ATOM     20  C   UNL     1      37.483  15.310 118.693 -0.22 -0.00    +0.000    126.080
ATOM     21  O   UNL     1      37.926  13.981 118.754 -0.32 -0.00    +0.000    126.080
ATOM     22  H   UNL     1      38.185  13.685 117.868 -0.11 -0.00    +0.000    126.080
ATOM     23  C   UNL     1      40.003  15.781 121.011 -0.24 -0.00    +0.000    126.080
ATOM     24  C   UNL     1      40.773  15.323 122.266 -0.45 -0.00    +0.000    126.080
ATOM     25  C   UNL     1      42.101  16.014 122.342 -0.39 -0.00    +0.000    126.080
ATOM     26  C   UNL     1      42.581  16.777 123.403 -0.31 -0.00    +0.000    126.080
ATOM     27  N   UNL     1      43.784  17.312 123.091 -0.34 -0.00    +0.000    126.080
ATOM     28  C   UNL     1      44.059  16.906 121.840 -0.27 -0.00    +0.000    126.080
ATOM     29  C   UNL     1      43.052  16.117 121.346 -0.28 -0.00    +0.000    126.080
ATOM     30  C   UNL     1      43.092  15.594 120.053 -0.10 -0.00    +0.000    126.080
ATOM     31  C   UNL     1      44.216  15.894 119.260 -0.23 -0.00    +0.000    126.080
ATOM     32  C   UNL     1      45.256  16.703 119.769 -0.15 -0.00    +0.000    126.080
ATOM     33  C   UNL     1      45.182  17.221 121.076 -0.17 -0.00    +0.000    126.080
ATOM     34  H   UNL     1      44.343  17.883 123.665 -0.39 -0.00    +0.000    126.080
ATOM     35  CM  UNL     1      43.137  16.647 122.426 +0.00 -0.00    +0.000    126.080
ATOM     36  CM  UNL     1      44.143  16.405 120.557 +0.00 -0.00    +0.000    126.080
TER
ENDMDL
MODEL       94
USER    Run = 94
USER    Cluster Rank = 16
USER    Number of conformations in this cluster = 1
USER  
USER    RMSD from reference structure       = 127.414 A
USER  
USER    Estimated Free Energy of Binding    =  -10.07 kcal/mol  [=(1)+(2)+(3)-(4)]
USER    Estimated Inhibition Constant, Ki   =   41.25 nM (nanomolar)  [Temperature = 298.15 K]
USER    
USER    (1) Final Intermolecular Energy     =  -13.36 kcal/mol
USER        vdW + Hbond + desolv Energy     =  -13.36 kcal/mol
USER        Electrostatic Energy            =   +0.00 kcal/mol
USER    (2) Final Total Internal Energy     =   -2.68 kcal/mol
USER    (3) Torsional Free Energy           =   +3.28 kcal/mol
USER    (4) Unbound System's Energy  [=(2)] =   -2.68 kcal/mol
USER    
USER    
USER  
USER    DPF = ligand_dock.biased.dpf
USER    NEWDPF move	ligand.dum.pdbqt
USER    NEWDPF about	0.460000 0.128000 -0.007000
USER    NEWDPF tran0	36.660216 16.766810 122.995831
USER    NEWDPF axisangle0	0.341443 -0.252829 -0.905259 -133.577416
USER    NEWDPF quaternion0	0.313806 -0.232364 -0.831985 -0.394123
USER    NEWDPF dihe0	7.22 58.66 171.56 119.49 97.74 -179.52 -176.57 112.84 39.41 -14.64 34.42 
USER  
USER                              x       y       z    vdW   Elec        q     RMS 
ATOM      1  N   UNL     1      36.492  18.239 122.517 -0.16 -0.00    +0.000    127.414
ATOM      2  H   UNL     1      36.850  17.602 121.805 +0.00 -0.00    +0.000    127.414
ATOM      3  C   UNL     1      36.165  17.447 123.723 -0.29 -0.00    +0.000    127.414
ATOM      4  C   UNL     1      37.096  13.279 123.022 -0.51 -0.00    +0.000    127.414
ATOM      5  C   UNL     1      35.813  13.661 123.450 -0.47 -0.00    +0.000    127.414
ATOM      6  C   UNL     1      35.511  15.005 123.685 -0.47 -0.00    +0.000    127.414
ATOM      7  C   UNL     1      36.486  15.994 123.490 -0.33 -0.00    +0.000    127.414
ATOM      8  C   UNL     1      37.761  15.622 123.044 -0.31 -0.00    +0.000    127.414
ATOM      9  C   UNL     1      38.066  14.278 122.808 -0.42 -0.00    +0.000    127.414
ATOM     10  CM  UNL     1      36.789  14.640 123.250 +0.00 -0.00    +0.000    127.414
ATOM     11  C   UNL     1      36.400  10.937 122.531 -0.68 -0.00    +0.000    127.414
ATOM     12  C   UNL     1      37.361  11.839 122.776 -0.48 -0.00    +0.000    127.414
ATOM     13  O   UNL     1      36.698   9.094 121.096 -2.62 -0.00    +0.000    127.414
ATOM     14  C   UNL     1      36.672   9.505 122.286 -0.71 -0.00    +0.000    127.414
ATOM     15  N   UNL     1      36.934   8.581 123.351 -0.67 -0.00    +0.000    127.414
ATOM     16  H   UNL     1      37.020   8.909 124.275 -0.52 -0.00    +0.000    127.414
ATOM     17  O   UNL     1      37.066   7.259 123.089 -2.08 -0.00    +0.000    127.414
ATOM     18  H   UNL     1      37.069   7.120 122.129 -0.11 -0.00    +0.000    127.414
ATOM     19  C   UNL     1      35.278  18.849 121.924 -0.21 -0.00    +0.000    127.414
ATOM     20  C   UNL     1      34.111  17.852 121.830 -0.39 -0.00    +0.000    127.414
ATOM     21  O   UNL     1      33.363  17.835 123.015 -0.29 -0.00    +0.000    127.414
ATOM     22  H   UNL     1      33.764  18.436 123.661 -0.03 -0.00    +0.000    127.414
ATOM     23  C   UNL     1      37.601  19.192 122.761 -0.11 -0.00    +0.000    127.414
ATOM     24  C   UNL     1      37.725  19.655 124.226 -0.11 -0.00    +0.000    127.414
ATOM     25  C   UNL     1      36.654  20.652 124.548 -0.11 -0.00    +0.000    127.414
ATOM     26  C   UNL     1      36.691  22.021 124.297 -0.10 -0.00    +0.000    127.414
ATOM     27  N   UNL     1      35.585  22.621 124.793 -0.13 -0.00    +0.000    127.414
ATOM     28  C   UNL     1      34.859  21.647 125.368 -0.14 -0.00    +0.000    127.414
ATOM     29  C   UNL     1      35.482  20.432 125.245 -0.15 -0.00    +0.000    127.414
ATOM     30  C   UNL     1      34.939  19.266 125.786 -0.20 -0.00    +0.000    127.414
ATOM     31  C   UNL     1      33.710  19.371 126.464 -0.22 -0.00    +0.000    127.414
ATOM     32  C   UNL     1      33.064  20.621 126.587 -0.17 -0.00    +0.000    127.414
ATOM     33  C   UNL     1      33.642  21.780 126.035 -0.16 -0.00    +0.000    127.414
ATOM     34  H   UNL     1      35.358  23.578 124.743 -0.00 -0.00    +0.000    127.414
ATOM     35  CM  UNL     1      35.845  21.511 124.849 +0.00 -0.00    +0.000    127.414
ATOM     36  CM  UNL     1      34.282  20.519 125.914 +0.00 -0.00    +0.000    127.414
TER
ENDMDL
MODEL       49
USER    Run = 49
USER    Cluster Rank = 17
USER    Number of conformations in this cluster = 2
USER  
USER    RMSD from reference structure       = 126.240 A
USER  
USER    Estimated Free Energy of Binding    =   -9.94 kcal/mol  [=(1)+(2)+(3)-(4)]
USER    Estimated Inhibition Constant, Ki   =   51.36 nM (nanomolar)  [Temperature = 298.15 K]
USER    
USER    (1) Final Intermolecular Energy     =  -13.23 kcal/mol
USER        vdW + Hbond + desolv Energy     =  -13.23 kcal/mol
USER        Electrostatic Energy            =   +0.00 kcal/mol
USER    (2) Final Total Internal Energy     =   -3.53 kcal/mol
USER    (3) Torsional Free Energy           =   +3.28 kcal/mol
USER    (4) Unbound System's Energy  [=(2)] =   -3.53 kcal/mol
USER    
USER    
USER  
USER    DPF = ligand_dock.biased.dpf
USER    NEWDPF move	ligand.dum.pdbqt
USER    NEWDPF about	0.460000 0.128000 -0.007000
USER    NEWDPF tran0	37.233492 16.946259 121.416042
USER    NEWDPF axisangle0	-0.760828 0.642072 0.094257 166.377599
USER    NEWDPF quaternion0	-0.755458 0.637541 0.093592 0.118598
USER    NEWDPF dihe0	21.61 131.81 112.27 41.18 -179.74 -177.04 -23.83 -85.14 88.39 166.49 -5.69 
USER  
USER                              x       y       z    vdW   Elec        q     RMS 
ATOM      1  N   UNL     1      38.249  18.066 121.044 -0.06 -0.00    +0.000    126.240
ATOM      2  H   UNL     1      38.496  17.532 121.877 +0.01 -0.00    +0.000    126.240
ATOM      3  C   UNL     1      37.039  17.459 120.449 -0.13 -0.00    +0.000    126.240
ATOM      4  C   UNL     1      37.228  13.142 120.688 -0.41 -0.00    +0.000    126.240
ATOM      5  C   UNL     1      37.360  13.927 121.846 -0.38 -0.00    +0.000    126.240
ATOM      6  C   UNL     1      37.308  15.321 121.772 -0.26 -0.00    +0.000    126.240
ATOM      7  C   UNL     1      37.116  15.958 120.537 -0.18 -0.00    +0.000    126.240
ATOM      8  C   UNL     1      36.962  15.181 119.381 -0.20 -0.00    +0.000    126.240
ATOM      9  C   UNL     1      37.015  13.785 119.452 -0.34 -0.00    +0.000    126.240
ATOM     10  CM  UNL     1      37.165  14.553 120.612 +0.00 -0.00    +0.000    126.240
ATOM     11  C   UNL     1      36.986  11.011 121.955 -0.56 -0.00    +0.000    126.240
ATOM     12  C   UNL     1      37.280  11.665 120.822 -0.48 -0.00    +0.000    126.240
ATOM     13  O   UNL     1      37.062   8.846 121.030 -2.70 -0.00    +0.000    126.240
ATOM     14  C   UNL     1      37.039   9.539 122.082 -0.62 -0.00    +0.000    126.240
ATOM     15  N   UNL     1      37.093   8.881 123.355 -0.62 -0.00    +0.000    126.240
ATOM     16  H   UNL     1      37.180   9.412 124.178 -0.59 -0.00    +0.000    126.240
ATOM     17  O   UNL     1      37.026   7.530 123.425 -2.18 -0.00    +0.000    126.240
ATOM     18  H   UNL     1      37.283   7.149 122.571 -0.17 -0.00    +0.000    126.240
ATOM     19  C   UNL     1      39.417  17.944 120.139 -0.05 -0.00    +0.000    126.240
ATOM     20  C   UNL     1      40.604  17.234 120.811 -0.12 -0.00    +0.000    126.240
ATOM     21  O   UNL     1      40.166  16.347 121.805 -0.23 -0.00    +0.000    126.240
ATOM     22  H   UNL     1      39.736  15.583 121.391 -0.00 -0.00    +0.000    126.240
ATOM     23  C   UNL     1      37.997  19.441 121.538 -0.07 -0.00    +0.000    126.240
ATOM     24  C   UNL     1      36.513  19.750 121.817 -0.14 -0.00    +0.000    126.240
ATOM     25  C   UNL     1      36.148  19.327 123.208 -0.18 -0.00    +0.000    126.240
ATOM     26  C   UNL     1      36.584  19.909 124.395 -0.14 -0.00    +0.000    126.240
ATOM     27  N   UNL     1      36.116  19.217 125.459 -0.16 -0.00    +0.000    126.240
ATOM     28  C   UNL     1      35.401  18.197 124.954 -0.25 -0.00    +0.000    126.240
ATOM     29  C   UNL     1      35.403  18.227 123.583 -0.26 -0.00    +0.000    126.240
ATOM     30  C   UNL     1      34.751  17.253 122.824 -0.35 -0.00    +0.000    126.240
ATOM     31  C   UNL     1      34.074  16.230 123.514 -0.37 -0.00    +0.000    126.240
ATOM     32  C   UNL     1      34.067  16.202 124.926 -0.45 -0.00    +0.000    126.240
ATOM     33  C   UNL     1      34.740  17.195 125.663 -0.26 -0.00    +0.000    126.240
ATOM     34  H   UNL     1      36.267  19.421 126.410 -0.00 -0.00    +0.000    126.240
ATOM     35  CM  UNL     1      35.936  18.983 124.356 -0.06 -0.00    +0.000    126.240
ATOM     36  CM  UNL     1      34.739  17.217 124.244 -0.25 -0.00    +0.000    126.240
TER
ENDMDL
MODEL       23
USER    Run = 23
USER    Cluster Rank = 18
USER    Number of conformations in this cluster = 2
USER  
USER    RMSD from reference structure       = 124.096 A
USER  
USER    Estimated Free Energy of Binding    =   -9.80 kcal/mol  [=(1)+(2)+(3)-(4)]
USER    Estimated Inhibition Constant, Ki   =   65.79 nM (nanomolar)  [Temperature = 298.15 K]
USER    
USER    (1) Final Intermolecular Energy     =  -13.08 kcal/mol
USER        vdW + Hbond + desolv Energy     =  -13.08 kcal/mol
USER        Electrostatic Energy            =   +0.00 kcal/mol
USER    (2) Final Total Internal Energy     =   -2.62 kcal/mol
USER    (3) Torsional Free Energy           =   +3.28 kcal/mol
USER    (4) Unbound System's Energy  [=(2)] =   -2.62 kcal/mol
USER    
USER    
USER  
USER    DPF = ligand_dock.biased.dpf
USER    NEWDPF move	ligand.dum.pdbqt
USER    NEWDPF about	0.460000 0.128000 -0.007000
USER    NEWDPF tran0	37.180120 15.421877 121.459148
USER    NEWDPF axisangle0	0.097372 0.341640 0.934773 143.137206
USER    NEWDPF quaternion0	0.092377 0.324115 0.886822 0.316169
USER    NEWDPF dihe0	8.02 18.42 -161.57 171.62 85.88 135.98 180.00 179.90 -155.57 164.54 30.49 
USER  
USER                              x       y       z    vdW   Elec        q     RMS 
ATOM      1  N   UNL     1      37.140  16.619 120.464 -0.15 -0.00    +0.000    124.096
ATOM      2  H   UNL     1      36.786  15.742 120.083 -0.01 -0.00    +0.000    124.096
ATOM      3  C   UNL     1      37.454  16.408 121.894 -0.22 -0.00    +0.000    124.096
ATOM      4  C   UNL     1      36.371  12.399 123.113 -0.59 -0.00    +0.000    124.096
ATOM      5  C   UNL     1      37.205  12.605 122.001 -0.48 -0.00    +0.000    124.096
ATOM      6  C   UNL     1      37.550  13.898 121.599 -0.38 -0.00    +0.000    124.096
ATOM      7  C   UNL     1      37.073  15.011 122.307 -0.32 -0.00    +0.000    124.096
ATOM      8  C   UNL     1      36.257  14.811 123.429 -0.43 -0.00    +0.000    124.096
ATOM      9  C   UNL     1      35.910  13.519 123.833 -0.51 -0.00    +0.000    124.096
ATOM     10  CM  UNL     1      36.728  13.707 122.714 +0.00 -0.00    +0.000    124.096
ATOM     11  C   UNL     1      36.099   9.963 122.662 -0.69 -0.00    +0.000    124.096
ATOM     12  C   UNL     1      36.043  11.005 123.504 -0.65 -0.00    +0.000    124.096
ATOM     13  O   UNL     1      36.704   7.733 123.114 -2.18 -0.00    +0.000    124.096
ATOM     14  C   UNL     1      35.771   8.578 123.059 -0.71 -0.00    +0.000    124.096
ATOM     15  N   UNL     1      34.440   8.175 123.409 -0.64 -0.00    +0.000    124.096
ATOM     16  H   UNL     1      33.724   8.847 123.471 -0.54 -0.00    +0.000    124.096
ATOM     17  O   UNL     1      34.167   6.871 123.656 -0.81 -0.00    +0.000    124.096
ATOM     18  H   UNL     1      34.995   6.367 123.678 -0.04 -0.00    +0.000    124.096
ATOM     19  C   UNL     1      36.038  17.595 120.290 -0.18 -0.00    +0.000    124.096
ATOM     20  C   UNL     1      35.623  18.250 121.618 -0.26 -0.00    +0.000    124.096
ATOM     21  O   UNL     1      35.917  19.621 121.621 -0.70 -0.00    +0.000    124.096
ATOM     22  H   UNL     1      36.793  19.765 121.230 -0.00 -0.00    +0.000    124.096
ATOM     23  C   UNL     1      38.353  16.915 119.665 -0.10 -0.00    +0.000    124.096
ATOM     24  C   UNL     1      38.407  16.189 118.306 -0.13 -0.00    +0.000    124.096
ATOM     25  C   UNL     1      37.298  15.186 118.209 -0.20 -0.00    +0.000    124.096
ATOM     26  C   UNL     1      37.331  13.865 118.647 -0.34 -0.00    +0.000    124.096
ATOM     27  N   UNL     1      36.180  13.233 118.325 -0.33 -0.00    +0.000    124.096
ATOM     28  C   UNL     1      35.428  14.137 117.675 -0.29 -0.00    +0.000    124.096
ATOM     29  C   UNL     1      36.079  15.340 117.579 -0.21 -0.00    +0.000    124.096
ATOM     30  C   UNL     1      35.514  16.433 116.921 -0.12 -0.00    +0.000    124.096
ATOM     31  C   UNL     1      34.234  16.269 116.359 -0.14 -0.00    +0.000    124.096
ATOM     32  C   UNL     1      33.560  15.032 116.462 -0.24 -0.00    +0.000    124.096
ATOM     33  C   UNL     1      34.161  13.946 117.126 -0.23 -0.00    +0.000    124.096
ATOM     34  H   UNL     1      35.942  12.299 118.526 -0.26 -0.00    +0.000    124.096
ATOM     35  CM  UNL     1      36.454  14.316 118.094 +0.00 -0.00    +0.000    124.096
ATOM     36  CM  UNL     1      34.829  15.193 117.021 +0.00 -0.00    +0.000    124.096
TER
ENDMDL
MODEL       13
USER    Run = 13
USER    Cluster Rank = 19
USER    Number of conformations in this cluster = 1
USER  
USER    RMSD from reference structure       = 126.584 A
USER  
USER    Estimated Free Energy of Binding    =   -9.58 kcal/mol  [=(1)+(2)+(3)-(4)]
USER    Estimated Inhibition Constant, Ki   =   94.91 nM (nanomolar)  [Temperature = 298.15 K]
USER    
USER    (1) Final Intermolecular Energy     =  -12.86 kcal/mol
USER        vdW + Hbond + desolv Energy     =  -12.86 kcal/mol
USER        Electrostatic Energy            =   +0.00 kcal/mol
USER    (2) Final Total Internal Energy     =   -3.91 kcal/mol
USER    (3) Torsional Free Energy           =   +3.28 kcal/mol
USER    (4) Unbound System's Energy  [=(2)] =   -3.91 kcal/mol
USER    
USER    
USER  
USER    DPF = ligand_dock.biased.dpf
USER    NEWDPF move	ligand.dum.pdbqt
USER    NEWDPF about	0.460000 0.128000 -0.007000
USER    NEWDPF tran0	38.543992 16.701625 121.700902
USER    NEWDPF axisangle0	0.749491 -0.388250 -0.536214 167.968642
USER    NEWDPF quaternion0	0.745364 -0.386112 -0.533261 0.104801
USER    NEWDPF dihe0	9.04 11.35 79.39 80.64 -179.96 -172.51 169.78 -165.46 -163.63 167.61 49.26 
USER  
USER                              x       y       z    vdW   Elec        q     RMS 
ATOM      1  N   UNL     1      39.282  17.977 122.205 -0.10 -0.00    +0.000    126.584
ATOM      2  H   UNL     1      39.886  17.166 122.069 +0.00 -0.00    +0.000    126.584
ATOM      3  C   UNL     1      37.922  17.622 121.745 -0.12 -0.00    +0.000    126.584
ATOM      4  C   UNL     1      37.531  13.333 121.318 -0.42 -0.00    +0.000    126.584
ATOM      5  C   UNL     1      37.923  13.895 122.545 -0.43 -0.00    +0.000    126.584
ATOM      6  C   UNL     1      38.059  15.278 122.684 -0.33 -0.00    +0.000    126.584
ATOM      7  C   UNL     1      37.797  16.128 121.600 -0.19 -0.00    +0.000    126.584
ATOM      8  C   UNL     1      37.386  15.576 120.379 -0.19 -0.00    +0.000    126.584
ATOM      9  C   UNL     1      37.250  14.192 120.236 -0.29 -0.00    +0.000    126.584
ATOM     10  CM  UNL     1      37.657  14.734 121.460 +0.00 -0.00    +0.000    126.584
ATOM     11  C   UNL     1      37.073  11.075 122.266 -0.55 -0.00    +0.000    126.584
ATOM     12  C   UNL     1      37.391  11.858 121.226 -0.49 -0.00    +0.000    126.584
ATOM     13  O   UNL     1      36.805   9.092 121.025 -2.64 -0.00    +0.000    126.584
ATOM     14  C   UNL     1      36.935   9.606 122.167 -0.64 -0.00    +0.000    126.584
ATOM     15  N   UNL     1      36.973   8.753 123.319 -0.65 -0.00    +0.000    126.584
ATOM     16  H   UNL     1      37.177   9.133 124.204 -0.58 -0.00    +0.000    126.584
ATOM     17  O   UNL     1      36.729   7.427 123.192 -2.05 -0.00    +0.000    126.584
ATOM     18  H   UNL     1      36.689   7.195 122.251 -0.05 -0.00    +0.000    126.584
ATOM     19  C   UNL     1      39.873  19.051 121.372 -0.04 -0.00    +0.000    126.584
ATOM     20  C   UNL     1      40.538  18.503 120.099 -0.04 -0.00    +0.000    126.584
ATOM     21  O   UNL     1      40.526  17.101 120.085 -0.11 -0.00    +0.000    126.584
ATOM     22  H   UNL     1      40.860  16.765 120.931 +0.00 -0.00    +0.000    126.584
ATOM     23  C   UNL     1      39.325  18.237 123.664 -0.19 -0.00    +0.000    126.584
ATOM     24  C   UNL     1      40.432  17.466 124.411 -0.23 -0.00    +0.000    126.584
ATOM     25  C   UNL     1      41.305  16.737 123.436 -0.32 -0.00    +0.000    126.584
ATOM     26  C   UNL     1      41.207  15.397 123.072 -0.37 -0.00    +0.000    126.584
ATOM     27  N   UNL     1      42.210  15.063 122.229 -0.46 -0.00    +0.000    126.584
ATOM     28  C   UNL     1      42.947  16.175 122.068 -0.34 -0.00    +0.000    126.584
ATOM     29  C   UNL     1      42.430  17.216 122.794 -0.31 -0.00    +0.000    126.584
ATOM     30  C   UNL     1      43.037  18.473 122.814 -0.16 -0.00    +0.000    126.584
ATOM     31  C   UNL     1      44.205  18.648 122.049 -0.14 -0.00    +0.000    126.584
ATOM     32  C   UNL     1      44.736  17.577 121.297 -0.16 -0.00    +0.000    126.584
ATOM     33  C   UNL     1      44.104  16.319 121.303 -0.24 -0.00    +0.000    126.584
ATOM     34  H   UNL     1      42.367  14.183 121.816 -0.03 -0.00    +0.000    126.584
ATOM     35  CM  UNL     1      42.026  16.084 122.704 +0.00 -0.00    +0.000    126.584
ATOM     36  CM  UNL     1      43.577  17.402 122.054 +0.00 -0.00    +0.000    126.584
TER
ENDMDL
MODEL       43
USER    Run = 43
USER    Cluster Rank = 20
USER    Number of conformations in this cluster = 2
USER  
USER    RMSD from reference structure       = 123.127 A
USER  
USER    Estimated Free Energy of Binding    =   -9.46 kcal/mol  [=(1)+(2)+(3)-(4)]
USER    Estimated Inhibition Constant, Ki   =  116.32 nM (nanomolar)  [Temperature = 298.15 K]
USER    
USER    (1) Final Intermolecular Energy     =  -12.74 kcal/mol
USER        vdW + Hbond + desolv Energy     =  -12.74 kcal/mol
USER        Electrostatic Energy            =   +0.00 kcal/mol
USER    (2) Final Total Internal Energy     =   -3.02 kcal/mol
USER    (3) Torsional Free Energy           =   +3.28 kcal/mol
USER    (4) Unbound System's Energy  [=(2)] =   -3.02 kcal/mol
USER    
USER    
USER  
USER    DPF = ligand_dock.biased.dpf
USER    NEWDPF move	ligand.dum.pdbqt
USER    NEWDPF about	0.460000 0.128000 -0.007000
USER    NEWDPF tran0	36.929953 16.638662 119.254007
USER    NEWDPF axisangle0	-0.313840 0.046798 -0.948322 -104.517568
USER    NEWDPF quaternion0	-0.248179 0.037007 -0.749917 -0.612096
USER    NEWDPF dihe0	17.27 39.47 159.67 -168.78 171.55 34.64 -170.62 134.06 173.43 149.59 2.47 
USER  
USER                              x       y       z    vdW   Elec        q     RMS 
ATOM      1  N   UNL     1      35.925  17.821 119.388 -0.13 -0.00    +0.000    123.127
ATOM      2  H   UNL     1      35.594  17.049 118.809 -0.01 -0.00    +0.000    123.127
ATOM      3  C   UNL     1      37.228  17.434 119.972 -0.11 -0.00    +0.000    123.127
ATOM      4  C   UNL     1      37.398  13.156 120.606 -0.42 -0.00    +0.000    123.127
ATOM      5  C   UNL     1      36.774  13.683 119.463 -0.29 -0.00    +0.000    123.127
ATOM      6  C   UNL     1      36.709  15.064 119.259 -0.20 -0.00    +0.000    123.127
ATOM      7  C   UNL     1      37.275  15.945 120.192 -0.17 -0.00    +0.000    123.127
ATOM      8  C   UNL     1      37.918  15.425 121.323 -0.23 -0.00    +0.000    123.127
ATOM      9  C   UNL     1      37.983  14.044 121.531 -0.37 -0.00    +0.000    123.127
ATOM     10  CM  UNL     1      37.343  14.553 120.396 +0.00 -0.00    +0.000    123.127
ATOM     11  C   UNL     1      36.979  11.037 121.847 -0.55 -0.00    +0.000    123.127
ATOM     12  C   UNL     1      37.449  11.682 120.770 -0.49 -0.00    +0.000    123.127
ATOM     13  O   UNL     1      37.076   8.855 120.966 -2.70 -0.00    +0.000    123.127
ATOM     14  C   UNL     1      37.033   9.568 122.003 -0.62 -0.00    +0.000    123.127
ATOM     15  N   UNL     1      37.066   8.935 123.290 -0.63 -0.00    +0.000    123.127
ATOM     16  H   UNL     1      37.137   9.482 124.104 -0.56 -0.00    +0.000    123.127
ATOM     17  O   UNL     1      37.000   7.585 123.385 -2.21 -0.00    +0.000    123.127
ATOM     18  H   UNL     1      37.206   7.190 122.524 -0.14 -0.00    +0.000    123.127
ATOM     19  C   UNL     1      34.892  17.996 120.437 -0.27 -0.00    +0.000    123.127
ATOM     20  C   UNL     1      35.500  18.373 121.797 -0.27 -0.00    +0.000    123.127
ATOM     21  O   UNL     1      35.913  19.713 121.815 -0.75 -0.00    +0.000    123.127
ATOM     22  H   UNL     1      36.045  20.023 120.906 -0.01 -0.00    +0.000    123.127
ATOM     23  C   UNL     1      36.052  18.965 118.453 -0.09 -0.00    +0.000    123.127
ATOM     24  C   UNL     1      35.915  18.583 116.966 -0.04 -0.00    +0.000    123.127
ATOM     25  C   UNL     1      36.887  17.498 116.617 -0.05 -0.00    +0.000    123.127
ATOM     26  C   UNL     1      38.252  17.647 116.383 -0.04 -0.00    +0.000    123.127
ATOM     27  N   UNL     1      38.799  16.466 116.016 -0.10 -0.00    +0.000    123.127
ATOM     28  C   UNL     1      37.791  15.577 116.002 -0.14 -0.00    +0.000    123.127
ATOM     29  C   UNL     1      36.607  16.171 116.357 -0.10 -0.00    +0.000    123.127
ATOM     30  C   UNL     1      35.407  15.459 116.389 -0.18 -0.00    +0.000    123.127
ATOM     31  C   UNL     1      35.447  14.093 116.053 -0.29 -0.00    +0.000    123.127
ATOM     32  C   UNL     1      36.667  13.479 115.692 -0.26 -0.00    +0.000    123.127
ATOM     33  C   UNL     1      37.859  14.227 115.662 -0.31 -0.00    +0.000    123.127
ATOM     34  H   UNL     1      39.744  16.294 115.803 +0.00 -0.00    +0.000    123.127
ATOM     35  CM  UNL     1      37.703  16.665 116.266 +0.00 -0.00    +0.000    123.127
ATOM     36  CM  UNL     1      36.630  14.834 116.026 +0.00 -0.00    +0.000    123.127
TER
ENDMDL
MODEL       58
USER    Run = 58
USER    Cluster Rank = 21
USER    Number of conformations in this cluster = 1
USER  
USER    RMSD from reference structure       = 122.714 A
USER  
USER    Estimated Free Energy of Binding    =   -9.17 kcal/mol  [=(1)+(2)+(3)-(4)]
USER    Estimated Inhibition Constant, Ki   =  188.51 nM (nanomolar)  [Temperature = 298.15 K]
USER    
USER    (1) Final Intermolecular Energy     =  -12.46 kcal/mol
USER        vdW + Hbond + desolv Energy     =  -12.46 kcal/mol
USER        Electrostatic Energy            =   +0.00 kcal/mol
USER    (2) Final Total Internal Energy     =   -3.29 kcal/mol
USER    (3) Torsional Free Energy           =   +3.28 kcal/mol
USER    (4) Unbound System's Energy  [=(2)] =   -3.29 kcal/mol
USER    
USER    
USER  
USER    DPF = ligand_dock.biased.dpf
USER    NEWDPF move	ligand.dum.pdbqt
USER    NEWDPF about	0.460000 0.128000 -0.007000
USER    NEWDPF tran0	38.947706 14.912747 119.080281
USER    NEWDPF axisangle0	-0.076999 0.173123 0.981886 91.862566
USER    NEWDPF quaternion0	-0.055325 0.124390 0.705491 0.695521
USER    NEWDPF dihe0	9.00 -163.71 91.51 56.16 54.68 -179.17 174.12 -165.66 -179.49 176.03 -45.58 
USER  
USER                              x       y       z    vdW   Elec        q     RMS 
ATOM      1  N   UNL     1      37.770  15.844 118.668 -0.14 -0.00    +0.000    122.714
ATOM      2  H   UNL     1      38.062  15.189 117.944 -0.01 -0.00    +0.000    122.714
ATOM      3  C   UNL     1      38.543  15.552 119.895 -0.20 -0.00    +0.000    122.714
ATOM      4  C   UNL     1      36.868  12.144 121.972 -0.51 -0.00    +0.000    122.714
ATOM      5  C   UNL     1      37.436  11.993 120.696 -0.47 -0.00    +0.000    122.714
ATOM      6  C   UNL     1      37.970  13.092 120.018 -0.34 -0.00    +0.000    122.714
ATOM      7  C   UNL     1      37.953  14.364 120.608 -0.30 -0.00    +0.000    122.714
ATOM      8  C   UNL     1      37.407  14.519 121.890 -0.34 -0.00    +0.000    122.714
ATOM      9  C   UNL     1      36.871  13.421 122.570 -0.47 -0.00    +0.000    122.714
ATOM     10  CM  UNL     1      37.418  13.256 121.292 +0.00 -0.00    +0.000    122.714
ATOM     11  C   UNL     1      36.691   9.689 122.354 -0.71 -0.00    +0.000    122.714
ATOM     12  C   UNL     1      36.324  10.943 122.653 -0.69 -0.00    +0.000    122.714
ATOM     13  O   UNL     1      36.922   7.534 123.276 -2.17 -0.00    +0.000    122.714
ATOM     14  C   UNL     1      36.146   8.497 123.037 -0.74 -0.00    +0.000    122.714
ATOM     15  N   UNL     1      34.777   8.414 123.459 -0.60 -0.00    +0.000    122.714
ATOM     16  H   UNL     1      34.189   9.198 123.372 -0.47 -0.00    +0.000    122.714
ATOM     17  O   UNL     1      34.294   7.260 123.978 -0.77 -0.00    +0.000    122.714
ATOM     18  H   UNL     1      35.026   6.641 124.126 -0.05 -0.00    +0.000    122.714
ATOM     19  C   UNL     1      36.323  15.590 118.866 -0.19 -0.00    +0.000    122.714
ATOM     20  C   UNL     1      35.839  14.347 118.102 -0.29 -0.00    +0.000    122.714
ATOM     21  O   UNL     1      36.915  13.656 117.526 -0.42 -0.00    +0.000    122.714
ATOM     22  H   UNL     1      36.810  12.705 117.682 -0.04 -0.00    +0.000    122.714
ATOM     23  C   UNL     1      38.088  17.183 118.116 -0.07 -0.00    +0.000    122.714
ATOM     24  C   UNL     1      38.796  17.149 116.747 -0.07 -0.00    +0.000    122.714
ATOM     25  C   UNL     1      38.865  15.743 116.232 -0.16 -0.00    +0.000    122.714
ATOM     26  C   UNL     1      39.913  14.844 116.409 -0.20 -0.00    +0.000    122.714
ATOM     27  N   UNL     1      39.666  13.695 115.740 -0.41 -0.00    +0.000    122.714
ATOM     28  C   UNL     1      38.479  13.866 115.132 -0.39 -0.00    +0.000    122.714
ATOM     29  C   UNL     1      37.962  15.106 115.404 -0.20 -0.00    +0.000    122.714
ATOM     30  C   UNL     1      36.749  15.533 114.863 -0.12 -0.00    +0.000    122.714
ATOM     31  C   UNL     1      36.054  14.639 114.027 -0.18 -0.00    +0.000    122.714
ATOM     32  C   UNL     1      36.583  13.359 113.750 -0.30 -0.00    +0.000    122.714
ATOM     33  C   UNL     1      37.814  12.961 114.306 -0.29 -0.00    +0.000    122.714
ATOM     34  H   UNL     1      40.239  12.896 115.706 -0.13 -0.00    +0.000    122.714
ATOM     35  CM  UNL     1      38.999  14.620 115.782 +0.00 -0.00    +0.000    122.714
ATOM     36  CM  UNL     1      37.273  14.244 114.580 +0.00 -0.00    +0.000    122.714
TER
ENDMDL


AVSFLD: # AVS field file
AVSFLD: #
AVSFLD: # Created by AutoDock
AVSFLD: #
AVSFLD: ndim=2           # number of dimensions in the field
AVSFLD: nspace=1         # number of physical coordinates
AVSFLD: veclen=7         # vector size
AVSFLD: dim1=36          # atoms
AVSFLD: dim2=21          # conformations
AVSFLD: data=Real       # data type (byte,integer,Real,double)
AVSFLD: field=uniform    # field coordinate layout
AVSFLD: label= x y z vdW Elec q RMS
AVSFLD: variable 1 file = ligand_dock.biased.dlg.pdb filetype = ascii offset = 5 stride = 12
AVSFLD: variable 2 file = ligand_dock.biased.dlg.pdb filetype = ascii offset = 6 stride = 12
AVSFLD: variable 3 file = ligand_dock.biased.dlg.pdb filetype = ascii offset = 7 stride = 12
AVSFLD: variable 4 file = ligand_dock.biased.dlg.pdb filetype = ascii offset = 8 stride = 12
AVSFLD: variable 5 file = ligand_dock.biased.dlg.pdb filetype = ascii offset = 9 stride = 12
AVSFLD: variable 6 file = ligand_dock.biased.dlg.pdb filetype = ascii offset = 10 stride = 12
AVSFLD: variable 7 file = ligand_dock.biased.dlg.pdb filetype = ascii offset = 11 stride = 12
AVSFLD: # end of file

>>> Closing the docking parameter file (DPF)...
This docking finished at:			6:58 06" p.m., 11/08/2024


________________________________________________________________________________

autodock4: Successful Completion on "ThinkStation-P620"

Real= 18m 59.46s,  CPU= 18m 59.10s,  System= 0.23s
________________________________________________________________________________

