REMARK  Name = 
REMARK  8 active torsions:
REMARK  status: ('A' for Active; 'I' for Inactive)
REMARK    1  A    between atoms: C_2  and  C_3
REMARK    2  A    between atoms: C_4  and  C_5
REMARK    3  A    between atoms: C_8  and  C_9
REMARK    4  A    between atoms: C_9  and  N_10
REMARK    5  A    between atoms: N_10  and  C_11
REMARK    6  A    between atoms: C_11  and  C_12
REMARK    7  A    between atoms: C_12  and  C_13
REMARK    8  A    between atoms: C_14  and  C_22
REMARK                            x       y       z     vdW  Elec       q    Type
REMARK                         _______ _______ _______ _____ _____    ______ ____
ROOT
ATOM      1  N   UNL     1      -7.033   2.052  -0.202  0.00  0.00    +0.000 N 
ATOM      2  H   UNL     1      -7.827   2.688  -0.137  0.00  0.00    +0.000 HD
ATOM      3  H   UNL     1      -6.160   2.518   0.048  0.00  0.00    +0.000 HD
ENDROOT
BRANCH   1   4
ATOM      4  C   UNL     1      -6.910   1.590  -1.590  0.00  0.00    +0.000 C 
BRANCH   4   8
ATOM      5  C   UNL     1      -9.653   3.872  -4.035  0.00  0.00    +0.000 A 
ATOM      6  C   UNL     1     -10.076   2.734  -3.368  0.00  0.00    +0.000 A 
ATOM      7  C   UNL     1      -9.186   1.976  -2.603  0.00  0.00    +0.000 A 
ATOM      8  C   UNL     1      -7.854   2.387  -2.447  0.00  0.00    +0.000 A 
ATOM      9  C   UNL     1      -7.433   3.588  -3.037  0.00  0.00    +0.000 A 
ATOM     10  C   UNL     1      -8.322   4.347  -3.801  0.00  0.00    +0.000 A 
BRANCH   5  12
ATOM     11  C   UNL     1     -11.675   4.320  -5.386  0.00  0.00    +0.000 C 
ATOM     12  C   UNL     1     -10.552   4.736  -4.848  0.00  0.00    +0.000 C 
BRANCH  11  14
ATOM     13  O   UNL     1     -13.766   4.669  -6.415  0.00  0.00    +0.000 OA
ATOM     14  C   UNL     1     -12.712   4.174  -6.393  0.00  0.00    +0.000 C 
ATOM     15  N   UNL     1     -12.368   3.861  -7.749  0.00  0.00    +0.000 N 
ATOM     16  O   UNL     1     -13.326   3.846  -8.705  0.00  0.00    +0.000 OA
ATOM     17  H   UNL     1     -11.434   3.657  -7.984  0.00  0.00    +0.000 HD
ENDBRANCH  11  14
ENDBRANCH   5  12
ENDBRANCH   4   8
ENDBRANCH   1   4
BRANCH   1  18
ATOM     18  C   UNL     1      -7.236   0.943   0.742  0.00  0.00    +0.000 C 
BRANCH  18  19
ATOM     19  C   UNL     1      -5.965   0.605   1.537  0.00  0.00    +0.000 C 
BRANCH  19  20
ATOM     20  C   UNL     1      -5.937  -0.855   1.885  0.00  0.00    +0.000 A 
ATOM     21  C   UNL     1      -4.855  -1.731   1.783  0.00  0.00    +0.000 A 
ATOM     22  N   UNL     1      -5.224  -2.989   2.121  0.00  0.00    +0.000 N 
ATOM     23  C   UNL     1      -6.534  -2.922   2.416  0.00  0.00    +0.000 A 
ATOM     24  C   UNL     1      -7.006  -1.640   2.276  0.00  0.00    +0.000 A 
ATOM     25  C   UNL     1      -8.346  -1.324   2.504  0.00  0.00    +0.000 A 
ATOM     26  C   UNL     1      -9.209  -2.363   2.894  0.00  0.00    +0.000 A 
ATOM     27  C   UNL     1      -8.722  -3.681   3.042  0.00  0.00    +0.000 A 
ATOM     28  C   UNL     1      -7.367  -3.972   2.799  0.00  0.00    +0.000 A 
ATOM     29  C   UNL     1      -3.466  -1.358   1.373  0.00  0.00    +0.000 C 
ATOM     30  H   UNL     1      -4.651  -3.789   2.146  0.00  0.00    +0.000 HD
ENDBRANCH  19  20
ENDBRANCH  18  19
ENDBRANCH   1  18
TORSDOF 7
