          AutoDock 4.2 Release 4.2.6   
         (C) 1989-2012 The Scripps Research Institute
        AutoDock comes with ABSOLUTELY NO WARRANTY.
        AutoDock is free software, and you are welcome
        to redistribute it under certain conditions;
        for details type 'autodock4 -C'

                     main.cc  $Revision: 1.213 $

                   Compiled on Feb 20 2022 at 09:48:33


This file was created at:			5:06 21" p.m., 11/03/2024
                   on host:		"ThinkStation-P620"
Current Working Directory = "/home/antonio/Documenti/buccheri/IDROSSAMICO HDAC/HDAC 4/DP/Ligand_2"

      ________________________________________________________________

                   SETTING UP DEFAULT PARAMETER LIBRARY
      ________________________________________________________________


Random number generator was seeded with values 24273, 1730649981.
Docking parameter file (DPF) used for this docking:		ligand_dock.biased.dpf
DPF> autodock_parameter_version 4.2       # used by autodock to validate parameter set

	Autodock parameter version 4.2.
DPF> outlev 1                             # diagnostic output level

Output Level = 1  ADT-COMPATIBLE OUTPUT DURING DOCKING.
DPF> intelec                              # calculate internal electrostatics

Electrostatic energies will be calculated for all non-bonds between moving atoms.
DPF> seed pid time                        # seeds for random generator

Random number generator was seeded with values 24273, 1730649981.
DPF> ligand_types A C OA HD N             # atoms types in ligand

DPF> fld receptor.maps.fld                # grid_data_file

Opening Grid Map Dimensions file:		receptor.maps.fld
Grid Point Spacing =				0.375 Angstroms

Even Number of User-specified Grid Points =	70 x-points
						70 y-points
						70 z-points

Coordinates of Central Grid Point of Maps =	(19.141, -8.645, -3.505)
Macromolecule file used to create Grid Maps =	receptor.pdbqt
Grid Parameter file used to create Grid Maps =	receptor.gpf
Minimum coordinates in grid = (6.016, -21.770, -16.630)
Maximum coordinates in grid = (32.266, 4.480, 9.620)

DPF> map receptor.A.map                   # atom-specific affinity map

DPF> map receptor.C.map                   # atom-specific affinity map

DPF> map receptor.OA.biased.map

DPF> map receptor.HD.map                  # atom-specific affinity map

DPF> map receptor.N.map                   # atom-specific affinity map

DPF> elecmap receptor.e.map               # electrostatics map

DPF> desolvmap receptor.d.map             # desolvation map

DPF> move ligand.pdbqt                    # small molecule

1,4-interactions will be _ignored_ in the non-bonded internal energy calculation.

Ligand PDBQT file = "ligand.pdbqt"

INPUT LIGAND PDBQT FILE:
________________________

INPUT-LIGAND-PDBQT: REMARK  Name = 
INPUT-LIGAND-PDBQT: REMARK  8 active torsions:
INPUT-LIGAND-PDBQT: REMARK  status: ('A' for Active; 'I' for Inactive)
INPUT-LIGAND-PDBQT: REMARK    1  A    between atoms: C_2  and  C_3
INPUT-LIGAND-PDBQT: REMARK    2  A    between atoms: C_4  and  C_5
INPUT-LIGAND-PDBQT: REMARK    3  A    between atoms: C_8  and  C_9
INPUT-LIGAND-PDBQT: REMARK    4  A    between atoms: C_9  and  N_10
INPUT-LIGAND-PDBQT: REMARK    5  A    between atoms: N_10  and  C_11
INPUT-LIGAND-PDBQT: REMARK    6  A    between atoms: C_11  and  C_12
INPUT-LIGAND-PDBQT: REMARK    7  A    between atoms: C_12  and  C_13
INPUT-LIGAND-PDBQT: REMARK    8  A    between atoms: C_14  and  C_22
INPUT-LIGAND-PDBQT: REMARK                            x       y       z     vdW  Elec       q    Type
INPUT-LIGAND-PDBQT: REMARK                         _______ _______ _______ _____ _____    ______ ____
INPUT-LIGAND-PDBQT: ROOT
INPUT-LIGAND-PDBQT: ATOM      1  N   UNL     1      -0.133   0.116   0.446  0.00  0.00    +0.000 N 
INPUT-LIGAND-PDBQT: ATOM      2  H   UNL     1       0.339   0.816   1.018  0.00  0.00    +0.000 HD
INPUT-LIGAND-PDBQT: ATOM      3  H   UNL     1      -0.114  -0.803   0.889  0.00  0.00    +0.000 HD
INPUT-LIGAND-PDBQT: ENDROOT
INPUT-LIGAND-PDBQT: BRANCH   1   4
INPUT-LIGAND-PDBQT: ATOM      4  C   UNL     1       0.567   0.007  -0.840  0.00  0.00    +0.000 C 
INPUT-LIGAND-PDBQT: BRANCH   4   8
INPUT-LIGAND-PDBQT: ATOM      5  C   UNL     1       4.817  -0.209  -0.066  0.00  0.00    +0.000 A 
INPUT-LIGAND-PDBQT: ATOM      6  C   UNL     1       4.175   1.039  -0.197  0.00  0.00    +0.000 A 
INPUT-LIGAND-PDBQT: ATOM      7  C   UNL     1       2.803   1.105  -0.459  0.00  0.00    +0.000 A 
INPUT-LIGAND-PDBQT: ATOM      8  C   UNL     1       2.049  -0.069  -0.598  0.00  0.00    +0.000 A 
INPUT-LIGAND-PDBQT: ATOM      9  C   UNL     1       2.678  -1.312  -0.435  0.00  0.00    +0.000 A 
INPUT-LIGAND-PDBQT: ATOM     10  C   UNL     1       4.048  -1.380  -0.172  0.00  0.00    +0.000 A 
INPUT-LIGAND-PDBQT: BRANCH   5  12
INPUT-LIGAND-PDBQT: ATOM     11  C   UNL     1       7.166   0.624  -0.039  0.00  0.00    +0.000 C 
INPUT-LIGAND-PDBQT: ATOM     12  C   UNL     1       6.267  -0.337   0.224  0.00  0.00    +0.000 C 
INPUT-LIGAND-PDBQT: BRANCH  11  14
INPUT-LIGAND-PDBQT: ATOM     13  O   UNL     1       9.316   1.532   0.271  0.00  0.00    +0.000 OA
INPUT-LIGAND-PDBQT: ATOM     14  C   UNL     1       8.608   0.490   0.250  0.00  0.00    +0.000 C 
INPUT-LIGAND-PDBQT: ATOM     15  N   UNL     1       9.230  -0.781   0.479  0.00  0.00    +0.000 N 
INPUT-LIGAND-PDBQT: ATOM     16  O   UNL     1      10.532  -0.843   0.843  0.00  0.00    +0.000 OA
INPUT-LIGAND-PDBQT: ATOM     17  H   UNL     1       8.709  -1.609   0.371  0.00  0.00    +0.000 HD
INPUT-LIGAND-PDBQT: ENDBRANCH  11  14
INPUT-LIGAND-PDBQT: ENDBRANCH   5  12
INPUT-LIGAND-PDBQT: ENDBRANCH   4   8
INPUT-LIGAND-PDBQT: ENDBRANCH   1   4
INPUT-LIGAND-PDBQT: BRANCH   1  18
INPUT-LIGAND-PDBQT: ATOM     18  C   UNL     1      -1.541   0.508   0.285  0.00  0.00    +0.000 C 
INPUT-LIGAND-PDBQT: BRANCH  18  19
INPUT-LIGAND-PDBQT: ATOM     19  C   UNL     1      -2.410  -0.631  -0.273  0.00  0.00    +0.000 C 
INPUT-LIGAND-PDBQT: BRANCH  19  20
INPUT-LIGAND-PDBQT: ATOM     20  C   UNL     1      -3.852  -0.215  -0.319  0.00  0.00    +0.000 A 
INPUT-LIGAND-PDBQT: ATOM     21  C   UNL     1      -4.523   0.404  -1.375  0.00  0.00    +0.000 A 
INPUT-LIGAND-PDBQT: ATOM     22  N   UNL     1      -5.800   0.691  -1.028  0.00  0.00    +0.000 N 
INPUT-LIGAND-PDBQT: ATOM     23  C   UNL     1      -5.937   0.279   0.244  0.00  0.00    +0.000 A 
INPUT-LIGAND-PDBQT: ATOM     24  C   UNL     1      -4.770  -0.272   0.713  0.00  0.00    +0.000 A 
INPUT-LIGAND-PDBQT: ATOM     25  C   UNL     1      -4.659  -0.751   2.019  0.00  0.00    +0.000 A 
INPUT-LIGAND-PDBQT: ATOM     26  C   UNL     1      -5.790  -0.662   2.850  0.00  0.00    +0.000 A 
INPUT-LIGAND-PDBQT: ATOM     27  C   UNL     1      -6.992  -0.100   2.365  0.00  0.00    +0.000 A 
INPUT-LIGAND-PDBQT: ATOM     28  C   UNL     1      -7.073   0.381   1.046  0.00  0.00    +0.000 A 
INPUT-LIGAND-PDBQT: ATOM     29  C   UNL     1      -3.942   0.708  -2.719  0.00  0.00    +0.000 C 
INPUT-LIGAND-PDBQT: ATOM     30  H   UNL     1      -6.487   1.115  -1.592  0.00  0.00    +0.000 HD
INPUT-LIGAND-PDBQT: ENDBRANCH  19  20
INPUT-LIGAND-PDBQT: ENDBRANCH  18  19
INPUT-LIGAND-PDBQT: ENDBRANCH   1  18
INPUT-LIGAND-PDBQT: TORSDOF 7
________________________________________________________________________________

Total charge on ligand                               =	+0.000 e
REMARK  Name = 
REMARK  8 active torsions:
REMARK  status: ('A' for Active; 'I' for Inactive)
REMARK    1  A    between atoms: C_2  and  C_3
REMARK    2  A    between atoms: C_4  and  C_5
REMARK    3  A    between atoms: C_8  and  C_9
REMARK    4  A    between atoms: C_9  and  N_10
REMARK    5  A    between atoms: N_10  and  C_11
REMARK    6  A    between atoms: C_11  and  C_12
REMARK    7  A    between atoms: C_12  and  C_13
REMARK    8  A    between atoms: C_14  and  C_22
REMARK                            x       y       z     vdW  Elec       q    Type
REMARK                         _______ _______ _______ _____ _____    ______ ____


Number of Rotatable Bonds in Small Molecule =	7 torsions
Number of atoms in ligand:  30

Number of non-hydrogen atoms in ligand:  26

Number of vibrational degrees of freedom of ligand:  84


Number of torsional degrees of freedom = 7
Estimated loss of torsional free energy upon binding = +2.0881 kcal/mol


DPF> about 0.576 -0.005 0.140            # small molecule center

Small molecule center of rotation =	(+0.576, -0.005, +0.140)

DPF> tran0 random                         # initial coordinates/A or random

Initial translation =			(29.642, -1.838, -13.760) Angstroms
DPF> quaternion0 random                   # initial orientation

Each run will begin with a new, random initial orientation.
Initial quaternion,  (x,y,z,w) =	( 0.218, -0.432, -0.191, 0.854 ),
DPF> dihe0 random                         # initial dihedrals (relative) or random

DPF> torsdof 7                            # torsional degrees of freedom

Number of torsional degrees of freedom = 7
Free energy coefficient for torsional degrees of freedom = 0.2983, the factory default value.

Estimated loss of torsional free energy upon binding = +2.0881 kcal/mol

DPF> rmstol 2.0                           # cluster_tolerance/A

Maximum RMS tolerance for conformational cluster analysis = 2.00 Angstroms
DPF> extnrg 1000.0                        # external grid energy

External grid energy (beyond grid map walls) = 1000.00

DPF> e0max 0.0 10000                      # max initial energy; max number of retries

Using user-specified maximum number of retries for simanneal initialization, 10000 retries.
If the simanneal initial energy is greater than e0max, 0.000,
then a new, random initial state will be created.

DPF> ga_pop_size 150                      # number of individuals in population

A population of 150 individuals will be used
DPF> ga_num_evals 2500000                 # maximum number of energy evaluations

There will be at most 2500000 function evaluations used.
DPF> ga_num_generations 27000             # maximum number of generations

The GA will run for at most 27000 generations.
DPF> ga_elitism 1                         # number of top individuals to survive to next generation

The 1 best will be preserved each GA generation.
DPF> ga_mutation_rate 0.02                # rate of gene mutation

The mutation rate is 0.020000.
DPF> ga_crossover_rate 0.8                # rate of crossover

The crossover rate is 0.800000.
DPF> ga_window_size 10                    # 

The GA's selection window is 10 generations.
DPF> ga_cauchy_alpha 0.0                  # Alpha parameter of Cauchy distribution

The alpha parameter (for the Cauchy distribution) is being set to 0.000000.
DPF> ga_cauchy_beta 1.0                   # Beta parameter Cauchy distribution

The beta parameter (for the Cauchy distribution) is being set to 1.000000.
DPF> set_ga                               # set the above parameters for GA or LGA

DPF> sw_max_its 300                       # iterations of Solis & Wets local search

Solis & Wets algorithms will perform at most 300 iterations.
DPF> sw_max_succ 4                        # consecutive successes before changing rho

Solis & Wets algorithms expand rho every 4 in a row successes.
DPF> sw_max_fail 4                        # consecutive failures before changing rho

Solis & Wets algorithms contract rho every 4 in a row failures.
DPF> sw_rho 1.0                           # size of local search space to sample

rho is set to 1.000000.
DPF> sw_lb_rho 0.01                       # lower bound on rho

rho will never get smaller than 0.010000.
DPF> ls_search_freq 0.06                  # probability of performing local search on individual

Local search will be performed with frequency 0.060000.
DPF> set_psw1                             # set the above pseudo-Solis & Wets parameters

Creating a new Local Search object using the pseudo-Solis-Wets algorithm (pSW1) with the current settings.

DPF> unbound_model bound                  # state of unbound ligand

DPF> ga_run 100

centering ligand on specified point: 0.576 -0.005 0.140
Furthest true ligand atom from "about" center is 10.016 Angstroms (maxrad).
Number of requested GA dockings = 100 runs
Unbound model to be used is 'same as bound' [AutoDock 4.2 default].

	BEGINNING GENETIC ALGORITHM DOCKING 1 of 100
Run: 1 Seed: 916197732 2068174479 [ Run 1 of 100 GA/GALS ]
Beginning LAMARCKIAN GENETIC ALGORITHM (LGA), with a maximum of 2500000 energy evaluations.

Final-Value: -13.039


	FINAL GENETIC ALGORITHM DOCKED STATE
	_______________________________________________


Detailed state:  trans 21.503 -8.173 -6.380 quatxyzw -0.665334 -0.637945 0.233976 -0.309212 center 0.576 -0.005 0.140 ntor 7 -108.5769 -107.3282 32.9558 145.1034 -24.4554 99.0963 115.0868
State:	 21.503  -8.173  -6.380  -0.700 -0.671  0.246 -143.977   -108.58 -107.33   32.96  145.10  -24.46   99.10  115.09

DOCKED: MODEL        1
DOCKED: USER    Run = 1
DOCKED: USER    DPF = ligand_dock.biased.dpf
DOCKED: USER  
DOCKED: USER    Estimated Free Energy of Binding    =   -9.03 kcal/mol  [=(1)+(2)+(3)-(4)]
DOCKED: USER    Estimated Inhibition Constant, Ki   =  242.29 nM (nanomolar)  [Temperature = 298.15 K]
DOCKED: USER    
DOCKED: USER    (1) Final Intermolecular Energy     =  -11.11 kcal/mol
DOCKED: USER        vdW + Hbond + desolv Energy     =  -11.11 kcal/mol
DOCKED: USER        Electrostatic Energy            =   +0.00 kcal/mol
DOCKED: USER    (2) Final Total Internal Energy     =   -1.93 kcal/mol
DOCKED: USER    (3) Torsional Free Energy           =   +2.09 kcal/mol
DOCKED: USER    (4) Unbound System's Energy  [=(2)] =   -1.93 kcal/mol
DOCKED: USER    
DOCKED: USER    
DOCKED: USER    NEWDPF move ligand.pdbqt
DOCKED: USER    NEWDPF about 0.576000 -0.005000 0.140000
DOCKED: USER    NEWDPF tran0 21.502949 -8.173068 -6.379750
DOCKED: USER    NEWDPF quaternion0 -0.665334 -0.637945 0.233976 -0.309212
DOCKED: USER    NEWDPF axisangle0 -0.699621 -0.670819 0.246034 -143.976524
DOCKED: USER    NEWDPF quat0 -0.699621 -0.670819 0.246034 -143.976524
DOCKED: USER    NEWDPF dihe0 -108.58 -107.33 32.96 145.10 -24.46 99.10 115.09 
DOCKED: USER  keepresnum = 1 
DOCKED: USER  
DOCKED: REMARK  Name = 
DOCKED: REMARK  8 active torsions:
DOCKED: REMARK  status: ('A' for Active; 'I' for Inactive)
DOCKED: REMARK    1  A    between atoms: C_2  and  C_3
DOCKED: REMARK    2  A    between atoms: C_4  and  C_5
DOCKED: REMARK    3  A    between atoms: C_8  and  C_9
DOCKED: REMARK    4  A    between atoms: C_9  and  N_10
DOCKED: REMARK    5  A    between atoms: N_10  and  C_11
DOCKED: REMARK    6  A    between atoms: C_11  and  C_12
DOCKED: REMARK    7  A    between atoms: C_12  and  C_13
DOCKED: REMARK    8  A    between atoms: C_14  and  C_22
DOCKED: REMARK                            x       y       z     vdW  Elec       q    Type
DOCKED: REMARK                         _______ _______ _______ _____ _____    ______ ____
DOCKED: USER                              x       y       z     vdW  Elec       q    Type
DOCKED: USER                           _______ _______ _______ _____ _____    ______ ____
DOCKED: ROOT
DOCKED: ATOM      1  N   UNL     1      21.318  -8.842  -6.739 -0.15 -0.00    +0.000 N 
DOCKED: ATOM      2  H   UNL     1      21.443  -8.305  -7.596 +0.00 -0.00    +0.000 HD
DOCKED: ATOM      3  H   UNL     1      20.359  -8.778  -6.394 +0.01 -0.00    +0.000 HD
DOCKED: ENDROOT
DOCKED: BRANCH   1   4
DOCKED: ATOM      4  C   UNL     1      22.202  -8.293  -5.704 -0.22 -0.00    +0.000 C 
DOCKED: BRANCH   4   8
DOCKED: ATOM      5  C   UNL     1      20.754  -9.582  -1.837 -0.50 -0.00    +0.000 A 
DOCKED: ATOM      6  C   UNL     1      20.676  -8.226  -2.216 -0.25 -0.00    +0.000 A 
DOCKED: ATOM      7  C   UNL     1      21.156  -7.811  -3.462 -0.34 -0.00    +0.000 A 
DOCKED: ATOM      8  C   UNL     1      21.724  -8.737  -4.349 -0.27 -0.00    +0.000 A 
DOCKED: ATOM      9  C   UNL     1      21.773 -10.092  -3.989 -0.35 -0.00    +0.000 A 
DOCKED: ATOM     10  C   UNL     1      21.293 -10.508  -2.746 -0.48 -0.00    +0.000 A 
DOCKED: BRANCH   5  12
DOCKED: ATOM     11  C   UNL     1      20.967 -10.853   0.296 -0.70 -0.00    +0.000 C 
DOCKED: ATOM     12  C   UNL     1      20.249 -10.079  -0.533 -0.58 -0.00    +0.000 C 
DOCKED: BRANCH  11  14
DOCKED: ATOM     13  O   UNL     1      19.822 -12.434   1.613 -1.70 -0.00    +0.000 OA
DOCKED: ATOM     14  C   UNL     1      20.458 -11.346   1.592 -0.75 -0.00    +0.000 C 
DOCKED: ATOM     15  N   UNL     1      20.639 -10.620   2.814 -0.63 -0.00    +0.000 N 
DOCKED: ATOM     16  O   UNL     1      20.247 -11.163   3.990 -1.18 -0.00    +0.000 OA
DOCKED: ATOM     17  H   UNL     1      21.049  -9.725   2.797 -0.60 -0.00    +0.000 HD
DOCKED: ENDBRANCH  11  14
DOCKED: ENDBRANCH   5  12
DOCKED: ENDBRANCH   4   8
DOCKED: ENDBRANCH   1   4
DOCKED: BRANCH   1  18
DOCKED: ATOM     18  C   UNL     1      21.600 -10.257  -7.021 -0.31 -0.00    +0.000 C 
DOCKED: BRANCH  18  19
DOCKED: ATOM     19  C   UNL     1      20.558 -10.890  -7.959 -0.20 -0.00    +0.000 C 
DOCKED: BRANCH  19  20
DOCKED: ATOM     20  C   UNL     1      19.181 -10.394  -7.622 -0.25 -0.00    +0.000 A 
DOCKED: ATOM     21  C   UNL     1      18.278  -9.755  -8.473 -0.16 -0.00    +0.000 A 
DOCKED: ATOM     22  N   UNL     1      17.161  -9.391  -7.800 -0.10 -0.00    +0.000 N 
DOCKED: ATOM     23  C   UNL     1      17.358  -9.774  -6.527 -0.15 -0.00    +0.000 A 
DOCKED: ATOM     24  C   UNL     1      18.580 -10.383  -6.377 -0.27 -0.00    +0.000 A 
DOCKED: ATOM     25  C   UNL     1      19.021 -10.846  -5.137 -0.35 -0.00    +0.000 A 
DOCKED: ATOM     26  C   UNL     1      18.167 -10.680  -4.032 -0.15 -0.00    +0.000 A 
DOCKED: ATOM     27  C   UNL     1      16.907 -10.059  -4.188 -0.22 -0.00    +0.000 A 
DOCKED: ATOM     28  C   UNL     1      16.492  -9.595  -5.449 -0.15 -0.00    +0.000 A 
DOCKED: ATOM     29  C   UNL     1      18.483  -9.506  -9.934 -0.12 -0.00    +0.000 C 
DOCKED: ATOM     30  H   UNL     1      16.368  -8.938  -8.168 +0.00 -0.00    +0.000 HD
DOCKED: ENDBRANCH  19  20
DOCKED: ENDBRANCH  18  19
DOCKED: ENDBRANCH   1  18
DOCKED: TORSDOF 7
DOCKED: TER
DOCKED: ENDMDL
________________________________________________________________________________


	BEGINNING GENETIC ALGORITHM DOCKING 2 of 100
Run: 2 Seed: 1932819939 1630596448 [ Run 2 of 100 GA/GALS ]
Beginning LAMARCKIAN GENETIC ALGORITHM (LGA), with a maximum of 2500000 energy evaluations.

Final-Value: -13.833


	FINAL GENETIC ALGORITHM DOCKED STATE
	_______________________________________________


Detailed state:  trans 21.914 -8.031 -5.153 quatxyzw 0.648916 -0.357284 0.670095 -0.047203 center 0.576 -0.005 0.140 ntor 7 163.6099 45.9837 -180.0000 -150.2397 178.9231 -175.5726 -11.4672
State:	 21.914  -8.031  -5.153   0.650 -0.358  0.671 -174.589    163.61   45.98 -180.00 -150.24  178.92 -175.57  -11.47

DOCKED: MODEL        2
DOCKED: USER    Run = 2
DOCKED: USER    DPF = ligand_dock.biased.dpf
DOCKED: USER  
DOCKED: USER    Estimated Free Energy of Binding    =   -9.83 kcal/mol  [=(1)+(2)+(3)-(4)]
DOCKED: USER    Estimated Inhibition Constant, Ki   =   61.79 nM (nanomolar)  [Temperature = 298.15 K]
DOCKED: USER    
DOCKED: USER    (1) Final Intermolecular Energy     =  -11.92 kcal/mol
DOCKED: USER        vdW + Hbond + desolv Energy     =  -11.92 kcal/mol
DOCKED: USER        Electrostatic Energy            =   +0.00 kcal/mol
DOCKED: USER    (2) Final Total Internal Energy     =   -1.91 kcal/mol
DOCKED: USER    (3) Torsional Free Energy           =   +2.09 kcal/mol
DOCKED: USER    (4) Unbound System's Energy  [=(2)] =   -1.91 kcal/mol
DOCKED: USER    
DOCKED: USER    
DOCKED: USER    NEWDPF move ligand.pdbqt
DOCKED: USER    NEWDPF about 0.576000 -0.005000 0.140000
DOCKED: USER    NEWDPF tran0 21.913675 -8.031283 -5.152653
DOCKED: USER    NEWDPF quaternion0 0.648916 -0.357284 0.670095 -0.047203
DOCKED: USER    NEWDPF axisangle0 0.649640 -0.357683 0.670843 -174.588966
DOCKED: USER    NEWDPF quat0 0.649640 -0.357683 0.670843 -174.588966
DOCKED: USER    NEWDPF dihe0 163.61 45.98 -180.00 -150.24 178.92 -175.57 -11.47 
DOCKED: USER  keepresnum = 1 
DOCKED: USER  
DOCKED: REMARK  Name = 
DOCKED: REMARK  8 active torsions:
DOCKED: REMARK  status: ('A' for Active; 'I' for Inactive)
DOCKED: REMARK    1  A    between atoms: C_2  and  C_3
DOCKED: REMARK    2  A    between atoms: C_4  and  C_5
DOCKED: REMARK    3  A    between atoms: C_8  and  C_9
DOCKED: REMARK    4  A    between atoms: C_9  and  N_10
DOCKED: REMARK    5  A    between atoms: N_10  and  C_11
DOCKED: REMARK    6  A    between atoms: C_11  and  C_12
DOCKED: REMARK    7  A    between atoms: C_12  and  C_13
DOCKED: REMARK    8  A    between atoms: C_14  and  C_22
DOCKED: REMARK                            x       y       z     vdW  Elec       q    Type
DOCKED: REMARK                         _______ _______ _______ _____ _____    ______ ____
DOCKED: USER                              x       y       z     vdW  Elec       q    Type
DOCKED: USER                           _______ _______ _______ _____ _____    ______ ____
DOCKED: ROOT
DOCKED: ATOM      1  N   UNL     1      22.214  -8.002  -5.874 -0.21 -0.00    +0.000 N 
DOCKED: ATOM      2  H   UNL     1      22.251  -9.018  -5.795 -0.01 -0.00    +0.000 HD
DOCKED: ATOM      3  H   UNL     1      23.066  -7.569  -5.516 -0.02 -0.00    +0.000 HD
DOCKED: ENDROOT
DOCKED: BRANCH   1   4
DOCKED: ATOM      4  C   UNL     1      21.090  -7.507  -5.070 -0.22 -0.00    +0.000 C 
DOCKED: BRANCH   4   8
DOCKED: ATOM      5  C   UNL     1      20.580  -9.931  -1.525 -0.52 -0.00    +0.000 A 
DOCKED: ATOM      6  C   UNL     1      21.389  -8.778  -1.494 -0.48 -0.00    +0.000 A 
DOCKED: ATOM      7  C   UNL     1      21.561  -8.003  -2.645 -0.34 -0.00    +0.000 A 
DOCKED: ATOM      8  C   UNL     1      20.934  -8.365  -3.845 -0.33 -0.00    +0.000 A 
DOCKED: ATOM      9  C   UNL     1      20.101  -9.493  -3.871 -0.32 -0.00    +0.000 A 
DOCKED: ATOM     10  C   UNL     1      19.926 -10.268  -2.722 -0.41 -0.00    +0.000 A 
DOCKED: BRANCH   5  12
DOCKED: ATOM     11  C   UNL     1      20.487 -10.345   0.932 -0.64 -0.00    +0.000 C 
DOCKED: ATOM     12  C   UNL     1      20.353 -10.783  -0.330 -0.62 -0.00    +0.000 C 
DOCKED: BRANCH  11  14
DOCKED: ATOM     13  O   UNL     1      19.931 -12.400   1.937 -1.81 -0.00    +0.000 OA
DOCKED: ATOM     14  C   UNL     1      20.262 -11.198   2.116 -0.76 -0.00    +0.000 C 
DOCKED: ATOM     15  N   UNL     1      20.380 -10.698   3.455 -0.69 -0.00    +0.000 N 
DOCKED: ATOM     16  O   UNL     1      20.267 -11.543   4.506 -0.92 -0.00    +0.000 OA
DOCKED: ATOM     17  H   UNL     1      20.543  -9.740   3.608 -0.53 -0.00    +0.000 HD
DOCKED: ENDBRANCH  11  14
DOCKED: ENDBRANCH   5  12
DOCKED: ENDBRANCH   4   8
DOCKED: ENDBRANCH   1   4
DOCKED: BRANCH   1  18
DOCKED: ATOM     18  C   UNL     1      22.089  -7.642  -7.294 -0.11 -0.00    +0.000 C 
DOCKED: BRANCH  18  19
DOCKED: ATOM     19  C   UNL     1      21.616  -8.819  -8.161 -0.12 -0.00    +0.000 C 
DOCKED: BRANCH  19  20
DOCKED: ATOM     20  C   UNL     1      20.836  -9.799  -7.334 -0.20 -0.00    +0.000 A 
DOCKED: ATOM     21  C   UNL     1      21.331 -10.895  -6.625 -0.32 -0.00    +0.000 A 
DOCKED: ATOM     22  N   UNL     1      20.320 -11.591  -6.052 -0.18 -0.00    +0.000 N 
DOCKED: ATOM     23  C   UNL     1      19.189 -10.958  -6.409 -0.32 -0.00    +0.000 A 
DOCKED: ATOM     24  C   UNL     1      19.462  -9.866  -7.195 -0.20 -0.00    +0.000 A 
DOCKED: ATOM     25  C   UNL     1      18.444  -9.061  -7.709 -0.10 -0.00    +0.000 A 
DOCKED: ATOM     26  C   UNL     1      17.116  -9.397  -7.390 -0.11 -0.00    +0.000 A 
DOCKED: ATOM     27  C   UNL     1      16.837 -10.517  -6.576 -0.23 -0.00    +0.000 A 
DOCKED: ATOM     28  C   UNL     1      17.883 -11.314  -6.077 -0.33 -0.00    +0.000 A 
DOCKED: ATOM     29  C   UNL     1      22.773 -11.267  -6.489 -0.43 -0.00    +0.000 C 
DOCKED: ATOM     30  H   UNL     1      20.398 -12.396  -5.490 -0.47 -0.00    +0.000 HD
DOCKED: ENDBRANCH  19  20
DOCKED: ENDBRANCH  18  19
DOCKED: ENDBRANCH   1  18
DOCKED: TORSDOF 7
DOCKED: TER
DOCKED: ENDMDL
________________________________________________________________________________


	BEGINNING GENETIC ALGORITHM DOCKING 3 of 100
Run: 3 Seed: 234810326 913981955 [ Run 3 of 100 GA/GALS ]
Beginning LAMARCKIAN GENETIC ALGORITHM (LGA), with a maximum of 2500000 energy evaluations.

Final-Value: -13.767


	FINAL GENETIC ALGORITHM DOCKED STATE
	_______________________________________________


Detailed state:  trans 21.546 -10.841 -6.690 quatxyzw -0.211983 0.774972 -0.478150 -0.354759 center 0.576 -0.005 0.140 ntor 7 -92.0677 129.1242 -13.8605 106.2248 -43.0035 169.1914 109.8389
State:	 21.546 -10.841  -6.690  -0.227  0.829 -0.511 -138.443    -92.07  129.12  -13.86  106.22  -43.00  169.19  109.84

DOCKED: MODEL        3
DOCKED: USER    Run = 3
DOCKED: USER    DPF = ligand_dock.biased.dpf
DOCKED: USER  
DOCKED: USER    Estimated Free Energy of Binding    =  -10.74 kcal/mol  [=(1)+(2)+(3)-(4)]
DOCKED: USER    Estimated Inhibition Constant, Ki   =   13.36 nM (nanomolar)  [Temperature = 298.15 K]
DOCKED: USER    
DOCKED: USER    (1) Final Intermolecular Energy     =  -12.83 kcal/mol
DOCKED: USER        vdW + Hbond + desolv Energy     =  -12.83 kcal/mol
DOCKED: USER        Electrostatic Energy            =   +0.00 kcal/mol
DOCKED: USER    (2) Final Total Internal Energy     =   -0.94 kcal/mol
DOCKED: USER    (3) Torsional Free Energy           =   +2.09 kcal/mol
DOCKED: USER    (4) Unbound System's Energy  [=(2)] =   -0.94 kcal/mol
DOCKED: USER    
DOCKED: USER    
DOCKED: USER    NEWDPF move ligand.pdbqt
DOCKED: USER    NEWDPF about 0.576000 -0.005000 0.140000
DOCKED: USER    NEWDPF tran0 21.546337 -10.840873 -6.690184
DOCKED: USER    NEWDPF quaternion0 -0.211983 0.774972 -0.478150 -0.354759
DOCKED: USER    NEWDPF axisangle0 -0.226730 0.828885 -0.511414 -138.442609
DOCKED: USER    NEWDPF quat0 -0.226730 0.828885 -0.511414 -138.442609
DOCKED: USER    NEWDPF dihe0 -92.07 129.12 -13.86 106.22 -43.00 169.19 109.84 
DOCKED: USER  keepresnum = 1 
DOCKED: USER  
DOCKED: REMARK  Name = 
DOCKED: REMARK  8 active torsions:
DOCKED: REMARK  status: ('A' for Active; 'I' for Inactive)
DOCKED: REMARK    1  A    between atoms: C_2  and  C_3
DOCKED: REMARK    2  A    between atoms: C_4  and  C_5
DOCKED: REMARK    3  A    between atoms: C_8  and  C_9
DOCKED: REMARK    4  A    between atoms: C_9  and  N_10
DOCKED: REMARK    5  A    between atoms: N_10  and  C_11
DOCKED: REMARK    6  A    between atoms: C_11  and  C_12
DOCKED: REMARK    7  A    between atoms: C_12  and  C_13
DOCKED: REMARK    8  A    between atoms: C_14  and  C_22
DOCKED: REMARK                            x       y       z     vdW  Elec       q    Type
DOCKED: REMARK                         _______ _______ _______ _____ _____    ______ ____
DOCKED: USER                              x       y       z     vdW  Elec       q    Type
DOCKED: USER                           _______ _______ _______ _____ _____    ______ ____
DOCKED: ROOT
DOCKED: ATOM      1  N   UNL     1      22.245 -10.493  -6.641 -0.34 -0.00    +0.000 N 
DOCKED: ATOM      2  H   UNL     1      22.372 -10.829  -7.595 -0.02 -0.00    +0.000 HD
DOCKED: ATOM      3  H   UNL     1      22.556 -11.184  -5.957 -0.03 -0.00    +0.000 HD
DOCKED: ENDROOT
DOCKED: BRANCH   1   4
DOCKED: ATOM      4  C   UNL     1      20.815 -10.251  -6.413 -0.32 -0.00    +0.000 C 
DOCKED: BRANCH   4   8
DOCKED: ATOM      5  C   UNL     1      20.021 -10.552  -2.171 -0.43 -0.00    +0.000 A 
DOCKED: ATOM      6  C   UNL     1      19.231 -11.259  -3.100 -0.27 -0.00    +0.000 A 
DOCKED: ATOM      7  C   UNL     1      19.483 -11.150  -4.472 -0.41 -0.00    +0.000 A 
DOCKED: ATOM      8  C   UNL     1      20.522 -10.334  -4.940 -0.36 -0.00    +0.000 A 
DOCKED: ATOM      9  C   UNL     1      21.332  -9.656  -4.017 -0.39 -0.00    +0.000 A 
DOCKED: ATOM     10  C   UNL     1      21.083  -9.764  -2.647 -0.48 -0.00    +0.000 A 
DOCKED: BRANCH   5  12
DOCKED: ATOM     11  C   UNL     1      20.617 -11.313   0.126 -0.48 -0.00    +0.000 C 
DOCKED: ATOM     12  C   UNL     1      19.806 -10.641  -0.706 -0.55 -0.00    +0.000 C 
DOCKED: BRANCH  11  14
DOCKED: ATOM     13  O   UNL     1      19.949 -12.477   2.061 -1.76 -0.00    +0.000 OA
DOCKED: ATOM     14  C   UNL     1      20.396 -11.400   1.584 -0.76 -0.00    +0.000 C 
DOCKED: ATOM     15  N   UNL     1      20.647 -10.297   2.465 -0.34 -0.00    +0.000 N 
DOCKED: ATOM     16  O   UNL     1      20.529 -10.458   3.803 -1.02 -0.00    +0.000 OA
DOCKED: ATOM     17  H   UNL     1      20.904  -9.422   2.095 -0.55 -0.00    +0.000 HD
DOCKED: ENDBRANCH  11  14
DOCKED: ENDBRANCH   5  12
DOCKED: ENDBRANCH   4   8
DOCKED: ENDBRANCH   1   4
DOCKED: BRANCH   1  18
DOCKED: ATOM     18  C   UNL     1      23.055  -9.280  -6.455 -0.22 -0.00    +0.000 C 
DOCKED: BRANCH  18  19
DOCKED: ATOM     19  C   UNL     1      23.781  -8.853  -7.741 -0.21 -0.00    +0.000 C 
DOCKED: BRANCH  19  20
DOCKED: ATOM     20  C   UNL     1      24.993  -9.709  -7.967 -0.27 -0.00    +0.000 A 
DOCKED: ATOM     21  C   UNL     1      25.028 -11.019  -8.448 -0.34 -0.00    +0.000 A 
DOCKED: ATOM     22  N   UNL     1      26.297 -11.493  -8.454 -0.39 -0.00    +0.000 N 
DOCKED: ATOM     23  C   UNL     1      27.061 -10.503  -7.962 -0.37 -0.00    +0.000 A 
DOCKED: ATOM     24  C   UNL     1      26.302  -9.403  -7.647 -0.32 -0.00    +0.000 A 
DOCKED: ATOM     25  C   UNL     1      26.871  -8.254  -7.096 -0.29 -0.00    +0.000 A 
DOCKED: ATOM     26  C   UNL     1      28.260  -8.248  -6.877 -0.33 -0.00    +0.000 A 
DOCKED: ATOM     27  C   UNL     1      29.041  -9.378  -7.206 -0.41 -0.00    +0.000 A 
DOCKED: ATOM     28  C   UNL     1      28.440 -10.526  -7.754 -0.43 -0.00    +0.000 A 
DOCKED: ATOM     29  C   UNL     1      23.847 -11.810  -8.912 -0.38 -0.00    +0.000 C 
DOCKED: ATOM     30  H   UNL     1      26.598 -12.381  -8.757 -0.37 -0.00    +0.000 HD
DOCKED: ENDBRANCH  19  20
DOCKED: ENDBRANCH  18  19
DOCKED: ENDBRANCH   1  18
DOCKED: TORSDOF 7
DOCKED: TER
DOCKED: ENDMDL
________________________________________________________________________________


	BEGINNING GENETIC ALGORITHM DOCKING 4 of 100
Run: 4 Seed: 1645384160 2072461649 [ Run 4 of 100 GA/GALS ]
Beginning LAMARCKIAN GENETIC ALGORITHM (LGA), with a maximum of 2500000 energy evaluations.

Final-Value: -12.792


	FINAL GENETIC ALGORITHM DOCKED STATE
	_______________________________________________


Detailed state:  trans 20.536 -8.902 -1.552 quatxyzw 0.439837 0.046514 -0.888339 0.123420 center 0.576 -0.005 0.140 ntor 7 84.2090 179.5360 174.9221 130.1962 -11.7803 165.4238 -49.1256
State:	 20.536  -8.902  -1.552   0.443  0.047 -0.895 165.821     84.21  179.54  174.92  130.20  -11.78  165.42  -49.13

DOCKED: MODEL        4
DOCKED: USER    Run = 4
DOCKED: USER    DPF = ligand_dock.biased.dpf
DOCKED: USER  
DOCKED: USER    Estimated Free Energy of Binding    =   -8.88 kcal/mol  [=(1)+(2)+(3)-(4)]
DOCKED: USER    Estimated Inhibition Constant, Ki   =  310.50 nM (nanomolar)  [Temperature = 298.15 K]
DOCKED: USER    
DOCKED: USER    (1) Final Intermolecular Energy     =  -10.97 kcal/mol
DOCKED: USER        vdW + Hbond + desolv Energy     =  -10.97 kcal/mol
DOCKED: USER        Electrostatic Energy            =   +0.00 kcal/mol
DOCKED: USER    (2) Final Total Internal Energy     =   -1.83 kcal/mol
DOCKED: USER    (3) Torsional Free Energy           =   +2.09 kcal/mol
DOCKED: USER    (4) Unbound System's Energy  [=(2)] =   -1.83 kcal/mol
DOCKED: USER    
DOCKED: USER    
DOCKED: USER    NEWDPF move ligand.pdbqt
DOCKED: USER    NEWDPF about 0.576000 -0.005000 0.140000
DOCKED: USER    NEWDPF tran0 20.536367 -8.902170 -1.552431
DOCKED: USER    NEWDPF quaternion0 0.439837 0.046514 -0.888339 0.123420
DOCKED: USER    NEWDPF axisangle0 0.443226 0.046872 -0.895184 165.820911
DOCKED: USER    NEWDPF quat0 0.443226 0.046872 -0.895184 165.820911
DOCKED: USER    NEWDPF dihe0 84.21 179.54 174.92 130.20 -11.78 165.42 -49.13 
DOCKED: USER  keepresnum = 1 
DOCKED: USER  
DOCKED: REMARK  Name = 
DOCKED: REMARK  8 active torsions:
DOCKED: REMARK  status: ('A' for Active; 'I' for Inactive)
DOCKED: REMARK    1  A    between atoms: C_2  and  C_3
DOCKED: REMARK    2  A    between atoms: C_4  and  C_5
DOCKED: REMARK    3  A    between atoms: C_8  and  C_9
DOCKED: REMARK    4  A    between atoms: C_9  and  N_10
DOCKED: REMARK    5  A    between atoms: N_10  and  C_11
DOCKED: REMARK    6  A    between atoms: C_11  and  C_12
DOCKED: REMARK    7  A    between atoms: C_12  and  C_13
DOCKED: REMARK    8  A    between atoms: C_14  and  C_22
DOCKED: REMARK                            x       y       z     vdW  Elec       q    Type
DOCKED: REMARK                         _______ _______ _______ _____ _____    ______ ____
DOCKED: USER                              x       y       z     vdW  Elec       q    Type
DOCKED: USER                           _______ _______ _______ _____ _____    ______ ____
DOCKED: ROOT
DOCKED: ATOM      1  N   UNL     1      20.685  -9.196  -0.843 -0.53 -0.00    +0.000 N 
DOCKED: ATOM      2  H   UNL     1      19.832  -9.734  -0.992 -0.02 -0.00    +0.000 HD
DOCKED: ATOM      3  H   UNL     1      20.487  -8.292  -0.413 -0.04 -0.00    +0.000 HD
DOCKED: ENDROOT
DOCKED: BRANCH   1   4
DOCKED: ATOM      4  C   UNL     1      21.317  -8.942  -2.144 -0.52 -0.00    +0.000 C 
DOCKED: BRANCH   4   8
DOCKED: ATOM      5  C   UNL     1      18.999 -10.941  -5.200 -0.36 -0.00    +0.000 A 
DOCKED: ATOM      6  C   UNL     1      20.173 -11.532  -4.690 -0.46 -0.00    +0.000 A 
DOCKED: ATOM      7  C   UNL     1      20.926 -10.877  -3.711 -0.44 -0.00    +0.000 A 
DOCKED: ATOM      8  C   UNL     1      20.526  -9.624  -3.226 -0.41 -0.00    +0.000 A 
DOCKED: ATOM      9  C   UNL     1      19.340  -9.049  -3.707 -0.21 -0.00    +0.000 A 
DOCKED: ATOM     10  C   UNL     1      18.586  -9.702  -4.684 -0.23 -0.00    +0.000 A 
DOCKED: BRANCH   5  12
DOCKED: ATOM     11  C   UNL     1      16.856 -11.320  -6.415 -0.35 -0.00    +0.000 C 
DOCKED: ATOM     12  C   UNL     1      18.156 -11.597  -6.231 -0.32 -0.00    +0.000 C 
DOCKED: BRANCH  11  14
DOCKED: ATOM     13  O   UNL     1      16.114 -11.583  -8.634 -0.27 -0.00    +0.000 OA
DOCKED: ATOM     14  C   UNL     1      16.021 -11.977  -7.441 -0.38 -0.00    +0.000 C 
DOCKED: ATOM     15  N   UNL     1      15.096 -13.024  -7.122 -0.34 -0.00    +0.000 N 
DOCKED: ATOM     16  O   UNL     1      14.431 -13.666  -8.110 -0.46 +0.00    +0.000 OA
DOCKED: ATOM     17  H   UNL     1      14.944 -13.276  -6.182 -0.03 -0.00    +0.000 HD
DOCKED: ENDBRANCH  11  14
DOCKED: ENDBRANCH   5  12
DOCKED: ENDBRANCH   4   8
DOCKED: ENDBRANCH   1   4
DOCKED: BRANCH   1  18
DOCKED: ATOM     18  C   UNL     1      21.563  -9.944   0.068 -0.60 -0.00    +0.000 C 
DOCKED: BRANCH  18  19
DOCKED: ATOM     19  C   UNL     1      20.937 -11.269   0.534 -0.64 -0.00    +0.000 C 
DOCKED: BRANCH  19  20
DOCKED: ATOM     20  C   UNL     1      19.583 -11.025   1.134 -0.57 -0.00    +0.000 A 
DOCKED: ATOM     21  C   UNL     1      19.273 -10.845   2.484 -0.59 -0.00    +0.000 A 
DOCKED: ATOM     22  N   UNL     1      17.936 -10.718   2.655 -0.49 +0.00    +0.000 N 
DOCKED: ATOM     23  C   UNL     1      17.395 -10.838   1.430 -0.39 +0.00    +0.000 A 
DOCKED: ATOM     24  C   UNL     1      18.366 -11.033   0.479 -0.42 -0.00    +0.000 A 
DOCKED: ATOM     25  C   UNL     1      18.046 -11.209  -0.868 -0.37 -0.00    +0.000 A 
DOCKED: ATOM     26  C   UNL     1      16.688 -11.173  -1.232 -0.23 -0.00    +0.000 A 
DOCKED: ATOM     27  C   UNL     1      15.691 -10.967  -0.253 -0.29 +0.00    +0.000 A 
DOCKED: ATOM     28  C   UNL     1      16.042 -10.799   1.099 -0.32 +0.00    +0.000 A 
DOCKED: ATOM     29  C   UNL     1      20.261 -10.782   3.604 -0.67 -0.00    +0.000 C 
DOCKED: ATOM     30  H   UNL     1      17.458 -10.570   3.503 -0.02 +0.00    +0.000 HD
DOCKED: ENDBRANCH  19  20
DOCKED: ENDBRANCH  18  19
DOCKED: ENDBRANCH   1  18
DOCKED: TORSDOF 7
DOCKED: TER
DOCKED: ENDMDL
________________________________________________________________________________


	BEGINNING GENETIC ALGORITHM DOCKING 5 of 100
Run: 5 Seed: 2077854326 409297911 [ Run 5 of 100 GA/GALS ]
Beginning LAMARCKIAN GENETIC ALGORITHM (LGA), with a maximum of 2500000 energy evaluations.

Final-Value: -13.181


	FINAL GENETIC ALGORITHM DOCKED STATE
	_______________________________________________


Detailed state:  trans 21.206 -7.570 -6.039 quatxyzw -0.951358 -0.111032 0.262876 -0.116128 center 0.576 -0.005 0.140 ntor 7 142.1290 25.0382 -165.7787 168.7189 -7.5474 -169.9382 -165.6604
State:	 21.206  -7.570  -6.039  -0.958 -0.112  0.265 -166.663    142.13   25.04 -165.78  168.72   -7.55 -169.94 -165.66

DOCKED: MODEL        5
DOCKED: USER    Run = 5
DOCKED: USER    DPF = ligand_dock.biased.dpf
DOCKED: USER  
DOCKED: USER    Estimated Free Energy of Binding    =   -9.87 kcal/mol  [=(1)+(2)+(3)-(4)]
DOCKED: USER    Estimated Inhibition Constant, Ki   =   58.69 nM (nanomolar)  [Temperature = 298.15 K]
DOCKED: USER    
DOCKED: USER    (1) Final Intermolecular Energy     =  -11.95 kcal/mol
DOCKED: USER        vdW + Hbond + desolv Energy     =  -11.95 kcal/mol
DOCKED: USER        Electrostatic Energy            =   +0.00 kcal/mol
DOCKED: USER    (2) Final Total Internal Energy     =   -1.23 kcal/mol
DOCKED: USER    (3) Torsional Free Energy           =   +2.09 kcal/mol
DOCKED: USER    (4) Unbound System's Energy  [=(2)] =   -1.23 kcal/mol
DOCKED: USER    
DOCKED: USER    
DOCKED: USER    NEWDPF move ligand.pdbqt
DOCKED: USER    NEWDPF about 0.576000 -0.005000 0.140000
DOCKED: USER    NEWDPF tran0 21.206352 -7.569780 -6.039327
DOCKED: USER    NEWDPF quaternion0 -0.951358 -0.111032 0.262876 -0.116128
DOCKED: USER    NEWDPF axisangle0 -0.957839 -0.111788 0.264667 -166.662675
DOCKED: USER    NEWDPF quat0 -0.957839 -0.111788 0.264667 -166.662675
DOCKED: USER    NEWDPF dihe0 142.13 25.04 -165.78 168.72 -7.55 -169.94 -165.66 
DOCKED: USER  keepresnum = 1 
DOCKED: USER  
DOCKED: REMARK  Name = 
DOCKED: REMARK  8 active torsions:
DOCKED: REMARK  status: ('A' for Active; 'I' for Inactive)
DOCKED: REMARK    1  A    between atoms: C_2  and  C_3
DOCKED: REMARK    2  A    between atoms: C_4  and  C_5
DOCKED: REMARK    3  A    between atoms: C_8  and  C_9
DOCKED: REMARK    4  A    between atoms: C_9  and  N_10
DOCKED: REMARK    5  A    between atoms: N_10  and  C_11
DOCKED: REMARK    6  A    between atoms: C_11  and  C_12
DOCKED: REMARK    7  A    between atoms: C_12  and  C_13
DOCKED: REMARK    8  A    between atoms: C_14  and  C_22
DOCKED: REMARK                            x       y       z     vdW  Elec       q    Type
DOCKED: REMARK                         _______ _______ _______ _____ _____    ______ ____
DOCKED: USER                              x       y       z     vdW  Elec       q    Type
DOCKED: USER                           _______ _______ _______ _____ _____    ______ ____
DOCKED: ROOT
DOCKED: ATOM      1  N   UNL     1      20.470  -7.828  -5.992 -0.11 -0.00    +0.000 N 
DOCKED: ATOM      2  H   UNL     1      20.669  -8.270  -6.889 +0.00 -0.00    +0.000 HD
DOCKED: ATOM      3  H   UNL     1      20.115  -6.879  -6.114 +0.00 -0.00    +0.000 HD
DOCKED: ENDROOT
DOCKED: BRANCH   1   4
DOCKED: ATOM      4  C   UNL     1      21.716  -7.743  -5.220 -0.24 -0.00    +0.000 C 
DOCKED: BRANCH   4   8
DOCKED: ATOM      5  C   UNL     1      21.202  -9.974  -1.550 -0.56 -0.00    +0.000 A 
DOCKED: ATOM      6  C   UNL     1      20.971  -8.584  -1.582 -0.43 -0.00    +0.000 A 
DOCKED: ATOM      7  C   UNL     1      21.149  -7.864  -2.768 -0.39 -0.00    +0.000 A 
DOCKED: ATOM      8  C   UNL     1      21.564  -8.514  -3.939 -0.30 -0.00    +0.000 A 
DOCKED: ATOM      9  C   UNL     1      21.763  -9.902  -3.919 -0.34 -0.00    +0.000 A 
DOCKED: ATOM     10  C   UNL     1      21.584 -10.624  -2.736 -0.36 -0.00    +0.000 A 
DOCKED: BRANCH   5  12
DOCKED: ATOM     11  C   UNL     1      20.574 -10.289   0.841 -0.64 -0.00    +0.000 C 
DOCKED: ATOM     12  C   UNL     1      21.017 -10.788  -0.324 -0.65 -0.00    +0.000 C 
DOCKED: BRANCH  11  14
DOCKED: ATOM     13  O   UNL     1      20.267 -12.352   1.934 -1.84 -0.00    +0.000 OA
DOCKED: ATOM     14  C   UNL     1      20.393 -11.105   2.059 -0.73 -0.00    +0.000 C 
DOCKED: ATOM     15  N   UNL     1      20.328 -10.524   3.368 -0.70 -0.00    +0.000 N 
DOCKED: ATOM     16  O   UNL     1      20.267 -11.321   4.460 -0.94 -0.00    +0.000 OA
DOCKED: ATOM     17  H   UNL     1      20.328  -9.546   3.472 -0.57 -0.00    +0.000 HD
DOCKED: ENDBRANCH  11  14
DOCKED: ENDBRANCH   5  12
DOCKED: ENDBRANCH   4   8
DOCKED: ENDBRANCH   1   4
DOCKED: BRANCH   1  18
DOCKED: ATOM     18  C   UNL     1      19.435  -8.609  -5.299 -0.18 -0.00    +0.000 C 
DOCKED: BRANCH  18  19
DOCKED: ATOM     19  C   UNL     1      19.380 -10.070  -5.777 -0.28 -0.00    +0.000 C 
DOCKED: BRANCH  19  20
DOCKED: ATOM     20  C   UNL     1      20.123 -10.225  -7.073 -0.24 -0.00    +0.000 A 
DOCKED: ATOM     21  C   UNL     1      19.704  -9.828  -8.344 -0.18 -0.00    +0.000 A 
DOCKED: ATOM     22  N   UNL     1      20.609 -10.194  -9.282 -0.18 -0.00    +0.000 N 
DOCKED: ATOM     23  C   UNL     1      21.586 -10.838  -8.619 -0.23 -0.00    +0.000 A 
DOCKED: ATOM     24  C   UNL     1      21.322 -10.883  -7.273 -0.24 -0.00    +0.000 A 
DOCKED: ATOM     25  C   UNL     1      22.182 -11.522  -6.379 -0.37 -0.00    +0.000 A 
DOCKED: ATOM     26  C   UNL     1      23.345 -12.118  -6.898 -0.47 -0.00    +0.000 A 
DOCKED: ATOM     27  C   UNL     1      23.619 -12.067  -8.283 -0.42 -0.00    +0.000 A 
DOCKED: ATOM     28  C   UNL     1      22.730 -11.421  -9.162 -0.26 -0.00    +0.000 A 
DOCKED: ATOM     29  C   UNL     1      18.443  -9.087  -8.655 -0.12 -0.00    +0.000 C 
DOCKED: ATOM     30  H   UNL     1      20.561 -10.024 -10.251 -0.01 -0.00    +0.000 HD
DOCKED: ENDBRANCH  19  20
DOCKED: ENDBRANCH  18  19
DOCKED: ENDBRANCH   1  18
DOCKED: TORSDOF 7
DOCKED: TER
DOCKED: ENDMDL
________________________________________________________________________________


	BEGINNING GENETIC ALGORITHM DOCKING 6 of 100
Run: 6 Seed: 1262224802 1726908563 [ Run 6 of 100 GA/GALS ]
Beginning LAMARCKIAN GENETIC ALGORITHM (LGA), with a maximum of 2500000 energy evaluations.

Final-Value: -13.243


	FINAL GENETIC ALGORITHM DOCKED STATE
	_______________________________________________


Detailed state:  trans 23.010 -9.289 -6.087 quatxyzw -0.544773 0.209289 -0.732489 -0.350542 center 0.576 -0.005 0.140 ntor 7 161.4968 -142.8511 43.7538 125.0718 160.3212 -152.2541 43.8848
State:	 23.010  -9.289  -6.087  -0.582  0.223 -0.782 -138.959    161.50 -142.85   43.75  125.07  160.32 -152.25   43.88

DOCKED: MODEL        6
DOCKED: USER    Run = 6
DOCKED: USER    DPF = ligand_dock.biased.dpf
DOCKED: USER  
DOCKED: USER    Estimated Free Energy of Binding    =   -9.99 kcal/mol  [=(1)+(2)+(3)-(4)]
DOCKED: USER    Estimated Inhibition Constant, Ki   =   47.71 nM (nanomolar)  [Temperature = 298.15 K]
DOCKED: USER    
DOCKED: USER    (1) Final Intermolecular Energy     =  -12.08 kcal/mol
DOCKED: USER        vdW + Hbond + desolv Energy     =  -12.08 kcal/mol
DOCKED: USER        Electrostatic Energy            =   +0.00 kcal/mol
DOCKED: USER    (2) Final Total Internal Energy     =   -1.17 kcal/mol
DOCKED: USER    (3) Torsional Free Energy           =   +2.09 kcal/mol
DOCKED: USER    (4) Unbound System's Energy  [=(2)] =   -1.17 kcal/mol
DOCKED: USER    
DOCKED: USER    
DOCKED: USER    NEWDPF move ligand.pdbqt
DOCKED: USER    NEWDPF about 0.576000 -0.005000 0.140000
DOCKED: USER    NEWDPF tran0 23.009999 -9.289382 -6.087349
DOCKED: USER    NEWDPF quaternion0 -0.544773 0.209289 -0.732489 -0.350542
DOCKED: USER    NEWDPF axisangle0 -0.581683 0.223469 -0.782117 -138.959023
DOCKED: USER    NEWDPF quat0 -0.581683 0.223469 -0.782117 -138.959023
DOCKED: USER    NEWDPF dihe0 161.50 -142.85 43.75 125.07 160.32 -152.25 43.88 
DOCKED: USER  keepresnum = 1 
DOCKED: USER  
DOCKED: REMARK  Name = 
DOCKED: REMARK  8 active torsions:
DOCKED: REMARK  status: ('A' for Active; 'I' for Inactive)
DOCKED: REMARK    1  A    between atoms: C_2  and  C_3
DOCKED: REMARK    2  A    between atoms: C_4  and  C_5
DOCKED: REMARK    3  A    between atoms: C_8  and  C_9
DOCKED: REMARK    4  A    between atoms: C_9  and  N_10
DOCKED: REMARK    5  A    between atoms: N_10  and  C_11
DOCKED: REMARK    6  A    between atoms: C_11  and  C_12
DOCKED: REMARK    7  A    between atoms: C_12  and  C_13
DOCKED: REMARK    8  A    between atoms: C_14  and  C_22
DOCKED: REMARK                            x       y       z     vdW  Elec       q    Type
DOCKED: REMARK                         _______ _______ _______ _____ _____    ______ ____
DOCKED: USER                              x       y       z     vdW  Elec       q    Type
DOCKED: USER                           _______ _______ _______ _____ _____    ______ ____
DOCKED: ROOT
DOCKED: ATOM      1  N   UNL     1      23.448  -8.821  -6.535 -0.22 -0.00    +0.000 N 
DOCKED: ATOM      2  H   UNL     1      24.112  -9.595  -6.527 -0.03 -0.00    +0.000 HD
DOCKED: ATOM      3  H   UNL     1      23.601  -8.189  -5.749 -0.00 -0.00    +0.000 HD
DOCKED: ENDROOT
DOCKED: BRANCH   1   4
DOCKED: ATOM      4  C   UNL     1      22.089  -9.365  -6.414 -0.28 -0.00    +0.000 C 
DOCKED: BRANCH   4   8
DOCKED: ATOM      5  C   UNL     1      20.938  -9.639  -2.254 -0.50 -0.00    +0.000 A 
DOCKED: ATOM      6  C   UNL     1      21.007  -8.387  -2.897 -0.40 -0.00    +0.000 A 
DOCKED: ATOM      7  C   UNL     1      21.391  -8.301  -4.239 -0.30 -0.00    +0.000 A 
DOCKED: ATOM      8  C   UNL     1      21.715  -9.458  -4.961 -0.32 -0.00    +0.000 A 
DOCKED: ATOM      9  C   UNL     1      21.615 -10.709  -4.333 -0.45 -0.00    +0.000 A 
DOCKED: ATOM     10  C   UNL     1      21.230 -10.797  -2.994 -0.38 -0.00    +0.000 A 
DOCKED: BRANCH   5  12
DOCKED: ATOM     11  C   UNL     1      20.711 -10.910  -0.121 -0.65 -0.00    +0.000 C 
DOCKED: ATOM     12  C   UNL     1      20.524  -9.789  -0.836 -0.59 -0.00    +0.000 C 
DOCKED: BRANCH  11  14
DOCKED: ATOM     13  O   UNL     1      19.769 -10.065   1.864 -0.63 -0.00    +0.000 OA
DOCKED: ATOM     14  C   UNL     1      20.296 -11.054   1.289 -0.72 -0.00    +0.000 C 
DOCKED: ATOM     15  N   UNL     1      20.497 -12.265   2.028 -0.69 -0.00    +0.000 N 
DOCKED: ATOM     16  O   UNL     1      20.006 -12.383   3.283 -1.50 -0.00    +0.000 OA
DOCKED: ATOM     17  H   UNL     1      20.994 -13.012   1.621 -0.61 -0.00    +0.000 HD
DOCKED: ENDBRANCH  11  14
DOCKED: ENDBRANCH   5  12
DOCKED: ENDBRANCH   4   8
DOCKED: ENDBRANCH   1   4
DOCKED: BRANCH   1  18
DOCKED: ATOM     18  C   UNL     1      23.634  -8.051  -7.773 -0.15 -0.00    +0.000 C 
DOCKED: BRANCH  18  19
DOCKED: ATOM     19  C   UNL     1      23.861  -8.950  -8.999 -0.11 -0.00    +0.000 C 
DOCKED: BRANCH  19  20
DOCKED: ATOM     20  C   UNL     1      25.077  -9.808  -8.800 -0.20 -0.00    +0.000 A 
DOCKED: ATOM     21  C   UNL     1      25.201 -11.176  -9.053 -0.31 -0.00    +0.000 A 
DOCKED: ATOM     22  N   UNL     1      26.427 -11.621  -8.688 -0.37 -0.00    +0.000 N 
DOCKED: ATOM     23  C   UNL     1      27.072 -10.553  -8.187 -0.37 -0.00    +0.000 A 
DOCKED: ATOM     24  C   UNL     1      26.280  -9.432  -8.231 -0.26 -0.00    +0.000 A 
DOCKED: ATOM     25  C   UNL     1      26.723  -8.202  -7.744 -0.20 -0.00    +0.000 A 
DOCKED: ATOM     26  C   UNL     1      28.022  -8.137  -7.207 -0.27 -0.00    +0.000 A 
DOCKED: ATOM     27  C   UNL     1      28.838  -9.290  -7.167 -0.41 -0.00    +0.000 A 
DOCKED: ATOM     28  C   UNL     1      28.362 -10.518  -7.659 -0.42 -0.00    +0.000 A 
DOCKED: ATOM     29  C   UNL     1      24.149 -12.050  -9.656 -0.33 -0.00    +0.000 C 
DOCKED: ATOM     30  H   UNL     1      26.774 -12.538  -8.772 -0.39 -0.00    +0.000 HD
DOCKED: ENDBRANCH  19  20
DOCKED: ENDBRANCH  18  19
DOCKED: ENDBRANCH   1  18
DOCKED: TORSDOF 7
DOCKED: TER
DOCKED: ENDMDL
________________________________________________________________________________


	BEGINNING GENETIC ALGORITHM DOCKING 7 of 100
Run: 7 Seed: 476883086 704481253 [ Run 7 of 100 GA/GALS ]
Beginning LAMARCKIAN GENETIC ALGORITHM (LGA), with a maximum of 2500000 energy evaluations.

Final-Value: -14.069


	FINAL GENETIC ALGORITHM DOCKED STATE
	_______________________________________________


Detailed state:  trans 21.561 -11.241 -7.167 quatxyzw 0.049119 -0.744591 0.633997 -0.203024 center 0.576 -0.005 0.140 ntor 7 144.4452 -35.4595 -40.3545 -29.8673 -144.1088 -71.4316 52.7435
State:	 21.561 -11.241  -7.167   0.050 -0.760  0.647 -156.572    144.45  -35.46  -40.35  -29.87 -144.11  -71.43   52.74

DOCKED: MODEL        7
DOCKED: USER    Run = 7
DOCKED: USER    DPF = ligand_dock.biased.dpf
DOCKED: USER  
DOCKED: USER    Estimated Free Energy of Binding    =  -10.94 kcal/mol  [=(1)+(2)+(3)-(4)]
DOCKED: USER    Estimated Inhibition Constant, Ki   =    9.64 nM (nanomolar)  [Temperature = 298.15 K]
DOCKED: USER    
DOCKED: USER    (1) Final Intermolecular Energy     =  -13.02 kcal/mol
DOCKED: USER        vdW + Hbond + desolv Energy     =  -13.02 kcal/mol
DOCKED: USER        Electrostatic Energy            =   +0.00 kcal/mol
DOCKED: USER    (2) Final Total Internal Energy     =   -1.05 kcal/mol
DOCKED: USER    (3) Torsional Free Energy           =   +2.09 kcal/mol
DOCKED: USER    (4) Unbound System's Energy  [=(2)] =   -1.05 kcal/mol
DOCKED: USER    
DOCKED: USER    
DOCKED: USER    NEWDPF move ligand.pdbqt
DOCKED: USER    NEWDPF about 0.576000 -0.005000 0.140000
DOCKED: USER    NEWDPF tran0 21.561181 -11.240985 -7.167494
DOCKED: USER    NEWDPF quaternion0 0.049119 -0.744591 0.633997 -0.203024
DOCKED: USER    NEWDPF axisangle0 0.050164 -0.760428 0.647482 -156.572268
DOCKED: USER    NEWDPF quat0 0.050164 -0.760428 0.647482 -156.572268
DOCKED: USER    NEWDPF dihe0 144.45 -35.46 -40.35 -29.87 -144.11 -71.43 52.74 
DOCKED: USER  keepresnum = 1 
DOCKED: USER  
DOCKED: REMARK  Name = 
DOCKED: REMARK  8 active torsions:
DOCKED: REMARK  status: ('A' for Active; 'I' for Inactive)
DOCKED: REMARK    1  A    between atoms: C_2  and  C_3
DOCKED: REMARK    2  A    between atoms: C_4  and  C_5
DOCKED: REMARK    3  A    between atoms: C_8  and  C_9
DOCKED: REMARK    4  A    between atoms: C_9  and  N_10
DOCKED: REMARK    5  A    between atoms: N_10  and  C_11
DOCKED: REMARK    6  A    between atoms: C_11  and  C_12
DOCKED: REMARK    7  A    between atoms: C_12  and  C_13
DOCKED: REMARK    8  A    between atoms: C_14  and  C_22
DOCKED: REMARK                            x       y       z     vdW  Elec       q    Type
DOCKED: REMARK                         _______ _______ _______ _____ _____    ______ ____
DOCKED: USER                              x       y       z     vdW  Elec       q    Type
DOCKED: USER                           _______ _______ _______ _____ _____    ______ ____
DOCKED: ROOT
DOCKED: ATOM      1  N   UNL     1      22.095 -11.644  -7.573 -0.21 -0.00    +0.000 N 
DOCKED: ATOM      2  H   UNL     1      21.295 -11.974  -8.112 -0.50 -0.00    +0.000 HD
DOCKED: ATOM      3  H   UNL     1      22.275 -12.243  -6.767 -0.47 -0.00    +0.000 HD
DOCKED: ENDROOT
DOCKED: BRANCH   1   4
DOCKED: ATOM      4  C   UNL     1      21.801 -10.296  -7.070 -0.32 -0.00    +0.000 C 
DOCKED: BRANCH   4   8
DOCKED: ATOM      5  C   UNL     1      20.428 -10.490  -2.973 -0.45 -0.00    +0.000 A 
DOCKED: ATOM      6  C   UNL     1      21.471  -9.615  -3.339 -0.40 -0.00    +0.000 A 
DOCKED: ATOM      7  C   UNL     1      21.921  -9.564  -4.662 -0.23 -0.00    +0.000 A 
DOCKED: ATOM      8  C   UNL     1      21.342 -10.383  -5.641 -0.36 -0.00    +0.000 A 
DOCKED: ATOM      9  C   UNL     1      20.281 -11.230  -5.288 -0.44 -0.00    +0.000 A 
DOCKED: ATOM     10  C   UNL     1      19.829 -11.282  -3.967 -0.43 -0.00    +0.000 A 
DOCKED: BRANCH   5  12
DOCKED: ATOM     11  C   UNL     1      20.662 -10.884  -0.523 -0.60 -0.00    +0.000 C 
DOCKED: ATOM     12  C   UNL     1      19.904 -10.576  -1.587 -0.50 -0.00    +0.000 C 
DOCKED: BRANCH  11  14
DOCKED: ATOM     13  O   UNL     1      19.036 -10.411   1.112 -0.58 -0.00    +0.000 OA
DOCKED: ATOM     14  C   UNL     1      20.134 -10.971   0.853 -0.68 -0.00    +0.000 C 
DOCKED: ATOM     15  N   UNL     1      20.840 -11.643   1.904 -0.71 -0.00    +0.000 N 
DOCKED: ATOM     16  O   UNL     1      20.267 -11.785   3.122 -1.62 -0.00    +0.000 OA
DOCKED: ATOM     17  H   UNL     1      21.741 -12.001   1.740 -0.50 -0.00    +0.000 HD
DOCKED: ENDBRANCH  11  14
DOCKED: ENDBRANCH   5  12
DOCKED: ENDBRANCH   4   8
DOCKED: ENDBRANCH   1   4
DOCKED: BRANCH   1  18
DOCKED: ATOM     18  C   UNL     1      23.289 -11.673  -8.430 -0.41 -0.00    +0.000 C 
DOCKED: BRANCH  18  19
DOCKED: ATOM     19  C   UNL     1      23.957 -10.294  -8.558 -0.25 -0.00    +0.000 C 
DOCKED: BRANCH  19  20
DOCKED: ATOM     20  C   UNL     1      25.448 -10.442  -8.665 -0.29 -0.00    +0.000 A 
DOCKED: ATOM     21  C   UNL     1      26.157 -11.279  -9.528 -0.29 -0.00    +0.000 A 
DOCKED: ATOM     22  N   UNL     1      27.487 -11.194  -9.291 -0.30 -0.00    +0.000 N 
DOCKED: ATOM     23  C   UNL     1      27.625 -10.328  -8.272 -0.40 -0.00    +0.000 A 
DOCKED: ATOM     24  C   UNL     1      26.404  -9.854  -7.859 -0.34 -0.00    +0.000 A 
DOCKED: ATOM     25  C   UNL     1      26.289  -8.956  -6.797 -0.25 -0.00    +0.000 A 
DOCKED: ATOM     26  C   UNL     1      27.470  -8.538  -6.158 -0.41 -0.00    +0.000 A 
DOCKED: ATOM     27  C   UNL     1      28.726  -9.022  -6.587 -0.38 -0.00    +0.000 A 
DOCKED: ATOM     28  C   UNL     1      28.812  -9.931  -7.657 -0.46 -0.00    +0.000 A 
DOCKED: ATOM     29  C   UNL     1      25.558 -12.150 -10.586 -0.22 -0.00    +0.000 C 
DOCKED: ATOM     30  H   UNL     1      28.206 -11.670  -9.767 -0.04 -0.00    +0.000 HD
DOCKED: ENDBRANCH  19  20
DOCKED: ENDBRANCH  18  19
DOCKED: ENDBRANCH   1  18
DOCKED: TORSDOF 7
DOCKED: TER
DOCKED: ENDMDL
________________________________________________________________________________


	BEGINNING GENETIC ALGORITHM DOCKING 8 of 100
Run: 8 Seed: 995506815 615168218 [ Run 8 of 100 GA/GALS ]
Beginning LAMARCKIAN GENETIC ALGORITHM (LGA), with a maximum of 2500000 energy evaluations.

Final-Value: -13.729


	FINAL GENETIC ALGORITHM DOCKED STATE
	_______________________________________________


Detailed state:  trans 21.799 -8.036 -5.853 quatxyzw 0.143580 -0.896508 0.415933 0.051561 center 0.576 -0.005 0.140 ntor 7 149.7341 -143.5906 168.6846 117.4947 45.7357 133.2155 72.9559
State:	 21.799  -8.036  -5.853   0.144 -0.898  0.416 174.089    149.73 -143.59  168.68  117.49   45.74  133.22   72.96

DOCKED: MODEL        8
DOCKED: USER    Run = 8
DOCKED: USER    DPF = ligand_dock.biased.dpf
DOCKED: USER  
DOCKED: USER    Estimated Free Energy of Binding    =  -10.33 kcal/mol  [=(1)+(2)+(3)-(4)]
DOCKED: USER    Estimated Inhibition Constant, Ki   =   26.64 nM (nanomolar)  [Temperature = 298.15 K]
DOCKED: USER    
DOCKED: USER    (1) Final Intermolecular Energy     =  -12.42 kcal/mol
DOCKED: USER        vdW + Hbond + desolv Energy     =  -12.42 kcal/mol
DOCKED: USER        Electrostatic Energy            =   +0.00 kcal/mol
DOCKED: USER    (2) Final Total Internal Energy     =   -1.31 kcal/mol
DOCKED: USER    (3) Torsional Free Energy           =   +2.09 kcal/mol
DOCKED: USER    (4) Unbound System's Energy  [=(2)] =   -1.31 kcal/mol
DOCKED: USER    
DOCKED: USER    
DOCKED: USER    NEWDPF move ligand.pdbqt
DOCKED: USER    NEWDPF about 0.576000 -0.005000 0.140000
DOCKED: USER    NEWDPF tran0 21.799105 -8.035656 -5.853247
DOCKED: USER    NEWDPF quaternion0 0.143580 -0.896508 0.415933 0.051561
DOCKED: USER    NEWDPF axisangle0 0.143771 -0.897702 0.416487 174.088926
DOCKED: USER    NEWDPF quat0 0.143771 -0.897702 0.416487 174.088926
DOCKED: USER    NEWDPF dihe0 149.73 -143.59 168.68 117.49 45.74 133.22 72.96 
DOCKED: USER  keepresnum = 1 
DOCKED: USER  
DOCKED: REMARK  Name = 
DOCKED: REMARK  8 active torsions:
DOCKED: REMARK  status: ('A' for Active; 'I' for Inactive)
DOCKED: REMARK    1  A    between atoms: C_2  and  C_3
DOCKED: REMARK    2  A    between atoms: C_4  and  C_5
DOCKED: REMARK    3  A    between atoms: C_8  and  C_9
DOCKED: REMARK    4  A    between atoms: C_9  and  N_10
DOCKED: REMARK    5  A    between atoms: N_10  and  C_11
DOCKED: REMARK    6  A    between atoms: C_11  and  C_12
DOCKED: REMARK    7  A    between atoms: C_12  and  C_13
DOCKED: REMARK    8  A    between atoms: C_14  and  C_22
DOCKED: REMARK                            x       y       z     vdW  Elec       q    Type
DOCKED: REMARK                         _______ _______ _______ _____ _____    ______ ____
DOCKED: USER                              x       y       z     vdW  Elec       q    Type
DOCKED: USER                           _______ _______ _______ _____ _____    ______ ____
DOCKED: ROOT
DOCKED: ATOM      1  N   UNL     1      22.514  -7.972  -6.163 -0.21 -0.00    +0.000 N 
DOCKED: ATOM      2  H   UNL     1      22.035  -8.103  -7.054 +0.00 -0.00    +0.000 HD
DOCKED: ATOM      3  H   UNL     1      22.787  -8.865  -5.751 -0.02 -0.00    +0.000 HD
DOCKED: ENDROOT
DOCKED: BRANCH   1   4
DOCKED: ATOM      4  C   UNL     1      21.597  -7.309  -5.227 -0.22 -0.00    +0.000 C 
DOCKED: BRANCH   4   8
DOCKED: ATOM      5  C   UNL     1      21.005  -9.886  -1.804 -0.54 -0.00    +0.000 A 
DOCKED: ATOM      6  C   UNL     1      21.031 -10.421  -3.108 -0.48 -0.00    +0.000 A 
DOCKED: ATOM      7  C   UNL     1      21.211  -9.584  -4.213 -0.37 -0.00    +0.000 A 
DOCKED: ATOM      8  C   UNL     1      21.364  -8.201  -4.039 -0.31 -0.00    +0.000 A 
DOCKED: ATOM      9  C   UNL     1      21.372  -7.669  -2.741 -0.39 -0.00    +0.000 A 
DOCKED: ATOM     10  C   UNL     1      21.194  -8.504  -1.636 -0.46 -0.00    +0.000 A 
DOCKED: BRANCH   5  12
DOCKED: ATOM     11  C   UNL     1      20.538 -10.239   0.619 -0.66 -0.00    +0.000 C 
DOCKED: ATOM     12  C   UNL     1      20.829 -10.730  -0.596 -0.62 -0.00    +0.000 C 
DOCKED: BRANCH  11  14
DOCKED: ATOM     13  O   UNL     1      20.240 -12.328   1.664 -1.76 -0.00    +0.000 OA
DOCKED: ATOM     14  C   UNL     1      20.367 -11.084   1.818 -0.74 -0.00    +0.000 C 
DOCKED: ATOM     15  N   UNL     1      20.312 -10.536   3.141 -0.68 -0.00    +0.000 N 
DOCKED: ATOM     16  O   UNL     1      20.259 -11.359   4.214 -1.09 -0.00    +0.000 OA
DOCKED: ATOM     17  H   UNL     1      20.313  -9.560   3.269 -0.58 -0.00    +0.000 HD
DOCKED: ENDBRANCH  11  14
DOCKED: ENDBRANCH   5  12
DOCKED: ENDBRANCH   4   8
DOCKED: ENDBRANCH   1   4
DOCKED: BRANCH   1  18
DOCKED: ATOM     18  C   UNL     1      23.738  -7.191  -6.395 -0.02 -0.00    +0.000 C 
DOCKED: BRANCH  18  19
DOCKED: ATOM     19  C   UNL     1      24.374  -7.485  -7.763 -0.14 -0.00    +0.000 C 
DOCKED: BRANCH  19  20
DOCKED: ATOM     20  C   UNL     1      24.891  -8.894  -7.809 -0.21 -0.00    +0.000 A 
DOCKED: ATOM     21  C   UNL     1      26.212  -9.318  -7.656 -0.31 -0.00    +0.000 A 
DOCKED: ATOM     22  N   UNL     1      26.308 -10.658  -7.827 -0.38 -0.00    +0.000 N 
DOCKED: ATOM     23  C   UNL     1      25.064 -11.082  -8.108 -0.37 -0.00    +0.000 A 
DOCKED: ATOM     24  C   UNL     1      24.174 -10.036  -8.113 -0.25 -0.00    +0.000 A 
DOCKED: ATOM     25  C   UNL     1      22.822 -10.225  -8.402 -0.20 -0.00    +0.000 A 
DOCKED: ATOM     26  C   UNL     1      22.387 -11.532  -8.684 -0.27 -0.00    +0.000 A 
DOCKED: ATOM     27  C   UNL     1      23.301 -12.609  -8.674 -0.37 -0.00    +0.000 A 
DOCKED: ATOM     28  C   UNL     1      24.660 -12.388  -8.385 -0.40 -0.00    +0.000 A 
DOCKED: ATOM     29  C   UNL     1      27.379  -8.440  -7.334 -0.33 -0.00    +0.000 C 
DOCKED: ATOM     30  H   UNL     1      27.122 -11.208  -7.760 -0.05 -0.00    +0.000 HD
DOCKED: ENDBRANCH  19  20
DOCKED: ENDBRANCH  18  19
DOCKED: ENDBRANCH   1  18
DOCKED: TORSDOF 7
DOCKED: TER
DOCKED: ENDMDL
________________________________________________________________________________


	BEGINNING GENETIC ALGORITHM DOCKING 9 of 100
Run: 9 Seed: 2095140875 108276000 [ Run 9 of 100 GA/GALS ]
Beginning LAMARCKIAN GENETIC ALGORITHM (LGA), with a maximum of 2500000 energy evaluations.

Final-Value: -14.118


	FINAL GENETIC ALGORITHM DOCKED STATE
	_______________________________________________


Detailed state:  trans 22.341 -7.800 -5.247 quatxyzw 0.739616 -0.166592 0.618934 -0.205271 center 0.576 -0.005 0.140 ntor 7 39.9632 -48.3761 153.3514 -110.0826 51.8924 165.5081 -37.1414
State:	 22.341  -7.800  -5.247   0.756 -0.170  0.632 -156.309     39.96  -48.38  153.35 -110.08   51.89  165.51  -37.14

DOCKED: MODEL        9
DOCKED: USER    Run = 9
DOCKED: USER    DPF = ligand_dock.biased.dpf
DOCKED: USER  
DOCKED: USER    Estimated Free Energy of Binding    =  -10.21 kcal/mol  [=(1)+(2)+(3)-(4)]
DOCKED: USER    Estimated Inhibition Constant, Ki   =   32.65 nM (nanomolar)  [Temperature = 298.15 K]
DOCKED: USER    
DOCKED: USER    (1) Final Intermolecular Energy     =  -12.30 kcal/mol
DOCKED: USER        vdW + Hbond + desolv Energy     =  -12.30 kcal/mol
DOCKED: USER        Electrostatic Energy            =   +0.00 kcal/mol
DOCKED: USER    (2) Final Total Internal Energy     =   -1.82 kcal/mol
DOCKED: USER    (3) Torsional Free Energy           =   +2.09 kcal/mol
DOCKED: USER    (4) Unbound System's Energy  [=(2)] =   -1.82 kcal/mol
DOCKED: USER    
DOCKED: USER    
DOCKED: USER    NEWDPF move ligand.pdbqt
DOCKED: USER    NEWDPF about 0.576000 -0.005000 0.140000
DOCKED: USER    NEWDPF tran0 22.341304 -7.800395 -5.246557
DOCKED: USER    NEWDPF quaternion0 0.739616 -0.166592 0.618934 -0.205271
DOCKED: USER    NEWDPF axisangle0 0.755708 -0.170217 0.632401 -156.309271
DOCKED: USER    NEWDPF quat0 0.755708 -0.170217 0.632401 -156.309271
DOCKED: USER    NEWDPF dihe0 39.96 -48.38 153.35 -110.08 51.89 165.51 -37.14 
DOCKED: USER  keepresnum = 1 
DOCKED: USER  
DOCKED: REMARK  Name = 
DOCKED: REMARK  8 active torsions:
DOCKED: REMARK  status: ('A' for Active; 'I' for Inactive)
DOCKED: REMARK    1  A    between atoms: C_2  and  C_3
DOCKED: REMARK    2  A    between atoms: C_4  and  C_5
DOCKED: REMARK    3  A    between atoms: C_8  and  C_9
DOCKED: REMARK    4  A    between atoms: C_9  and  N_10
DOCKED: REMARK    5  A    between atoms: N_10  and  C_11
DOCKED: REMARK    6  A    between atoms: C_11  and  C_12
DOCKED: REMARK    7  A    between atoms: C_12  and  C_13
DOCKED: REMARK    8  A    between atoms: C_14  and  C_22
DOCKED: REMARK                            x       y       z     vdW  Elec       q    Type
DOCKED: REMARK                         _______ _______ _______ _____ _____    ______ ____
DOCKED: USER                              x       y       z     vdW  Elec       q    Type
DOCKED: USER                           _______ _______ _______ _____ _____    ______ ____
DOCKED: ROOT
DOCKED: ATOM      1  N   UNL     1      22.414  -8.066  -5.978 -0.21 -0.00    +0.000 N 
DOCKED: ATOM      2  H   UNL     1      22.632  -8.956  -5.531 -0.02 -0.00    +0.000 HD
DOCKED: ATOM      3  H   UNL     1      23.252  -7.501  -6.115 -0.02 -0.00    +0.000 HD
DOCKED: ENDROOT
DOCKED: BRANCH   1   4
DOCKED: ATOM      4  C   UNL     1      21.503  -7.311  -5.108 -0.22 -0.00    +0.000 C 
DOCKED: BRANCH   4   8
DOCKED: ATOM      5  C   UNL     1      21.254  -9.313  -1.281 -0.54 -0.00    +0.000 A 
DOCKED: ATOM      6  C   UNL     1      21.380 -10.056  -2.472 -0.49 -0.00    +0.000 A 
DOCKED: ATOM      7  C   UNL     1      21.448  -9.406  -3.708 -0.38 -0.00    +0.000 A 
DOCKED: ATOM      8  C   UNL     1      21.389  -8.007  -3.780 -0.32 -0.00    +0.000 A 
DOCKED: ATOM      9  C   UNL     1      21.298  -7.263  -2.595 -0.40 -0.00    +0.000 A 
DOCKED: ATOM     10  C   UNL     1      21.230  -7.910  -1.359 -0.27 -0.00    +0.000 A 
DOCKED: BRANCH   5  12
DOCKED: ATOM     11  C   UNL     1      20.132 -10.650   0.498 -0.65 -0.00    +0.000 C 
DOCKED: ATOM     12  C   UNL     1      21.189  -9.950   0.057 -0.68 -0.00    +0.000 C 
DOCKED: BRANCH  11  14
DOCKED: ATOM     13  O   UNL     1      19.857 -12.519   1.902 -1.72 -0.00    +0.000 OA
DOCKED: ATOM     14  C   UNL     1      20.073 -11.280   1.832 -0.74 -0.00    +0.000 C 
DOCKED: ATOM     15  N   UNL     1      20.224 -10.528   3.043 -0.68 -0.00    +0.000 N 
DOCKED: ATOM     16  O   UNL     1      20.266 -11.166   4.236 -1.06 -0.00    +0.000 OA
DOCKED: ATOM     17  H   UNL     1      20.296  -9.548   3.007 -0.57 -0.00    +0.000 HD
DOCKED: ENDBRANCH  11  14
DOCKED: ENDBRANCH   5  12
DOCKED: ENDBRANCH   4   8
DOCKED: ENDBRANCH   1   4
DOCKED: BRANCH   1  18
DOCKED: ATOM     18  C   UNL     1      21.830  -8.332  -7.301 -0.14 -0.00    +0.000 C 
DOCKED: BRANCH  18  19
DOCKED: ATOM     19  C   UNL     1      21.748  -9.834  -7.618 -0.24 -0.00    +0.000 C 
DOCKED: BRANCH  19  20
DOCKED: ATOM     20  C   UNL     1      20.789 -10.515  -6.685 -0.29 -0.00    +0.000 A 
DOCKED: ATOM     21  C   UNL     1      21.080 -11.502  -5.742 -0.30 -0.00    +0.000 A 
DOCKED: ATOM     22  N   UNL     1      19.950 -11.928  -5.130 -0.49 -0.00    +0.000 N 
DOCKED: ATOM     23  C   UNL     1      18.944 -11.235  -5.692 -0.37 -0.00    +0.000 A 
DOCKED: ATOM     24  C   UNL     1      19.415 -10.369  -6.648 -0.27 -0.00    +0.000 A 
DOCKED: ATOM     25  C   UNL     1      18.555  -9.557  -7.388 -0.15 -0.00    +0.000 A 
DOCKED: ATOM     26  C   UNL     1      17.177  -9.642  -7.120 -0.13 -0.00    +0.000 A 
DOCKED: ATOM     27  C   UNL     1      16.694 -10.529  -6.132 -0.22 -0.00    +0.000 A 
DOCKED: ATOM     28  C   UNL     1      17.584 -11.341  -5.406 -0.12 -0.00    +0.000 A 
DOCKED: ATOM     29  C   UNL     1      22.443 -12.027  -5.420 -0.49 -0.00    +0.000 C 
DOCKED: ATOM     30  H   UNL     1      19.879 -12.606  -4.420 -0.10 -0.00    +0.000 HD
DOCKED: ENDBRANCH  19  20
DOCKED: ENDBRANCH  18  19
DOCKED: ENDBRANCH   1  18
DOCKED: TORSDOF 7
DOCKED: TER
DOCKED: ENDMDL
________________________________________________________________________________


	BEGINNING GENETIC ALGORITHM DOCKING 10 of 100
Run: 10 Seed: 2012533165 535054822 [ Run 10 of 100 GA/GALS ]
Beginning LAMARCKIAN GENETIC ALGORITHM (LGA), with a maximum of 2500000 energy evaluations.

Final-Value: -13.240


	FINAL GENETIC ALGORITHM DOCKED STATE
	_______________________________________________


Detailed state:  trans 13.670 -5.734 3.470 quatxyzw 0.417677 -0.299670 0.364673 0.776374 center 0.576 -0.005 0.140 ntor 7 -149.0177 93.9930 -171.0003 -153.4823 -39.9722 111.4631 -2.2779
State:	 13.670  -5.734   3.470   0.663 -0.475  0.579 78.140   -149.02   93.99 -171.00 -153.48  -39.97  111.46   -2.28

DOCKED: MODEL       10
DOCKED: USER    Run = 10
DOCKED: USER    DPF = ligand_dock.biased.dpf
DOCKED: USER  
DOCKED: USER    Estimated Free Energy of Binding    =   -9.77 kcal/mol  [=(1)+(2)+(3)-(4)]
DOCKED: USER    Estimated Inhibition Constant, Ki   =   68.95 nM (nanomolar)  [Temperature = 298.15 K]
DOCKED: USER    
DOCKED: USER    (1) Final Intermolecular Energy     =  -11.86 kcal/mol
DOCKED: USER        vdW + Hbond + desolv Energy     =  -11.86 kcal/mol
DOCKED: USER        Electrostatic Energy            =   +0.00 kcal/mol
DOCKED: USER    (2) Final Total Internal Energy     =   -1.38 kcal/mol
DOCKED: USER    (3) Torsional Free Energy           =   +2.09 kcal/mol
DOCKED: USER    (4) Unbound System's Energy  [=(2)] =   -1.38 kcal/mol
DOCKED: USER    
DOCKED: USER    
DOCKED: USER    NEWDPF move ligand.pdbqt
DOCKED: USER    NEWDPF about 0.576000 -0.005000 0.140000
DOCKED: USER    NEWDPF tran0 13.670042 -5.733940 3.470462
DOCKED: USER    NEWDPF quaternion0 0.417677 -0.299670 0.364673 0.776374
DOCKED: USER    NEWDPF axisangle0 0.662694 -0.475461 0.578596 78.140417
DOCKED: USER    NEWDPF quat0 0.662694 -0.475461 0.578596 78.140417
DOCKED: USER    NEWDPF dihe0 -149.02 93.99 -171.00 -153.48 -39.97 111.46 -2.28 
DOCKED: USER  keepresnum = 1 
DOCKED: USER  
DOCKED: REMARK  Name = 
DOCKED: REMARK  8 active torsions:
DOCKED: REMARK  status: ('A' for Active; 'I' for Inactive)
DOCKED: REMARK    1  A    between atoms: C_2  and  C_3
DOCKED: REMARK    2  A    between atoms: C_4  and  C_5
DOCKED: REMARK    3  A    between atoms: C_8  and  C_9
DOCKED: REMARK    4  A    between atoms: C_9  and  N_10
DOCKED: REMARK    5  A    between atoms: N_10  and  C_11
DOCKED: REMARK    6  A    between atoms: C_11  and  C_12
DOCKED: REMARK    7  A    between atoms: C_12  and  C_13
DOCKED: REMARK    8  A    between atoms: C_14  and  C_22
DOCKED: REMARK                            x       y       z     vdW  Elec       q    Type
DOCKED: REMARK                         _______ _______ _______ _____ _____    ______ ____
DOCKED: USER                              x       y       z     vdW  Elec       q    Type
DOCKED: USER                           _______ _______ _______ _____ _____    ______ ____
DOCKED: ROOT
DOCKED: ATOM      1  N   UNL     1      13.551  -4.977   3.624 -0.19 +0.00    +0.000 N 
DOCKED: ATOM      2  H   UNL     1      14.474  -4.847   3.211 -0.00 -0.00    +0.000 HD
DOCKED: ATOM      3  H   UNL     1      13.612  -5.156   4.626 +0.00 +0.00    +0.000 HD
DOCKED: ENDROOT
DOCKED: BRANCH   1   4
DOCKED: ATOM      4  C   UNL     1      12.914  -6.143   2.999 -0.14 +0.00    +0.000 C 
DOCKED: BRANCH   4   8
DOCKED: ATOM      5  C   UNL     1      15.848  -9.304   2.668 -0.34 +0.00    +0.000 A 
DOCKED: ATOM      6  C   UNL     1      15.119  -8.882   1.538 -0.25 +0.00    +0.000 A 
DOCKED: ATOM      7  C   UNL     1      14.163  -7.868   1.651 -0.21 +0.00    +0.000 A 
DOCKED: ATOM      8  C   UNL     1      13.915  -7.261   2.891 -0.20 +0.00    +0.000 A 
DOCKED: ATOM      9  C   UNL     1      14.662  -7.655   4.010 -0.32 +0.00    +0.000 A 
DOCKED: ATOM     10  C   UNL     1      15.618  -8.666   3.899 -0.30 +0.00    +0.000 A 
DOCKED: BRANCH   5  12
DOCKED: ATOM     11  C   UNL     1      18.078 -10.206   2.015 -0.47 -0.00    +0.000 C 
DOCKED: ATOM     12  C   UNL     1      16.882 -10.367   2.603 -0.48 +0.00    +0.000 C 
DOCKED: BRANCH  11  14
DOCKED: ATOM     13  O   UNL     1      18.751 -12.421   1.585 -1.02 -0.00    +0.000 OA
DOCKED: ATOM     14  C   UNL     1      19.102 -11.267   1.951 -0.65 -0.00    +0.000 C 
DOCKED: ATOM     15  N   UNL     1      20.470 -11.038   2.315 -0.67 -0.00    +0.000 N 
DOCKED: ATOM     16  O   UNL     1      21.391 -12.013   2.140 -1.32 -0.00    +0.000 OA
DOCKED: ATOM     17  H   UNL     1      20.738 -10.169   2.692 -0.42 -0.00    +0.000 HD
DOCKED: ENDBRANCH  11  14
DOCKED: ENDBRANCH   5  12
DOCKED: ENDBRANCH   4   8
DOCKED: ENDBRANCH   1   4
DOCKED: BRANCH   1  18
DOCKED: ATOM     18  C   UNL     1      12.770  -3.745   3.434 -0.25 +0.00    +0.000 C 
DOCKED: BRANCH  18  19
DOCKED: ATOM     19  C   UNL     1      13.485  -2.503   3.990 -0.38 -0.00    +0.000 C 
DOCKED: BRANCH  19  20
DOCKED: ATOM     20  C   UNL     1      14.963  -2.748   4.085 -0.38 -0.00    +0.000 A 
DOCKED: ATOM     21  C   UNL     1      15.646  -3.435   5.090 -0.47 -0.00    +0.000 A 
DOCKED: ATOM     22  N   UNL     1      16.982  -3.395   4.875 -0.50 -0.00    +0.000 N 
DOCKED: ATOM     23  C   UNL     1      17.153  -2.671   3.755 -0.41 -0.00    +0.000 A 
DOCKED: ATOM     24  C   UNL     1      15.947  -2.254   3.249 -0.38 -0.00    +0.000 A 
DOCKED: ATOM     25  C   UNL     1      15.868  -1.465   2.100 -0.26 -0.00    +0.000 A 
DOCKED: ATOM     26  C   UNL     1      17.070  -1.111   1.462 -0.26 -0.00    +0.000 A 
DOCKED: ATOM     27  C   UNL     1      18.310  -1.546   1.981 -0.35 -0.00    +0.000 A 
DOCKED: ATOM     28  C   UNL     1      18.360  -2.335   3.144 -0.44 -0.00    +0.000 A 
DOCKED: ATOM     29  C   UNL     1      15.015  -4.140   6.249 -0.47 +0.00    +0.000 C 
DOCKED: ATOM     30  H   UNL     1      17.684  -3.810   5.426 -0.32 -0.00    +0.000 HD
DOCKED: ENDBRANCH  19  20
DOCKED: ENDBRANCH  18  19
DOCKED: ENDBRANCH   1  18
DOCKED: TORSDOF 7
DOCKED: TER
DOCKED: ENDMDL
________________________________________________________________________________


	BEGINNING GENETIC ALGORITHM DOCKING 11 of 100
Run: 11 Seed: 597721024 476464314 [ Run 11 of 100 GA/GALS ]
Beginning LAMARCKIAN GENETIC ALGORITHM (LGA), with a maximum of 2500000 energy evaluations.

Final-Value: -14.069


	FINAL GENETIC ALGORITHM DOCKED STATE
	_______________________________________________


Detailed state:  trans 20.288 -10.492 -6.387 quatxyzw 0.873038 0.130499 0.134201 -0.450293 center 0.576 -0.005 0.140 ntor 7 35.8981 -116.9872 4.8437 9.6038 171.2932 -23.0677 -91.4998
State:	 20.288 -10.492  -6.387   0.978  0.146  0.150 -126.475     35.90 -116.99    4.84    9.60  171.29  -23.07  -91.50

DOCKED: MODEL       11
DOCKED: USER    Run = 11
DOCKED: USER    DPF = ligand_dock.biased.dpf
DOCKED: USER  
DOCKED: USER    Estimated Free Energy of Binding    =  -10.65 kcal/mol  [=(1)+(2)+(3)-(4)]
DOCKED: USER    Estimated Inhibition Constant, Ki   =   15.67 nM (nanomolar)  [Temperature = 298.15 K]
DOCKED: USER    
DOCKED: USER    (1) Final Intermolecular Energy     =  -12.74 kcal/mol
DOCKED: USER        vdW + Hbond + desolv Energy     =  -12.74 kcal/mol
DOCKED: USER        Electrostatic Energy            =   +0.00 kcal/mol
DOCKED: USER    (2) Final Total Internal Energy     =   -1.33 kcal/mol
DOCKED: USER    (3) Torsional Free Energy           =   +2.09 kcal/mol
DOCKED: USER    (4) Unbound System's Energy  [=(2)] =   -1.33 kcal/mol
DOCKED: USER    
DOCKED: USER    
DOCKED: USER    NEWDPF move ligand.pdbqt
DOCKED: USER    NEWDPF about 0.576000 -0.005000 0.140000
DOCKED: USER    NEWDPF tran0 20.287829 -10.491613 -6.387318
DOCKED: USER    NEWDPF quaternion0 0.873038 0.130499 0.134201 -0.450293
DOCKED: USER    NEWDPF axisangle0 0.977777 0.146155 0.150301 -126.474999
DOCKED: USER    NEWDPF quat0 0.977777 0.146155 0.150301 -126.474999
DOCKED: USER    NEWDPF dihe0 35.90 -116.99 4.84 9.60 171.29 -23.07 -91.50 
DOCKED: USER  keepresnum = 1 
DOCKED: USER  
DOCKED: REMARK  Name = 
DOCKED: REMARK  8 active torsions:
DOCKED: REMARK  status: ('A' for Active; 'I' for Inactive)
DOCKED: REMARK    1  A    between atoms: C_2  and  C_3
DOCKED: REMARK    2  A    between atoms: C_4  and  C_5
DOCKED: REMARK    3  A    between atoms: C_8  and  C_9
DOCKED: REMARK    4  A    between atoms: C_9  and  N_10
DOCKED: REMARK    5  A    between atoms: N_10  and  C_11
DOCKED: REMARK    6  A    between atoms: C_11  and  C_12
DOCKED: REMARK    7  A    between atoms: C_12  and  C_13
DOCKED: REMARK    8  A    between atoms: C_14  and  C_22
DOCKED: REMARK                            x       y       z     vdW  Elec       q    Type
DOCKED: REMARK                         _______ _______ _______ _____ _____    ______ ____
DOCKED: USER                              x       y       z     vdW  Elec       q    Type
DOCKED: USER                           _______ _______ _______ _____ _____    ______ ____
DOCKED: ROOT
DOCKED: ATOM      1  N   UNL     1      19.749 -11.037  -6.542 -0.32 -0.00    +0.000 N 
DOCKED: ATOM      2  H   UNL     1      20.464 -11.694  -6.231 -0.35 -0.00    +0.000 HD
DOCKED: ATOM      3  H   UNL     1      19.824 -10.848  -7.542 -0.03 -0.00    +0.000 HD
DOCKED: ENDROOT
DOCKED: BRANCH   1   4
DOCKED: ATOM      4  C   UNL     1      19.936  -9.765  -5.831 -0.25 -0.00    +0.000 C 
DOCKED: BRANCH   4   8
DOCKED: ATOM      5  C   UNL     1      20.616 -10.472  -1.619 -0.51 -0.00    +0.000 A 
DOCKED: ATOM      6  C   UNL     1      21.683 -10.539  -2.538 -0.35 -0.00    +0.000 A 
DOCKED: ATOM      7  C   UNL     1      21.457 -10.321  -3.901 -0.44 -0.00    +0.000 A 
DOCKED: ATOM      8  C   UNL     1      20.167 -10.038  -4.371 -0.34 -0.00    +0.000 A 
DOCKED: ATOM      9  C   UNL     1      19.109  -9.938  -3.455 -0.30 -0.00    +0.000 A 
DOCKED: ATOM     10  C   UNL     1      19.333 -10.153  -2.093 -0.31 -0.00    +0.000 A 
DOCKED: BRANCH   5  12
DOCKED: ATOM     11  C   UNL     1      19.941 -11.369   0.607 -0.67 -0.00    +0.000 C 
DOCKED: ATOM     12  C   UNL     1      20.801 -10.682  -0.161 -0.67 -0.00    +0.000 C 
DOCKED: BRANCH  11  14
DOCKED: ATOM     13  O   UNL     1      20.080 -12.747   2.511 -1.53 -0.00    +0.000 OA
DOCKED: ATOM     14  C   UNL     1      20.130 -11.573   2.057 -0.77 -0.00    +0.000 C 
DOCKED: ATOM     15  N   UNL     1      20.339 -10.483   2.965 -0.64 -0.00    +0.000 N 
DOCKED: ATOM     16  O   UNL     1      20.611 -10.728   4.267 -0.95 -0.00    +0.000 OA
DOCKED: ATOM     17  H   UNL     1      20.285  -9.556   2.639 -0.54 -0.00    +0.000 HD
DOCKED: ENDBRANCH  11  14
DOCKED: ENDBRANCH   5  12
DOCKED: ENDBRANCH   4   8
DOCKED: ENDBRANCH   1   4
DOCKED: BRANCH   1  18
DOCKED: ATOM     18  C   UNL     1      18.425 -11.626  -6.294 -0.30 -0.00    +0.000 C 
DOCKED: BRANCH  18  19
DOCKED: ATOM     19  C   UNL     1      17.282 -10.621  -6.510 -0.29 -0.00    +0.000 C 
DOCKED: BRANCH  19  20
DOCKED: ATOM     20  C   UNL     1      15.967 -11.232  -6.123 -0.26 -0.00    +0.000 A 
DOCKED: ATOM     21  C   UNL     1      15.307 -11.120  -4.898 -0.22 -0.00    +0.000 A 
DOCKED: ATOM     22  N   UNL     1      14.176 -11.865  -4.892 -0.29 -0.00    +0.000 N 
DOCKED: ATOM     23  C   UNL     1      14.125 -12.464  -6.094 -0.28 -0.00    +0.000 A 
DOCKED: ATOM     24  C   UNL     1      15.202 -12.109  -6.869 -0.30 -0.00    +0.000 A 
DOCKED: ATOM     25  C   UNL     1      15.382 -12.624  -8.154 -0.35 +0.00    +0.000 A 
DOCKED: ATOM     26  C   UNL     1      14.415 -13.520  -8.644 -0.36 +0.00    +0.000 A 
DOCKED: ATOM     27  C   UNL     1      13.304 -13.880  -7.848 -0.25 +0.00    +0.000 A 
DOCKED: ATOM     28  C   UNL     1      13.152 -13.351  -6.554 -0.33 -0.00    +0.000 A 
DOCKED: ATOM     29  C   UNL     1      15.756 -10.288  -3.739 -0.25 -0.00    +0.000 C 
DOCKED: ATOM     30  H   UNL     1      13.526 -11.950  -4.158 -0.28 -0.00    +0.000 HD
DOCKED: ENDBRANCH  19  20
DOCKED: ENDBRANCH  18  19
DOCKED: ENDBRANCH   1  18
DOCKED: TORSDOF 7
DOCKED: TER
DOCKED: ENDMDL
________________________________________________________________________________


	BEGINNING GENETIC ALGORITHM DOCKING 12 of 100
Run: 12 Seed: 1247250064 1143381703 [ Run 12 of 100 GA/GALS ]
Beginning LAMARCKIAN GENETIC ALGORITHM (LGA), with a maximum of 2500000 energy evaluations.

Final-Value: -14.423


	FINAL GENETIC ALGORITHM DOCKED STATE
	_______________________________________________


Detailed state:  trans 22.124 -9.070 -5.359 quatxyzw 0.632870 -0.055349 0.769766 0.062234 center 0.576 -0.005 0.140 ntor 7 -13.8685 -163.5051 103.8488 76.9128 166.6021 -159.2047 -3.5083
State:	 22.124  -9.070  -5.359   0.634 -0.055  0.771 172.864    -13.87 -163.51  103.85   76.91  166.60 -159.20   -3.51

DOCKED: MODEL       12
DOCKED: USER    Run = 12
DOCKED: USER    DPF = ligand_dock.biased.dpf
DOCKED: USER  
DOCKED: USER    Estimated Free Energy of Binding    =  -11.53 kcal/mol  [=(1)+(2)+(3)-(4)]
DOCKED: USER    Estimated Inhibition Constant, Ki   =    3.51 nM (nanomolar)  [Temperature = 298.15 K]
DOCKED: USER    
DOCKED: USER    (1) Final Intermolecular Energy     =  -13.62 kcal/mol
DOCKED: USER        vdW + Hbond + desolv Energy     =  -13.62 kcal/mol
DOCKED: USER        Electrostatic Energy            =   +0.00 kcal/mol
DOCKED: USER    (2) Final Total Internal Energy     =   -0.80 kcal/mol
DOCKED: USER    (3) Torsional Free Energy           =   +2.09 kcal/mol
DOCKED: USER    (4) Unbound System's Energy  [=(2)] =   -0.80 kcal/mol
DOCKED: USER    
DOCKED: USER    
DOCKED: USER    NEWDPF move ligand.pdbqt
DOCKED: USER    NEWDPF about 0.576000 -0.005000 0.140000
DOCKED: USER    NEWDPF tran0 22.123876 -9.070035 -5.358891
DOCKED: USER    NEWDPF quaternion0 0.632870 -0.055349 0.769766 0.062234
DOCKED: USER    NEWDPF axisangle0 0.634099 -0.055456 0.771261 172.863945
DOCKED: USER    NEWDPF quat0 0.634099 -0.055456 0.771261 172.863945
DOCKED: USER    NEWDPF dihe0 -13.87 -163.51 103.85 76.91 166.60 -159.20 -3.51 
DOCKED: USER  keepresnum = 1 
DOCKED: USER  
DOCKED: REMARK  Name = 
DOCKED: REMARK  8 active torsions:
DOCKED: REMARK  status: ('A' for Active; 'I' for Inactive)
DOCKED: REMARK    1  A    between atoms: C_2  and  C_3
DOCKED: REMARK    2  A    between atoms: C_4  and  C_5
DOCKED: REMARK    3  A    between atoms: C_8  and  C_9
DOCKED: REMARK    4  A    between atoms: C_9  and  N_10
DOCKED: REMARK    5  A    between atoms: N_10  and  C_11
DOCKED: REMARK    6  A    between atoms: C_11  and  C_12
DOCKED: REMARK    7  A    between atoms: C_12  and  C_13
DOCKED: REMARK    8  A    between atoms: C_14  and  C_22
DOCKED: REMARK                            x       y       z     vdW  Elec       q    Type
DOCKED: REMARK                         _______ _______ _______ _____ _____    ______ ____
DOCKED: USER                              x       y       z     vdW  Elec       q    Type
DOCKED: USER                           _______ _______ _______ _____ _____    ______ ____
DOCKED: ROOT
DOCKED: ATOM      1  N   UNL     1      22.563  -9.074  -6.006 -0.26 -0.00    +0.000 N 
DOCKED: ATOM      2  H   UNL     1      23.052  -9.846  -5.554 -0.02 -0.00    +0.000 HD
DOCKED: ATOM      3  H   UNL     1      22.970  -8.173  -5.751 -0.02 -0.00    +0.000 HD
DOCKED: ENDROOT
DOCKED: BRANCH   1   4
DOCKED: ATOM      4  C   UNL     1      21.164  -9.074  -5.559 -0.27 -0.00    +0.000 C 
DOCKED: BRANCH   4   8
DOCKED: ATOM      5  C   UNL     1      20.939  -9.796  -1.300 -0.57 -0.00    +0.000 A 
DOCKED: ATOM      6  C   UNL     1      21.263  -8.516  -1.794 -0.45 -0.00    +0.000 A 
DOCKED: ATOM      7  C   UNL     1      21.347  -8.289  -3.171 -0.37 -0.00    +0.000 A 
DOCKED: ATOM      8  C   UNL     1      21.112  -9.332  -4.078 -0.36 -0.00    +0.000 A 
DOCKED: ATOM      9  C   UNL     1      20.757 -10.599  -3.591 -0.45 -0.00    +0.000 A 
DOCKED: ATOM     10  C   UNL     1      20.672 -10.827  -2.216 -0.35 -0.00    +0.000 A 
DOCKED: BRANCH   5  12
DOCKED: ATOM     11  C   UNL     1      20.401 -11.265   0.641 -0.70 -0.00    +0.000 C 
DOCKED: ATOM     12  C   UNL     1      20.825 -10.090   0.151 -0.68 -0.00    +0.000 C 
DOCKED: BRANCH  11  14
DOCKED: ATOM     13  O   UNL     1      19.929 -12.704   2.443 -1.56 -0.00    +0.000 OA
DOCKED: ATOM     14  C   UNL     1      20.287 -11.550   2.085 -0.78 -0.00    +0.000 C 
DOCKED: ATOM     15  N   UNL     1      20.542 -10.557   3.086 -0.65 -0.00    +0.000 N 
DOCKED: ATOM     16  O   UNL     1      20.527 -10.895   4.397 -0.90 -0.00    +0.000 OA
DOCKED: ATOM     17  H   UNL     1      20.728  -9.628   2.820 -0.58 -0.00    +0.000 HD
DOCKED: ENDBRANCH  11  14
DOCKED: ENDBRANCH   5  12
DOCKED: ENDBRANCH   4   8
DOCKED: ENDBRANCH   1   4
DOCKED: BRANCH   1  18
DOCKED: ATOM     18  C   UNL     1      22.684  -9.226  -7.463 -0.22 -0.00    +0.000 C 
DOCKED: BRANCH  18  19
DOCKED: ATOM     19  C   UNL     1      22.687 -10.699  -7.904 -0.33 -0.00    +0.000 C 
DOCKED: BRANCH  19  20
DOCKED: ATOM     20  C   UNL     1      24.063 -11.111  -8.341 -0.33 -0.00    +0.000 A 
DOCKED: ATOM     21  C   UNL     1      24.417 -12.256  -9.057 -0.38 -0.00    +0.000 A 
DOCKED: ATOM     22  N   UNL     1      25.761 -12.328  -9.210 -0.35 -0.00    +0.000 N 
DOCKED: ATOM     23  C   UNL     1      26.261 -11.251  -8.580 -0.34 -0.00    +0.000 A 
DOCKED: ATOM     24  C   UNL     1      25.258 -10.490  -8.032 -0.34 -0.00    +0.000 A 
DOCKED: ATOM     25  C   UNL     1      25.532  -9.330  -7.306 -0.28 -0.00    +0.000 A 
DOCKED: ATOM     26  C   UNL     1      26.878  -8.952  -7.155 -0.35 -0.00    +0.000 A 
DOCKED: ATOM     27  C   UNL     1      27.909  -9.733  -7.724 -0.42 -0.00    +0.000 A 
DOCKED: ATOM     28  C   UNL     1      27.604 -10.901  -8.445 -0.34 -0.00    +0.000 A 
DOCKED: ATOM     29  C   UNL     1      23.467 -13.273  -9.604 -0.41 -0.00    +0.000 C 
DOCKED: ATOM     30  H   UNL     1      26.267 -13.026  -9.685 -0.55 -0.00    +0.000 HD
DOCKED: ENDBRANCH  19  20
DOCKED: ENDBRANCH  18  19
DOCKED: ENDBRANCH   1  18
DOCKED: TORSDOF 7
DOCKED: TER
DOCKED: ENDMDL
________________________________________________________________________________


	BEGINNING GENETIC ALGORITHM DOCKING 13 of 100
Run: 13 Seed: 1285109087 1678426576 [ Run 13 of 100 GA/GALS ]
Beginning LAMARCKIAN GENETIC ALGORITHM (LGA), with a maximum of 2500000 energy evaluations.

Final-Value: -13.091


	FINAL GENETIC ALGORITHM DOCKED STATE
	_______________________________________________


Detailed state:  trans 14.960 -10.427 2.898 quatxyzw 0.062786 0.946203 -0.117763 0.294770 center 0.576 -0.005 0.140 ntor 7 -10.5540 -57.3703 8.5452 20.5799 75.5428 24.6124 -24.5995
State:	 14.960 -10.427   2.898   0.066  0.990 -0.123 145.713    -10.55  -57.37    8.55   20.58   75.54   24.61  -24.60

DOCKED: MODEL       13
DOCKED: USER    Run = 13
DOCKED: USER    DPF = ligand_dock.biased.dpf
DOCKED: USER  
DOCKED: USER    Estimated Free Energy of Binding    =  -10.15 kcal/mol  [=(1)+(2)+(3)-(4)]
DOCKED: USER    Estimated Inhibition Constant, Ki   =   36.06 nM (nanomolar)  [Temperature = 298.15 K]
DOCKED: USER    
DOCKED: USER    (1) Final Intermolecular Energy     =  -12.24 kcal/mol
DOCKED: USER        vdW + Hbond + desolv Energy     =  -12.24 kcal/mol
DOCKED: USER        Electrostatic Energy            =   +0.00 kcal/mol
DOCKED: USER    (2) Final Total Internal Energy     =   -0.85 kcal/mol
DOCKED: USER    (3) Torsional Free Energy           =   +2.09 kcal/mol
DOCKED: USER    (4) Unbound System's Energy  [=(2)] =   -0.85 kcal/mol
DOCKED: USER    
DOCKED: USER    
DOCKED: USER    NEWDPF move ligand.pdbqt
DOCKED: USER    NEWDPF about 0.576000 -0.005000 0.140000
DOCKED: USER    NEWDPF tran0 14.960001 -10.426950 2.897999
DOCKED: USER    NEWDPF quaternion0 0.062786 0.946203 -0.117763 0.294770
DOCKED: USER    NEWDPF axisangle0 0.065705 0.990200 -0.123238 145.712538
DOCKED: USER    NEWDPF quat0 0.065705 0.990200 -0.123238 145.712538
DOCKED: USER    NEWDPF dihe0 -10.55 -57.37 8.55 20.58 75.54 24.61 -24.60 
DOCKED: USER  keepresnum = 1 
DOCKED: USER  
DOCKED: REMARK  Name = 
DOCKED: REMARK  8 active torsions:
DOCKED: REMARK  status: ('A' for Active; 'I' for Inactive)
DOCKED: REMARK    1  A    between atoms: C_2  and  C_3
DOCKED: REMARK    2  A    between atoms: C_4  and  C_5
DOCKED: REMARK    3  A    between atoms: C_8  and  C_9
DOCKED: REMARK    4  A    between atoms: C_9  and  N_10
DOCKED: REMARK    5  A    between atoms: N_10  and  C_11
DOCKED: REMARK    6  A    between atoms: C_11  and  C_12
DOCKED: REMARK    7  A    between atoms: C_12  and  C_13
DOCKED: REMARK    8  A    between atoms: C_14  and  C_22
DOCKED: REMARK                            x       y       z     vdW  Elec       q    Type
DOCKED: REMARK                         _______ _______ _______ _____ _____    ______ ____
DOCKED: USER                              x       y       z     vdW  Elec       q    Type
DOCKED: USER                           _______ _______ _______ _____ _____    ______ ____
DOCKED: ROOT
DOCKED: ATOM      1  N   UNL     1      15.371 -10.501   2.237 -0.33 +0.00    +0.000 N 
DOCKED: ATOM      2  H   UNL     1      14.692  -9.843   1.855 +0.00 +0.00    +0.000 HD
DOCKED: ATOM      3  H   UNL     1      15.056 -11.466   2.133 -0.01 +0.00    +0.000 HD
DOCKED: ENDROOT
DOCKED: BRANCH   1   4
DOCKED: ATOM      4  C   UNL     1      15.529 -10.235   3.673 -0.49 +0.00    +0.000 C 
DOCKED: BRANCH   4   8
DOCKED: ATOM      5  C   UNL     1      12.010  -8.191   5.137 -0.28 +0.00    +0.000 A 
DOCKED: ATOM      6  C   UNL     1      12.227  -8.341   3.752 -0.17 +0.00    +0.000 A 
DOCKED: ATOM      7  C   UNL     1      13.372  -8.992   3.282 -0.22 +0.00    +0.000 A 
DOCKED: ATOM      8  C   UNL     1      14.320  -9.501   4.182 -0.36 +0.00    +0.000 A 
DOCKED: ATOM      9  C   UNL     1      14.090  -9.383   5.560 -0.43 +0.00    +0.000 A 
DOCKED: ATOM     10  C   UNL     1      12.947  -8.734   6.032 -0.33 +0.00    +0.000 A 
DOCKED: BRANCH   5  12
DOCKED: ATOM     11  C   UNL     1      10.668  -6.188   5.769 -0.21 +0.00    +0.000 C 
DOCKED: ATOM     12  C   UNL     1      10.807  -7.520   5.691 -0.20 +0.00    +0.000 C 
DOCKED: BRANCH  11  14
DOCKED: ATOM     13  O   UNL     1       9.386  -4.271   6.245 -0.97 +0.00    +0.000 OA
DOCKED: ATOM     14  C   UNL     1       9.470  -5.526   6.323 -0.37 +0.00    +0.000 C 
DOCKED: ATOM     15  N   UNL     1       8.418  -6.257   6.966 -0.40 +0.00    +0.000 N 
DOCKED: ATOM     16  O   UNL     1       7.293  -5.618   7.363 -0.84 +0.00    +0.000 OA
DOCKED: ATOM     17  H   UNL     1       8.514  -7.225   7.119 -0.01 +0.00    +0.000 HD
DOCKED: ENDBRANCH  11  14
DOCKED: ENDBRANCH   5  12
DOCKED: ENDBRANCH   4   8
DOCKED: ENDBRANCH   1   4
DOCKED: BRANCH   1  18
DOCKED: ATOM     18  C   UNL     1      16.635 -10.358   1.499 -0.38 +0.00    +0.000 C 
DOCKED: BRANCH  18  19
DOCKED: ATOM     19  C   UNL     1      17.335 -11.706   1.263 -0.49 +0.00    +0.000 C 
DOCKED: BRANCH  19  20
DOCKED: ATOM     20  C   UNL     1      18.770 -11.489   0.875 -0.51 -0.00    +0.000 A 
DOCKED: ATOM     21  C   UNL     1      19.893 -11.572   1.700 -0.66 -0.00    +0.000 A 
DOCKED: ATOM     22  N   UNL     1      21.015 -11.246   1.014 -0.68 -0.00    +0.000 N 
DOCKED: ATOM     23  C   UNL     1      20.609 -10.937  -0.229 -0.54 -0.00    +0.000 A 
DOCKED: ATOM     24  C   UNL     1      19.247 -11.067  -0.351 -0.46 -0.00    +0.000 A 
DOCKED: ATOM     25  C   UNL     1      18.588 -10.777  -1.546 -0.34 -0.00    +0.000 A 
DOCKED: ATOM     26  C   UNL     1      19.364 -10.353  -2.639 -0.36 -0.00    +0.000 A 
DOCKED: ATOM     27  C   UNL     1      20.766 -10.225  -2.515 -0.49 -0.00    +0.000 A 
DOCKED: ATOM     28  C   UNL     1      21.403 -10.517  -1.296 -0.56 -0.00    +0.000 A 
DOCKED: ATOM     29  C   UNL     1      19.891 -11.976   3.139 -0.68 -0.00    +0.000 C 
DOCKED: ATOM     30  H   UNL     1      21.938 -11.236   1.357 -0.47 -0.00    +0.000 HD
DOCKED: ENDBRANCH  19  20
DOCKED: ENDBRANCH  18  19
DOCKED: ENDBRANCH   1  18
DOCKED: TORSDOF 7
DOCKED: TER
DOCKED: ENDMDL
________________________________________________________________________________


	BEGINNING GENETIC ALGORITHM DOCKING 14 of 100
Run: 14 Seed: 1106601654 80694617 [ Run 14 of 100 GA/GALS ]
Beginning LAMARCKIAN GENETIC ALGORITHM (LGA), with a maximum of 2500000 energy evaluations.

Final-Value: -14.694


	FINAL GENETIC ALGORITHM DOCKED STATE
	_______________________________________________


Detailed state:  trans 20.463 -11.068 -6.493 quatxyzw 0.116326 -0.788298 0.599755 -0.073137 center 0.576 -0.005 0.140 ntor 7 -0.8223 -152.4557 179.8863 -16.2455 -165.8196 58.8205 83.7129
State:	 20.463 -11.068  -6.493   0.117 -0.790  0.601 -171.612     -0.82 -152.46  179.89  -16.25 -165.82   58.82   83.71

DOCKED: MODEL       14
DOCKED: USER    Run = 14
DOCKED: USER    DPF = ligand_dock.biased.dpf
DOCKED: USER  
DOCKED: USER    Estimated Free Energy of Binding    =  -11.60 kcal/mol  [=(1)+(2)+(3)-(4)]
DOCKED: USER    Estimated Inhibition Constant, Ki   =    3.17 nM (nanomolar)  [Temperature = 298.15 K]
DOCKED: USER    
DOCKED: USER    (1) Final Intermolecular Energy     =  -13.68 kcal/mol
DOCKED: USER        vdW + Hbond + desolv Energy     =  -13.68 kcal/mol
DOCKED: USER        Electrostatic Energy            =   +0.00 kcal/mol
DOCKED: USER    (2) Final Total Internal Energy     =   -1.01 kcal/mol
DOCKED: USER    (3) Torsional Free Energy           =   +2.09 kcal/mol
DOCKED: USER    (4) Unbound System's Energy  [=(2)] =   -1.01 kcal/mol
DOCKED: USER    
DOCKED: USER    
DOCKED: USER    NEWDPF move ligand.pdbqt
DOCKED: USER    NEWDPF about 0.576000 -0.005000 0.140000
DOCKED: USER    NEWDPF tran0 20.462610 -11.067762 -6.492763
DOCKED: USER    NEWDPF quaternion0 0.116326 -0.788298 0.599755 -0.073137
DOCKED: USER    NEWDPF axisangle0 0.116638 -0.790415 0.601365 -171.611591
DOCKED: USER    NEWDPF quat0 0.116638 -0.790415 0.601365 -171.611591
DOCKED: USER    NEWDPF dihe0 -0.82 -152.46 179.89 -16.25 -165.82 58.82 83.71 
DOCKED: USER  keepresnum = 1 
DOCKED: USER  
DOCKED: REMARK  Name = 
DOCKED: REMARK  8 active torsions:
DOCKED: REMARK  status: ('A' for Active; 'I' for Inactive)
DOCKED: REMARK    1  A    between atoms: C_2  and  C_3
DOCKED: REMARK    2  A    between atoms: C_4  and  C_5
DOCKED: REMARK    3  A    between atoms: C_8  and  C_9
DOCKED: REMARK    4  A    between atoms: C_9  and  N_10
DOCKED: REMARK    5  A    between atoms: N_10  and  C_11
DOCKED: REMARK    6  A    between atoms: C_11  and  C_12
DOCKED: REMARK    7  A    between atoms: C_12  and  C_13
DOCKED: REMARK    8  A    between atoms: C_14  and  C_22
DOCKED: REMARK                            x       y       z     vdW  Elec       q    Type
DOCKED: REMARK                         _______ _______ _______ _____ _____    ______ ____
DOCKED: USER                              x       y       z     vdW  Elec       q    Type
DOCKED: USER                           _______ _______ _______ _____ _____    ______ ____
DOCKED: ROOT
DOCKED: ATOM      1  N   UNL     1      21.119 -11.264  -6.868 -0.18 -0.00    +0.000 N 
DOCKED: ATOM      2  H   UNL     1      20.489 -11.682  -7.552 -0.28 -0.00    +0.000 HD
DOCKED: ATOM      3  H   UNL     1      21.361 -11.925  -6.130 -0.47 -0.00    +0.000 HD
DOCKED: ENDROOT
DOCKED: BRANCH   1   4
DOCKED: ATOM      4  C   UNL     1      20.444 -10.121  -6.242 -0.30 -0.00    +0.000 C 
DOCKED: BRANCH   4   8
DOCKED: ATOM      5  C   UNL     1      20.690 -10.398  -1.932 -0.50 -0.00    +0.000 A 
DOCKED: ATOM      6  C   UNL     1      21.460  -9.448  -2.634 -0.42 -0.00    +0.000 A 
DOCKED: ATOM      7  C   UNL     1      21.387  -9.369  -4.029 -0.37 -0.00    +0.000 A 
DOCKED: ATOM      8  C   UNL     1      20.550 -10.236  -4.746 -0.36 -0.00    +0.000 A 
DOCKED: ATOM      9  C   UNL     1      19.757 -11.159  -4.049 -0.42 -0.00    +0.000 A 
DOCKED: ATOM     10  C   UNL     1      19.828 -11.238  -2.656 -0.19 -0.00    +0.000 A 
DOCKED: BRANCH   5  12
DOCKED: ATOM     11  C   UNL     1      20.068 -11.471   0.230 -0.55 -0.00    +0.000 C 
DOCKED: ATOM     12  C   UNL     1      20.720 -10.517  -0.453 -0.67 -0.00    +0.000 C 
DOCKED: BRANCH  11  14
DOCKED: ATOM     13  O   UNL     1      19.722 -12.662   2.231 -1.54 -0.00    +0.000 OA
DOCKED: ATOM     14  C   UNL     1      20.100 -11.583   1.702 -0.76 -0.00    +0.000 C 
DOCKED: ATOM     15  N   UNL     1      20.519 -10.502   2.545 -0.60 -0.00    +0.000 N 
DOCKED: ATOM     16  O   UNL     1      20.630 -10.687   3.881 -1.10 -0.00    +0.000 OA
DOCKED: ATOM     17  H   UNL     1      20.725  -9.623   2.151 -0.54 -0.00    +0.000 HD
DOCKED: ENDBRANCH  11  14
DOCKED: ENDBRANCH   5  12
DOCKED: ENDBRANCH   4   8
DOCKED: ENDBRANCH   1   4
DOCKED: BRANCH   1  18
DOCKED: ATOM     18  C   UNL     1      22.364 -10.875  -7.548 -0.36 -0.00    +0.000 C 
DOCKED: BRANCH  18  19
DOCKED: ATOM     19  C   UNL     1      23.545 -11.790  -7.184 -0.51 -0.00    +0.000 C 
DOCKED: BRANCH  19  20
DOCKED: ATOM     20  C   UNL     1      24.621 -11.695  -8.228 -0.41 -0.00    +0.000 A 
DOCKED: ATOM     21  C   UNL     1      24.753 -12.469  -9.382 -0.37 -0.00    +0.000 A 
DOCKED: ATOM     22  N   UNL     1      25.886 -12.145 -10.048 -0.23 -0.00    +0.000 N 
DOCKED: ATOM     23  C   UNL     1      26.482 -11.188  -9.316 -0.30 -0.00    +0.000 A 
DOCKED: ATOM     24  C   UNL     1      25.745 -10.892  -8.196 -0.36 -0.00    +0.000 A 
DOCKED: ATOM     25  C   UNL     1      26.174  -9.944  -7.266 -0.23 -0.00    +0.000 A 
DOCKED: ATOM     26  C   UNL     1      27.391  -9.284  -7.514 -0.37 -0.00    +0.000 A 
DOCKED: ATOM     27  C   UNL     1      28.146  -9.585  -8.669 -0.29 -0.00    +0.000 A 
DOCKED: ATOM     28  C   UNL     1      27.693 -10.550  -9.586 -0.28 -0.00    +0.000 A 
DOCKED: ATOM     29  C   UNL     1      23.787 -13.510  -9.850 -0.42 -0.00    +0.000 C 
DOCKED: ATOM     30  H   UNL     1      26.208 -12.531 -10.895 -0.33 -0.00    +0.000 HD
DOCKED: ENDBRANCH  19  20
DOCKED: ENDBRANCH  18  19
DOCKED: ENDBRANCH   1  18
DOCKED: TORSDOF 7
DOCKED: TER
DOCKED: ENDMDL
________________________________________________________________________________


	BEGINNING GENETIC ALGORITHM DOCKING 15 of 100
Run: 15 Seed: 218468857 1207122141 [ Run 15 of 100 GA/GALS ]
Beginning LAMARCKIAN GENETIC ALGORITHM (LGA), with a maximum of 2500000 energy evaluations.

Final-Value: -13.309


	FINAL GENETIC ALGORITHM DOCKED STATE
	_______________________________________________


Detailed state:  trans 17.967 -10.333 2.015 quatxyzw -0.613144 0.359008 0.360312 -0.604437 center 0.576 -0.005 0.140 ntor 7 104.1641 -172.0275 -162.6492 159.0928 168.1087 -147.3639 4.3188
State:	 17.967 -10.333   2.015  -0.770  0.451  0.452 -105.623    104.16 -172.03 -162.65  159.09  168.11 -147.36    4.32

DOCKED: MODEL       15
DOCKED: USER    Run = 15
DOCKED: USER    DPF = ligand_dock.biased.dpf
DOCKED: USER  
DOCKED: USER    Estimated Free Energy of Binding    =   -9.28 kcal/mol  [=(1)+(2)+(3)-(4)]
DOCKED: USER    Estimated Inhibition Constant, Ki   =  156.88 nM (nanomolar)  [Temperature = 298.15 K]
DOCKED: USER    
DOCKED: USER    (1) Final Intermolecular Energy     =  -11.37 kcal/mol
DOCKED: USER        vdW + Hbond + desolv Energy     =  -11.37 kcal/mol
DOCKED: USER        Electrostatic Energy            =   +0.00 kcal/mol
DOCKED: USER    (2) Final Total Internal Energy     =   -1.94 kcal/mol
DOCKED: USER    (3) Torsional Free Energy           =   +2.09 kcal/mol
DOCKED: USER    (4) Unbound System's Energy  [=(2)] =   -1.94 kcal/mol
DOCKED: USER    
DOCKED: USER    
DOCKED: USER    NEWDPF move ligand.pdbqt
DOCKED: USER    NEWDPF about 0.576000 -0.005000 0.140000
DOCKED: USER    NEWDPF tran0 17.966854 -10.332771 2.014664
DOCKED: USER    NEWDPF quaternion0 -0.613144 0.359008 0.360312 -0.604437
DOCKED: USER    NEWDPF axisangle0 -0.769649 0.450645 0.452282 -105.623386
DOCKED: USER    NEWDPF quat0 -0.769649 0.450645 0.452282 -105.623386
DOCKED: USER    NEWDPF dihe0 104.16 -172.03 -162.65 159.09 168.11 -147.36 4.32 
DOCKED: USER  keepresnum = 1 
DOCKED: USER  
DOCKED: REMARK  Name = 
DOCKED: REMARK  8 active torsions:
DOCKED: REMARK  status: ('A' for Active; 'I' for Inactive)
DOCKED: REMARK    1  A    between atoms: C_2  and  C_3
DOCKED: REMARK    2  A    between atoms: C_4  and  C_5
DOCKED: REMARK    3  A    between atoms: C_8  and  C_9
DOCKED: REMARK    4  A    between atoms: C_9  and  N_10
DOCKED: REMARK    5  A    between atoms: N_10  and  C_11
DOCKED: REMARK    6  A    between atoms: C_11  and  C_12
DOCKED: REMARK    7  A    between atoms: C_12  and  C_13
DOCKED: REMARK    8  A    between atoms: C_14  and  C_22
DOCKED: REMARK                            x       y       z     vdW  Elec       q    Type
DOCKED: REMARK                         _______ _______ _______ _____ _____    ______ ____
DOCKED: USER                              x       y       z     vdW  Elec       q    Type
DOCKED: USER                           _______ _______ _______ _____ _____    ______ ____
DOCKED: ROOT
DOCKED: ATOM      1  N   UNL     1      17.516 -10.025   2.574 -0.46 +0.00    +0.000 N 
DOCKED: ATOM      2  H   UNL     1      17.127  -9.463   1.818 -0.02 -0.00    +0.000 HD
DOCKED: ATOM      3  H   UNL     1      18.327  -9.571   2.997 -0.06 -0.00    +0.000 HD
DOCKED: ENDROOT
DOCKED: BRANCH   1   4
DOCKED: ATOM      4  C   UNL     1      17.960 -11.313   2.026 -0.50 +0.00    +0.000 C 
DOCKED: BRANCH   4   8
DOCKED: ATOM      5  C   UNL     1      20.477 -10.696  -1.437 -0.45 -0.00    +0.000 A 
DOCKED: ATOM      6  C   UNL     1      21.007 -10.578  -0.135 -0.62 -0.00    +0.000 A 
DOCKED: ATOM      7  C   UNL     1      20.187 -10.766   0.982 -0.60 -0.00    +0.000 A 
DOCKED: ATOM      8  C   UNL     1      18.828 -11.072   0.823 -0.48 -0.00    +0.000 A 
DOCKED: ATOM      9  C   UNL     1      18.305 -11.224  -0.470 -0.41 -0.00    +0.000 A 
DOCKED: ATOM     10  C   UNL     1      19.123 -11.037  -1.588 -0.38 -0.00    +0.000 A 
DOCKED: BRANCH   5  12
DOCKED: ATOM     11  C   UNL     1      20.912 -10.899  -3.882 -0.51 -0.00    +0.000 C 
DOCKED: ATOM     12  C   UNL     1      21.304 -10.519  -2.656 -0.55 -0.00    +0.000 C 
DOCKED: BRANCH  11  14
DOCKED: ATOM     13  O   UNL     1      22.096  -9.556  -5.411 -0.37 -0.00    +0.000 OA
DOCKED: ATOM     14  C   UNL     1      21.740 -10.722  -5.092 -0.49 -0.00    +0.000 C 
DOCKED: ATOM     15  N   UNL     1      22.126 -11.822  -5.926 -0.52 -0.00    +0.000 N 
DOCKED: ATOM     16  O   UNL     1      22.971 -11.623  -6.964 -0.56 -0.00    +0.000 OA
DOCKED: ATOM     17  H   UNL     1      21.775 -12.724  -5.743 -0.60 -0.00    +0.000 HD
DOCKED: ENDBRANCH  11  14
DOCKED: ENDBRANCH   5  12
DOCKED: ENDBRANCH   4   8
DOCKED: ENDBRANCH   1   4
DOCKED: BRANCH   1  18
DOCKED: ATOM     18  C   UNL     1      16.495 -10.184   3.620 -0.41 +0.00    +0.000 C 
DOCKED: BRANCH  18  19
DOCKED: ATOM     19  C   UNL     1      15.119 -10.562   3.047 -0.46 +0.00    +0.000 C 
DOCKED: BRANCH  19  20
DOCKED: ATOM     20  C   UNL     1      14.995 -10.091   1.627 -0.27 +0.00    +0.000 A 
DOCKED: ATOM     21  C   UNL     1      14.845  -8.777   1.179 -0.24 +0.00    +0.000 A 
DOCKED: ATOM     22  N   UNL     1      14.697  -8.744  -0.166 -0.24 -0.00    +0.000 N 
DOCKED: ATOM     23  C   UNL     1      14.731 -10.025  -0.571 -0.24 +0.00    +0.000 A 
DOCKED: ATOM     24  C   UNL     1      14.904 -10.876   0.493 -0.28 +0.00    +0.000 A 
DOCKED: ATOM     25  C   UNL     1      14.948 -12.260   0.325 -0.44 +0.00    +0.000 A 
DOCKED: ATOM     26  C   UNL     1      14.817 -12.768  -0.980 -0.38 +0.00    +0.000 A 
DOCKED: ATOM     27  C   UNL     1      14.644 -11.893  -2.075 -0.27 -0.00    +0.000 A 
DOCKED: ATOM     28  C   UNL     1      14.597 -10.501  -1.875 -0.27 -0.00    +0.000 A 
DOCKED: ATOM     29  C   UNL     1      14.855  -7.555   2.041 -0.24 +0.00    +0.000 C 
DOCKED: ATOM     30  H   UNL     1      14.586  -7.945  -0.731 -0.02 -0.00    +0.000 HD
DOCKED: ENDBRANCH  19  20
DOCKED: ENDBRANCH  18  19
DOCKED: ENDBRANCH   1  18
DOCKED: TORSDOF 7
DOCKED: TER
DOCKED: ENDMDL
________________________________________________________________________________


	BEGINNING GENETIC ALGORITHM DOCKING 16 of 100
Run: 16 Seed: 1323620902 244407584 [ Run 16 of 100 GA/GALS ]
Beginning LAMARCKIAN GENETIC ALGORITHM (LGA), with a maximum of 2500000 energy evaluations.

Final-Value: -12.923


	FINAL GENETIC ALGORITHM DOCKED STATE
	_______________________________________________


Detailed state:  trans 21.141 -8.213 -6.302 quatxyzw 0.925026 -0.234671 -0.298608 0.009503 center 0.576 -0.005 0.140 ntor 7 -24.3233 28.1853 -171.4696 -69.2032 173.6700 128.6126 -151.7255
State:	 21.141  -8.213  -6.302   0.925 -0.235 -0.299 178.911    -24.32   28.19 -171.47  -69.20  173.67  128.61 -151.73

DOCKED: MODEL       16
DOCKED: USER    Run = 16
DOCKED: USER    DPF = ligand_dock.biased.dpf
DOCKED: USER  
DOCKED: USER    Estimated Free Energy of Binding    =   -9.23 kcal/mol  [=(1)+(2)+(3)-(4)]
DOCKED: USER    Estimated Inhibition Constant, Ki   =  171.29 nM (nanomolar)  [Temperature = 298.15 K]
DOCKED: USER    
DOCKED: USER    (1) Final Intermolecular Energy     =  -11.32 kcal/mol
DOCKED: USER        vdW + Hbond + desolv Energy     =  -11.32 kcal/mol
DOCKED: USER        Electrostatic Energy            =   +0.00 kcal/mol
DOCKED: USER    (2) Final Total Internal Energy     =   -1.60 kcal/mol
DOCKED: USER    (3) Torsional Free Energy           =   +2.09 kcal/mol
DOCKED: USER    (4) Unbound System's Energy  [=(2)] =   -1.60 kcal/mol
DOCKED: USER    
DOCKED: USER    
DOCKED: USER    NEWDPF move ligand.pdbqt
DOCKED: USER    NEWDPF about 0.576000 -0.005000 0.140000
DOCKED: USER    NEWDPF tran0 21.141057 -8.212907 -6.301862
DOCKED: USER    NEWDPF quaternion0 0.925026 -0.234671 -0.298608 0.009503
DOCKED: USER    NEWDPF axisangle0 0.925067 -0.234681 -0.298622 178.910992
DOCKED: USER    NEWDPF quat0 0.925067 -0.234681 -0.298622 178.910992
DOCKED: USER    NEWDPF dihe0 -24.32 28.19 -171.47 -69.20 173.67 128.61 -151.73 
DOCKED: USER  keepresnum = 1 
DOCKED: USER  
DOCKED: REMARK  Name = 
DOCKED: REMARK  8 active torsions:
DOCKED: REMARK  status: ('A' for Active; 'I' for Inactive)
DOCKED: REMARK    1  A    between atoms: C_2  and  C_3
DOCKED: REMARK    2  A    between atoms: C_4  and  C_5
DOCKED: REMARK    3  A    between atoms: C_8  and  C_9
DOCKED: REMARK    4  A    between atoms: C_9  and  N_10
DOCKED: REMARK    5  A    between atoms: N_10  and  C_11
DOCKED: REMARK    6  A    between atoms: C_11  and  C_12
DOCKED: REMARK    7  A    between atoms: C_12  and  C_13
DOCKED: REMARK    8  A    between atoms: C_14  and  C_22
DOCKED: REMARK                            x       y       z     vdW  Elec       q    Type
DOCKED: REMARK                         _______ _______ _______ _____ _____    ______ ____
DOCKED: USER                              x       y       z     vdW  Elec       q    Type
DOCKED: USER                           _______ _______ _______ _____ _____    ______ ____
DOCKED: ROOT
DOCKED: ATOM      1  N   UNL     1      20.416  -7.969  -6.144 -0.11 -0.00    +0.000 N 
DOCKED: ATOM      2  H   UNL     1      20.130  -8.703  -6.791 +0.01 -0.00    +0.000 HD
DOCKED: ATOM      3  H   UNL     1      20.591  -7.089  -6.631 +0.00 -0.00    +0.000 HD
DOCKED: ENDROOT
DOCKED: BRANCH   1   4
DOCKED: ATOM      4  C   UNL     1      21.666  -8.374  -5.490 -0.25 -0.00    +0.000 C 
DOCKED: BRANCH   4   8
DOCKED: ATOM      5  C   UNL     1      20.917  -9.582  -1.405 -0.55 -0.00    +0.000 A 
DOCKED: ATOM      6  C   UNL     1      20.793 -10.508  -2.460 -0.48 -0.00    +0.000 A 
DOCKED: ATOM      7  C   UNL     1      21.024 -10.111  -3.781 -0.43 -0.00    +0.000 A 
DOCKED: ATOM      8  C   UNL     1      21.380  -8.787  -4.073 -0.34 -0.00    +0.000 A 
DOCKED: ATOM      9  C   UNL     1      21.537  -7.871  -3.023 -0.33 -0.00    +0.000 A 
DOCKED: ATOM     10  C   UNL     1      21.308  -8.265  -1.703 -0.44 -0.00    +0.000 A 
DOCKED: BRANCH   5  12
DOCKED: ATOM     11  C   UNL     1      20.464 -11.207   0.430 -0.67 -0.00    +0.000 C 
DOCKED: ATOM     12  C   UNL     1      20.695  -9.952   0.015 -0.65 -0.00    +0.000 C 
DOCKED: BRANCH  11  14
DOCKED: ATOM     13  O   UNL     1      19.888 -12.747   2.115 -1.60 -0.00    +0.000 OA
DOCKED: ATOM     14  C   UNL     1      20.242 -11.568   1.844 -0.78 -0.00    +0.000 C 
DOCKED: ATOM     15  N   UNL     1      20.387 -10.621   2.910 -0.66 -0.00    +0.000 N 
DOCKED: ATOM     16  O   UNL     1      20.276 -11.026   4.197 -1.05 -0.00    +0.000 OA
DOCKED: ATOM     17  H   UNL     1      20.569  -9.676   2.706 -0.56 -0.00    +0.000 HD
DOCKED: ENDBRANCH  11  14
DOCKED: ENDBRANCH   5  12
DOCKED: ENDBRANCH   4   8
DOCKED: ENDBRANCH   1   4
DOCKED: BRANCH   1  18
DOCKED: ATOM     18  C   UNL     1      19.330  -7.739  -5.179 -0.17 -0.00    +0.000 C 
DOCKED: BRANCH  18  19
DOCKED: ATOM     19  C   UNL     1      17.938  -7.840  -5.824 -0.12 -0.00    +0.000 C 
DOCKED: BRANCH  19  20
DOCKED: ATOM     20  C   UNL     1      17.262  -9.117  -5.414 -0.14 -0.00    +0.000 A 
DOCKED: ATOM     21  C   UNL     1      17.456 -10.390  -5.952 -0.24 -0.00    +0.000 A 
DOCKED: ATOM     22  N   UNL     1      16.620 -11.286  -5.375 -0.25 -0.00    +0.000 N 
DOCKED: ATOM     23  C   UNL     1      15.885 -10.588  -4.492 -0.20 -0.00    +0.000 A 
DOCKED: ATOM     24  C   UNL     1      16.242  -9.262  -4.492 -0.17 -0.00    +0.000 A 
DOCKED: ATOM     25  C   UNL     1      15.601  -8.331  -3.673 -0.13 -0.00    +0.000 A 
DOCKED: ATOM     26  C   UNL     1      14.574  -8.793  -2.831 -0.17 -0.00    +0.000 A 
DOCKED: ATOM     27  C   UNL     1      14.211 -10.159  -2.828 -0.24 -0.00    +0.000 A 
DOCKED: ATOM     28  C   UNL     1      14.870 -11.073  -3.669 -0.23 -0.00    +0.000 A 
DOCKED: ATOM     29  C   UNL     1      18.450 -10.748  -7.010 -0.33 -0.00    +0.000 C 
DOCKED: ATOM     30  H   UNL     1      16.563 -12.251  -5.564 -0.02 +0.00    +0.000 HD
DOCKED: ENDBRANCH  19  20
DOCKED: ENDBRANCH  18  19
DOCKED: ENDBRANCH   1  18
DOCKED: TORSDOF 7
DOCKED: TER
DOCKED: ENDMDL
________________________________________________________________________________


	BEGINNING GENETIC ALGORITHM DOCKING 17 of 100
Run: 17 Seed: 634612054 390699705 [ Run 17 of 100 GA/GALS ]
Beginning LAMARCKIAN GENETIC ALGORITHM (LGA), with a maximum of 2500000 energy evaluations.

Final-Value: -13.034


	FINAL GENETIC ALGORITHM DOCKED STATE
	_______________________________________________


Detailed state:  trans 19.306 -7.736 -5.603 quatxyzw 0.668265 0.176611 -0.241939 0.680953 center 0.576 -0.005 0.140 ntor 7 94.5330 143.3331 79.5053 17.8204 -21.6996 36.2155 105.2885
State:	 19.306  -7.736  -5.603   0.913  0.241 -0.330 94.164     94.53  143.33   79.51   17.82  -21.70   36.22  105.29

DOCKED: MODEL       17
DOCKED: USER    Run = 17
DOCKED: USER    DPF = ligand_dock.biased.dpf
DOCKED: USER  
DOCKED: USER    Estimated Free Energy of Binding    =  -10.02 kcal/mol  [=(1)+(2)+(3)-(4)]
DOCKED: USER    Estimated Inhibition Constant, Ki   =   45.46 nM (nanomolar)  [Temperature = 298.15 K]
DOCKED: USER    
DOCKED: USER    (1) Final Intermolecular Energy     =  -12.10 kcal/mol
DOCKED: USER        vdW + Hbond + desolv Energy     =  -12.10 kcal/mol
DOCKED: USER        Electrostatic Energy            =   +0.00 kcal/mol
DOCKED: USER    (2) Final Total Internal Energy     =   -0.93 kcal/mol
DOCKED: USER    (3) Torsional Free Energy           =   +2.09 kcal/mol
DOCKED: USER    (4) Unbound System's Energy  [=(2)] =   -0.93 kcal/mol
DOCKED: USER    
DOCKED: USER    
DOCKED: USER    NEWDPF move ligand.pdbqt
DOCKED: USER    NEWDPF about 0.576000 -0.005000 0.140000
DOCKED: USER    NEWDPF tran0 19.306086 -7.736288 -5.602854
DOCKED: USER    NEWDPF quaternion0 0.668265 0.176611 -0.241939 0.680953
DOCKED: USER    NEWDPF axisangle0 0.912522 0.241164 -0.330370 94.163749
DOCKED: USER    NEWDPF quat0 0.912522 0.241164 -0.330370 94.163749
DOCKED: USER    NEWDPF dihe0 94.53 143.33 79.51 17.82 -21.70 36.22 105.29 
DOCKED: USER  keepresnum = 1 
DOCKED: USER  
DOCKED: REMARK  Name = 
DOCKED: REMARK  8 active torsions:
DOCKED: REMARK  status: ('A' for Active; 'I' for Inactive)
DOCKED: REMARK    1  A    between atoms: C_2  and  C_3
DOCKED: REMARK    2  A    between atoms: C_4  and  C_5
DOCKED: REMARK    3  A    between atoms: C_8  and  C_9
DOCKED: REMARK    4  A    between atoms: C_9  and  N_10
DOCKED: REMARK    5  A    between atoms: N_10  and  C_11
DOCKED: REMARK    6  A    between atoms: C_11  and  C_12
DOCKED: REMARK    7  A    between atoms: C_12  and  C_13
DOCKED: REMARK    8  A    between atoms: C_14  and  C_22
DOCKED: REMARK                            x       y       z     vdW  Elec       q    Type
DOCKED: REMARK                         _______ _______ _______ _____ _____    ______ ____
DOCKED: USER                              x       y       z     vdW  Elec       q    Type
DOCKED: USER                           _______ _______ _______ _____ _____    ______ ____
DOCKED: ROOT
DOCKED: ATOM      1  N   UNL     1      18.540  -7.886  -5.651 -0.12 -0.00    +0.000 N 
DOCKED: ATOM      2  H   UNL     1      18.540  -7.155  -6.362 +0.00 -0.00    +0.000 HD
DOCKED: ATOM      3  H   UNL     1      18.392  -7.501  -4.718 -0.01 -0.00    +0.000 HD
DOCKED: ENDROOT
DOCKED: BRANCH   1   4
DOCKED: ATOM      4  C   UNL     1      19.850  -8.550  -5.658 -0.17 -0.00    +0.000 C 
DOCKED: BRANCH   4   8
DOCKED: ATOM      5  C   UNL     1      20.653 -10.033  -1.675 -0.52 -0.00    +0.000 A 
DOCKED: ATOM      6  C   UNL     1      21.368  -8.931  -2.187 -0.45 -0.00    +0.000 A 
DOCKED: ATOM      7  C   UNL     1      21.114  -8.462  -3.479 -0.36 -0.00    +0.000 A 
DOCKED: ATOM      8  C   UNL     1      20.148  -9.083  -4.284 -0.27 -0.00    +0.000 A 
DOCKED: ATOM      9  C   UNL     1      19.411 -10.158  -3.765 -0.33 -0.00    +0.000 A 
DOCKED: ATOM     10  C   UNL     1      19.663 -10.627  -2.474 -0.40 -0.00    +0.000 A 
DOCKED: BRANCH   5  12
DOCKED: ATOM     11  C   UNL     1      19.914 -10.632   0.629 -0.63 -0.00    +0.000 C 
DOCKED: ATOM     12  C   UNL     1      20.874 -10.564  -0.307 -0.68 -0.00    +0.000 C 
DOCKED: BRANCH  11  14
DOCKED: ATOM     13  O   UNL     1      20.365 -12.392   2.126 -1.88 -0.00    +0.000 OA
DOCKED: ATOM     14  C   UNL     1      20.140 -11.160   1.989 -0.74 -0.00    +0.000 C 
DOCKED: ATOM     15  N   UNL     1      20.084 -10.328   3.155 -0.62 -0.00    +0.000 N 
DOCKED: ATOM     16  O   UNL     1      20.401 -10.837   4.368 -0.90 -0.00    +0.000 OA
DOCKED: ATOM     17  H   UNL     1      19.815  -9.385   3.072 -0.58 -0.00    +0.000 HD
DOCKED: ENDBRANCH  11  14
DOCKED: ENDBRANCH   5  12
DOCKED: ENDBRANCH   4   8
DOCKED: ENDBRANCH   1   4
DOCKED: BRANCH   1  18
DOCKED: ATOM     18  C   UNL     1      17.439  -8.819  -5.932 -0.13 -0.00    +0.000 C 
DOCKED: BRANCH  18  19
DOCKED: ATOM     19  C   UNL     1      16.570  -9.094  -4.694 -0.18 -0.00    +0.000 C 
DOCKED: BRANCH  19  20
DOCKED: ATOM     20  C   UNL     1      15.679 -10.279  -4.933 -0.20 -0.00    +0.000 A 
DOCKED: ATOM     21  C   UNL     1      14.895 -10.954  -3.996 -0.25 -0.00    +0.000 A 
DOCKED: ATOM     22  N   UNL     1      14.278 -12.017  -4.564 -0.25 -0.00    +0.000 N 
DOCKED: ATOM     23  C   UNL     1      14.682 -12.034  -5.846 -0.27 -0.00    +0.000 A 
DOCKED: ATOM     24  C   UNL     1      15.541 -10.996  -6.107 -0.23 -0.00    +0.000 A 
DOCKED: ATOM     25  C   UNL     1      16.113 -10.818  -7.367 -0.22 -0.00    +0.000 A 
DOCKED: ATOM     26  C   UNL     1      15.776 -11.736  -8.378 -0.25 -0.00    +0.000 A 
DOCKED: ATOM     27  C   UNL     1      14.888 -12.801  -8.109 -0.37 -0.00    +0.000 A 
DOCKED: ATOM     28  C   UNL     1      14.331 -12.960  -6.828 -0.35 -0.00    +0.000 A 
DOCKED: ATOM     29  C   UNL     1      14.728 -10.570  -2.560 -0.30 -0.00    +0.000 C 
DOCKED: ATOM     30  H   UNL     1      13.661 -12.648  -4.127 -0.44 -0.00    +0.000 HD
DOCKED: ENDBRANCH  19  20
DOCKED: ENDBRANCH  18  19
DOCKED: ENDBRANCH   1  18
DOCKED: TORSDOF 7
DOCKED: TER
DOCKED: ENDMDL
________________________________________________________________________________


	BEGINNING GENETIC ALGORITHM DOCKING 18 of 100
Run: 18 Seed: 1224102468 110032119 [ Run 18 of 100 GA/GALS ]
Beginning LAMARCKIAN GENETIC ALGORITHM (LGA), with a maximum of 2500000 energy evaluations.

Final-Value: -13.600


	FINAL GENETIC ALGORITHM DOCKED STATE
	_______________________________________________


Detailed state:  trans 20.408 -10.498 3.108 quatxyzw -0.427442 -0.047419 0.195661 -0.881341 center 0.576 -0.005 0.140 ntor 7 88.1960 -15.0398 0.8145 1.5634 1.8021 157.6992 -107.2448
State:	 20.408 -10.498   3.108  -0.905 -0.100  0.414 -56.391     88.20  -15.04    0.81    1.56    1.80  157.70 -107.24

DOCKED: MODEL       18
DOCKED: USER    Run = 18
DOCKED: USER    DPF = ligand_dock.biased.dpf
DOCKED: USER  
DOCKED: USER    Estimated Free Energy of Binding    =   -9.88 kcal/mol  [=(1)+(2)+(3)-(4)]
DOCKED: USER    Estimated Inhibition Constant, Ki   =   57.68 nM (nanomolar)  [Temperature = 298.15 K]
DOCKED: USER    
DOCKED: USER    (1) Final Intermolecular Energy     =  -11.96 kcal/mol
DOCKED: USER        vdW + Hbond + desolv Energy     =  -11.96 kcal/mol
DOCKED: USER        Electrostatic Energy            =   +0.00 kcal/mol
DOCKED: USER    (2) Final Total Internal Energy     =   -1.64 kcal/mol
DOCKED: USER    (3) Torsional Free Energy           =   +2.09 kcal/mol
DOCKED: USER    (4) Unbound System's Energy  [=(2)] =   -1.64 kcal/mol
DOCKED: USER    
DOCKED: USER    
DOCKED: USER    NEWDPF move ligand.pdbqt
DOCKED: USER    NEWDPF about 0.576000 -0.005000 0.140000
DOCKED: USER    NEWDPF tran0 20.408257 -10.498500 3.108308
DOCKED: USER    NEWDPF quaternion0 -0.427442 -0.047419 0.195661 -0.881341
DOCKED: USER    NEWDPF axisangle0 -0.904676 -0.100361 0.414113 -56.390969
DOCKED: USER    NEWDPF quat0 -0.904676 -0.100361 0.414113 -56.390969
DOCKED: USER    NEWDPF dihe0 88.20 -15.04 0.81 1.56 1.80 157.70 -107.24 
DOCKED: USER  keepresnum = 1 
DOCKED: USER  
DOCKED: REMARK  Name = 
DOCKED: REMARK  8 active torsions:
DOCKED: REMARK  status: ('A' for Active; 'I' for Inactive)
DOCKED: REMARK    1  A    between atoms: C_2  and  C_3
DOCKED: REMARK    2  A    between atoms: C_4  and  C_5
DOCKED: REMARK    3  A    between atoms: C_8  and  C_9
DOCKED: REMARK    4  A    between atoms: C_9  and  N_10
DOCKED: REMARK    5  A    between atoms: N_10  and  C_11
DOCKED: REMARK    6  A    between atoms: C_11  and  C_12
DOCKED: REMARK    7  A    between atoms: C_12  and  C_13
DOCKED: REMARK    8  A    between atoms: C_14  and  C_22
DOCKED: REMARK                            x       y       z     vdW  Elec       q    Type
DOCKED: REMARK                         _______ _______ _______ _____ _____    ______ ____
DOCKED: USER                              x       y       z     vdW  Elec       q    Type
DOCKED: USER                           _______ _______ _______ _____ _____    ______ ____
DOCKED: ROOT
DOCKED: ATOM      1  N   UNL     1      19.643 -10.479   3.267 -0.64 -0.00    +0.000 N 
DOCKED: ATOM      2  H   UNL     1      19.720  -9.486   3.048 -0.54 -0.00    +0.000 HD
DOCKED: ATOM      3  H   UNL     1      19.829 -10.659   4.254 -0.05 -0.00    +0.000 HD
DOCKED: ENDROOT
DOCKED: BRANCH   1   4
DOCKED: ATOM      4  C   UNL     1      20.642 -11.215   2.482 -0.66 -0.00    +0.000 C 
DOCKED: BRANCH   4   8
DOCKED: ATOM      5  C   UNL     1      19.806 -10.597  -1.716 -0.43 -0.00    +0.000 A 
DOCKED: ATOM      6  C   UNL     1      19.149 -11.616  -0.997 -0.28 -0.00    +0.000 A 
DOCKED: ATOM      7  C   UNL     1      19.431 -11.821   0.357 -0.51 -0.00    +0.000 A 
DOCKED: ATOM      8  C   UNL     1      20.372 -11.017   1.017 -0.63 -0.00    +0.000 A 
DOCKED: ATOM      9  C   UNL     1      21.002  -9.981   0.313 -0.59 -0.00    +0.000 A 
DOCKED: ATOM     10  C   UNL     1      20.722  -9.774  -1.039 -0.56 -0.00    +0.000 A 
DOCKED: BRANCH   5  12
DOCKED: ATOM     11  C   UNL     1      19.303 -11.289  -4.057 -0.40 -0.00    +0.000 C 
DOCKED: ATOM     12  C   UNL     1      19.536 -10.328  -3.151 -0.42 -0.00    +0.000 C 
DOCKED: BRANCH  11  14
DOCKED: ATOM     13  O   UNL     1      17.907 -10.566  -5.809 -0.29 -0.00    +0.000 OA
DOCKED: ATOM     14  C   UNL     1      19.038 -11.015  -5.484 -0.40 -0.00    +0.000 C 
DOCKED: ATOM     15  N   UNL     1      20.009 -11.268  -6.507 -0.29 -0.00    +0.000 N 
DOCKED: ATOM     16  O   UNL     1      19.757 -10.903  -7.786 -0.34 -0.00    +0.000 OA
DOCKED: ATOM     17  H   UNL     1      20.859 -11.708  -6.279 -0.38 -0.00    +0.000 HD
DOCKED: ENDBRANCH  11  14
DOCKED: ENDBRANCH   5  12
DOCKED: ENDBRANCH   4   8
DOCKED: ENDBRANCH   1   4
DOCKED: BRANCH   1  18
DOCKED: ATOM     18  C   UNL     1      18.270 -10.922   2.981 -0.53 -0.00    +0.000 C 
DOCKED: BRANCH  18  19
DOCKED: ATOM     19  C   UNL     1      17.329  -9.750   2.658 -0.45 +0.00    +0.000 C 
DOCKED: BRANCH  19  20
DOCKED: ATOM     20  C   UNL     1      15.960 -10.259   2.308 -0.36 +0.00    +0.000 A 
DOCKED: ATOM     21  C   UNL     1      14.885 -10.466   3.175 -0.40 +0.00    +0.000 A 
DOCKED: ATOM     22  N   UNL     1      13.832 -10.999   2.511 -0.38 +0.00    +0.000 N 
DOCKED: ATOM     23  C   UNL     1      14.237 -11.151   1.239 -0.34 +0.00    +0.000 A 
DOCKED: ATOM     24  C   UNL     1      15.530 -10.718   1.077 -0.30 +0.00    +0.000 A 
DOCKED: ATOM     25  C   UNL     1      16.181 -10.798  -0.155 -0.29 +0.00    +0.000 A 
DOCKED: ATOM     26  C   UNL     1      15.466 -11.331  -1.242 -0.30 +0.00    +0.000 A 
DOCKED: ATOM     27  C   UNL     1      14.134 -11.771  -1.076 -0.35 +0.00    +0.000 A 
DOCKED: ATOM     28  C   UNL     1      13.506 -11.685   0.179 -0.37 +0.00    +0.000 A 
DOCKED: ATOM     29  C   UNL     1      14.866 -10.141   4.634 -0.45 +0.00    +0.000 C 
DOCKED: ATOM     30  H   UNL     1      12.950 -11.229   2.885 -0.04 +0.00    +0.000 HD
DOCKED: ENDBRANCH  19  20
DOCKED: ENDBRANCH  18  19
DOCKED: ENDBRANCH   1  18
DOCKED: TORSDOF 7
DOCKED: TER
DOCKED: ENDMDL
________________________________________________________________________________


	BEGINNING GENETIC ALGORITHM DOCKING 19 of 100
Run: 19 Seed: 719337595 2011271444 [ Run 19 of 100 GA/GALS ]
Beginning LAMARCKIAN GENETIC ALGORITHM (LGA), with a maximum of 2500000 energy evaluations.

Final-Value: -13.473


	FINAL GENETIC ALGORITHM DOCKED STATE
	_______________________________________________


Detailed state:  trans 13.035 -12.083 0.203 quatxyzw -0.262767 -0.593514 0.729655 0.215171 center 0.576 -0.005 0.140 ntor 7 -175.8357 150.8244 -131.5028 -6.5769 34.9250 -109.6793 138.1305
State:	 13.035 -12.083   0.203  -0.269 -0.608  0.747 155.149   -175.84  150.82 -131.50   -6.58   34.92 -109.68  138.13

DOCKED: MODEL       19
DOCKED: USER    Run = 19
DOCKED: USER    DPF = ligand_dock.biased.dpf
DOCKED: USER  
DOCKED: USER    Estimated Free Energy of Binding    =   -9.92 kcal/mol  [=(1)+(2)+(3)-(4)]
DOCKED: USER    Estimated Inhibition Constant, Ki   =   53.70 nM (nanomolar)  [Temperature = 298.15 K]
DOCKED: USER    
DOCKED: USER    (1) Final Intermolecular Energy     =  -12.01 kcal/mol
DOCKED: USER        vdW + Hbond + desolv Energy     =  -12.01 kcal/mol
DOCKED: USER        Electrostatic Energy            =   +0.00 kcal/mol
DOCKED: USER    (2) Final Total Internal Energy     =   -1.47 kcal/mol
DOCKED: USER    (3) Torsional Free Energy           =   +2.09 kcal/mol
DOCKED: USER    (4) Unbound System's Energy  [=(2)] =   -1.47 kcal/mol
DOCKED: USER    
DOCKED: USER    
DOCKED: USER    NEWDPF move ligand.pdbqt
DOCKED: USER    NEWDPF about 0.576000 -0.005000 0.140000
DOCKED: USER    NEWDPF tran0 13.035069 -12.082681 0.203205
DOCKED: USER    NEWDPF quaternion0 -0.262767 -0.593514 0.729655 0.215171
DOCKED: USER    NEWDPF axisangle0 -0.269069 -0.607749 0.747156 155.148893
DOCKED: USER    NEWDPF quat0 -0.269069 -0.607749 0.747156 155.148893
DOCKED: USER    NEWDPF dihe0 -175.84 150.82 -131.50 -6.58 34.92 -109.68 138.13 
DOCKED: USER  keepresnum = 1 
DOCKED: USER  
DOCKED: REMARK  Name = 
DOCKED: REMARK  8 active torsions:
DOCKED: REMARK  status: ('A' for Active; 'I' for Inactive)
DOCKED: REMARK    1  A    between atoms: C_2  and  C_3
DOCKED: REMARK    2  A    between atoms: C_4  and  C_5
DOCKED: REMARK    3  A    between atoms: C_8  and  C_9
DOCKED: REMARK    4  A    between atoms: C_9  and  N_10
DOCKED: REMARK    5  A    between atoms: N_10  and  C_11
DOCKED: REMARK    6  A    between atoms: C_11  and  C_12
DOCKED: REMARK    7  A    between atoms: C_12  and  C_13
DOCKED: REMARK    8  A    between atoms: C_14  and  C_22
DOCKED: REMARK                            x       y       z     vdW  Elec       q    Type
DOCKED: REMARK                         _______ _______ _______ _____ _____    ______ ____
DOCKED: USER                              x       y       z     vdW  Elec       q    Type
DOCKED: USER                           _______ _______ _______ _____ _____    ______ ____
DOCKED: ROOT
DOCKED: ATOM      1  N   UNL     1      13.617 -12.405   0.613 -0.43 +0.00    +0.000 N 
DOCKED: ATOM      2  H   UNL     1      13.619 -13.108  -0.125 -0.03 +0.00    +0.000 HD
DOCKED: ATOM      3  H   UNL     1      12.971 -12.653   1.363 -0.34 +0.00    +0.000 HD
DOCKED: ENDROOT
DOCKED: BRANCH   1   4
DOCKED: ATOM      4  C   UNL     1      13.175 -11.125   0.046 -0.36 +0.00    +0.000 C 
DOCKED: BRANCH   4   8
DOCKED: ATOM      5  C   UNL     1      13.503  -8.077   3.097 -0.18 +0.00    +0.000 A 
DOCKED: ATOM      6  C   UNL     1      12.803  -9.274   3.351 -0.20 +0.00    +0.000 A 
DOCKED: ATOM      7  C   UNL     1      12.689 -10.252   2.359 -0.20 +0.00    +0.000 A 
DOCKED: ATOM      8  C   UNL     1      13.266 -10.054   1.097 -0.20 +0.00    +0.000 A 
DOCKED: ATOM      9  C   UNL     1      13.993  -8.880   0.851 -0.19 +0.00    +0.000 A 
DOCKED: ATOM     10  C   UNL     1      14.109  -7.902   1.841 -0.21 +0.00    +0.000 A 
DOCKED: BRANCH   5  12
DOCKED: ATOM     11  C   UNL     1      14.850  -6.478   4.453 -0.42 +0.00    +0.000 C 
DOCKED: ATOM     12  C   UNL     1      13.666  -7.012   4.117 -0.27 +0.00    +0.000 C 
DOCKED: BRANCH  11  14
DOCKED: ATOM     13  O   UNL     1      14.092  -5.267   6.324 -1.04 +0.00    +0.000 OA
DOCKED: ATOM     14  C   UNL     1      15.006  -5.419   5.471 -0.46 +0.00    +0.000 C 
DOCKED: ATOM     15  N   UNL     1      16.143  -4.546   5.503 -0.49 -0.00    +0.000 N 
DOCKED: ATOM     16  O   UNL     1      16.290  -3.662   6.516 -0.69 +0.00    +0.000 OA
DOCKED: ATOM     17  H   UNL     1      16.816  -4.591   4.786 -0.52 -0.00    +0.000 HD
DOCKED: ENDBRANCH  11  14
DOCKED: ENDBRANCH   5  12
DOCKED: ENDBRANCH   4   8
DOCKED: ENDBRANCH   1   4
DOCKED: BRANCH   1  18
DOCKED: ATOM     18  C   UNL     1      14.966 -12.324   1.192 -0.48 +0.00    +0.000 C 
DOCKED: BRANCH  18  19
DOCKED: ATOM     19  C   UNL     1      15.900 -11.409   0.384 -0.40 +0.00    +0.000 C 
DOCKED: BRANCH  19  20
DOCKED: ATOM     20  C   UNL     1      17.167 -11.148   1.148 -0.38 +0.00    +0.000 A 
DOCKED: ATOM     21  C   UNL     1      17.297 -10.894   2.514 -0.43 +0.00    +0.000 A 
DOCKED: ATOM     22  N   UNL     1      18.587 -10.638   2.833 -0.55 -0.00    +0.000 N 
DOCKED: ATOM     23  C   UNL     1      19.272 -10.707   1.679 -0.54 -0.00    +0.000 A 
DOCKED: ATOM     24  C   UNL     1      18.440 -11.008   0.629 -0.44 -0.00    +0.000 A 
DOCKED: ATOM     25  C   UNL     1      18.918 -11.111  -0.679 -0.43 -0.00    +0.000 A 
DOCKED: ATOM     26  C   UNL     1      20.292 -10.903  -0.894 -0.45 -0.00    +0.000 A 
DOCKED: ATOM     27  C   UNL     1      21.148 -10.598   0.188 -0.60 -0.00    +0.000 A 
DOCKED: ATOM     28  C   UNL     1      20.638 -10.495   1.494 -0.51 -0.00    +0.000 A 
DOCKED: ATOM     29  C   UNL     1      16.184 -10.909   3.514 -0.53 +0.00    +0.000 C 
DOCKED: ATOM     30  H   UNL     1      18.950 -10.442   3.728 -0.02 -0.00    +0.000 HD
DOCKED: ENDBRANCH  19  20
DOCKED: ENDBRANCH  18  19
DOCKED: ENDBRANCH   1  18
DOCKED: TORSDOF 7
DOCKED: TER
DOCKED: ENDMDL
________________________________________________________________________________


	BEGINNING GENETIC ALGORITHM DOCKING 20 of 100
Run: 20 Seed: 350726791 1807018261 [ Run 20 of 100 GA/GALS ]
Beginning LAMARCKIAN GENETIC ALGORITHM (LGA), with a maximum of 2500000 energy evaluations.

Final-Value: -13.487


	FINAL GENETIC ALGORITHM DOCKED STATE
	_______________________________________________


Detailed state:  trans 18.386 -11.163 -7.072 quatxyzw 0.476282 -0.398749 0.237362 -0.746869 center 0.576 -0.005 0.140 ntor 7 -180.0000 175.2924 -168.9775 136.6086 -54.7951 -157.4450 -23.5983
State:	 18.386 -11.163  -7.072   0.716 -0.600  0.357 -83.360   -180.00  175.29 -168.98  136.61  -54.80 -157.45  -23.60

DOCKED: MODEL       20
DOCKED: USER    Run = 20
DOCKED: USER    DPF = ligand_dock.biased.dpf
DOCKED: USER  
DOCKED: USER    Estimated Free Energy of Binding    =   -9.13 kcal/mol  [=(1)+(2)+(3)-(4)]
DOCKED: USER    Estimated Inhibition Constant, Ki   =  202.57 nM (nanomolar)  [Temperature = 298.15 K]
DOCKED: USER    
DOCKED: USER    (1) Final Intermolecular Energy     =  -11.22 kcal/mol
DOCKED: USER        vdW + Hbond + desolv Energy     =  -11.22 kcal/mol
DOCKED: USER        Electrostatic Energy            =   +0.00 kcal/mol
DOCKED: USER    (2) Final Total Internal Energy     =   -2.27 kcal/mol
DOCKED: USER    (3) Torsional Free Energy           =   +2.09 kcal/mol
DOCKED: USER    (4) Unbound System's Energy  [=(2)] =   -2.27 kcal/mol
DOCKED: USER    
DOCKED: USER    
DOCKED: USER    NEWDPF move ligand.pdbqt
DOCKED: USER    NEWDPF about 0.576000 -0.005000 0.140000
DOCKED: USER    NEWDPF tran0 18.386435 -11.162802 -7.071754
DOCKED: USER    NEWDPF quaternion0 0.476282 -0.398749 0.237362 -0.746869
DOCKED: USER    NEWDPF axisangle0 0.716245 -0.599649 0.356951 -83.360169
DOCKED: USER    NEWDPF quat0 0.716245 -0.599649 0.356951 -83.360169
DOCKED: USER    NEWDPF dihe0 -180.00 175.29 -168.98 136.61 -54.80 -157.45 -23.60 
DOCKED: USER  keepresnum = 1 
DOCKED: USER  
DOCKED: REMARK  Name = 
DOCKED: REMARK  8 active torsions:
DOCKED: REMARK  status: ('A' for Active; 'I' for Inactive)
DOCKED: REMARK    1  A    between atoms: C_2  and  C_3
DOCKED: REMARK    2  A    between atoms: C_4  and  C_5
DOCKED: REMARK    3  A    between atoms: C_8  and  C_9
DOCKED: REMARK    4  A    between atoms: C_9  and  N_10
DOCKED: REMARK    5  A    between atoms: N_10  and  C_11
DOCKED: REMARK    6  A    between atoms: C_11  and  C_12
DOCKED: REMARK    7  A    between atoms: C_12  and  C_13
DOCKED: REMARK    8  A    between atoms: C_14  and  C_22
DOCKED: REMARK                            x       y       z     vdW  Elec       q    Type
DOCKED: REMARK                         _______ _______ _______ _____ _____    ______ ____
DOCKED: USER                              x       y       z     vdW  Elec       q    Type
DOCKED: USER                           _______ _______ _______ _____ _____    ______ ____
DOCKED: ROOT
DOCKED: ATOM      1  N   UNL     1      17.781 -11.368  -7.521 -0.35 -0.00    +0.000 N 
DOCKED: ATOM      2  H   UNL     1      17.324 -11.592  -6.637 -0.03 -0.00    +0.000 HD
DOCKED: ATOM      3  H   UNL     1      18.303 -12.166  -7.884 -0.03 -0.00    +0.000 HD
DOCKED: ENDROOT
DOCKED: BRANCH   1   4
DOCKED: ATOM      4  C   UNL     1      18.735 -10.275  -7.297 -0.27 -0.00    +0.000 C 
DOCKED: BRANCH   4   8
DOCKED: ATOM      5  C   UNL     1      19.763 -10.163  -3.097 -0.38 -0.00    +0.000 A 
DOCKED: ATOM      6  C   UNL     1      19.596  -8.968  -3.826 -0.24 -0.00    +0.000 A 
DOCKED: ATOM      7  C   UNL     1      19.275  -9.008  -5.186 -0.18 -0.00    +0.000 A 
DOCKED: ATOM      8  C   UNL     1      19.119 -10.237  -5.843 -0.26 -0.00    +0.000 A 
DOCKED: ATOM      9  C   UNL     1      19.251 -11.427  -5.114 -0.39 -0.00    +0.000 A 
DOCKED: ATOM     10  C   UNL     1      19.571 -11.389  -3.755 -0.36 -0.00    +0.000 A 
DOCKED: BRANCH   5  12
DOCKED: ATOM     11  C   UNL     1      19.753 -11.178  -0.821 -0.43 -0.00    +0.000 C 
DOCKED: ATOM     12  C   UNL     1      20.092 -10.179  -1.650 -0.52 -0.00    +0.000 C 
DOCKED: BRANCH  11  14
DOCKED: ATOM     13  O   UNL     1      20.415 -10.103   1.166 -0.67 -0.00    +0.000 OA
DOCKED: ATOM     14  C   UNL     1      20.081 -11.187   0.619 -0.68 -0.00    +0.000 C 
DOCKED: ATOM     15  N   UNL     1      20.058 -12.386   1.404 -0.69 -0.00    +0.000 N 
DOCKED: ATOM     16  O   UNL     1      20.264 -12.326   2.740 -1.85 -0.00    +0.000 OA
DOCKED: ATOM     17  H   UNL     1      19.893 -13.254   0.970 -0.60 -0.00    +0.000 HD
DOCKED: ENDBRANCH  11  14
DOCKED: ENDBRANCH   5  12
DOCKED: ENDBRANCH   4   8
DOCKED: ENDBRANCH   1   4
DOCKED: BRANCH   1  18
DOCKED: ATOM     18  C   UNL     1      16.751 -11.017  -8.510 -0.20 -0.00    +0.000 C 
DOCKED: BRANCH  18  19
DOCKED: ATOM     19  C   UNL     1      15.574 -10.248  -7.889 -0.15 -0.00    +0.000 C 
DOCKED: BRANCH  19  20
DOCKED: ATOM     20  C   UNL     1      15.102 -10.934  -6.639 -0.20 -0.00    +0.000 A 
DOCKED: ATOM     21  C   UNL     1      14.293 -12.068  -6.547 -0.29 -0.00    +0.000 A 
DOCKED: ATOM     22  N   UNL     1      14.019 -12.357  -5.253 -0.22 -0.00    +0.000 N 
DOCKED: ATOM     23  C   UNL     1      14.629 -11.405  -4.526 -0.25 -0.00    +0.000 A 
DOCKED: ATOM     24  C   UNL     1      15.294 -10.516  -5.335 -0.20 -0.00    +0.000 A 
DOCKED: ATOM     25  C   UNL     1      15.985  -9.423  -4.810 -0.16 -0.00    +0.000 A 
DOCKED: ATOM     26  C   UNL     1      15.991  -9.259  -3.413 -0.19 -0.00    +0.000 A 
DOCKED: ATOM     27  C   UNL     1      15.312 -10.177  -2.582 -0.24 -0.00    +0.000 A 
DOCKED: ATOM     28  C   UNL     1      14.618 -11.266  -3.139 -0.27 -0.00    +0.000 A 
DOCKED: ATOM     29  C   UNL     1      13.794 -12.879  -7.700 -0.35 -0.00    +0.000 C 
DOCKED: ATOM     30  H   UNL     1      13.483 -13.110  -4.914 -0.57 -0.00    +0.000 HD
DOCKED: ENDBRANCH  19  20
DOCKED: ENDBRANCH  18  19
DOCKED: ENDBRANCH   1  18
DOCKED: TORSDOF 7
DOCKED: TER
DOCKED: ENDMDL
________________________________________________________________________________


	BEGINNING GENETIC ALGORITHM DOCKING 21 of 100
Run: 21 Seed: 91087446 1537834428 [ Run 21 of 100 GA/GALS ]
Beginning LAMARCKIAN GENETIC ALGORITHM (LGA), with a maximum of 2500000 energy evaluations.

Final-Value: -12.895


	FINAL GENETIC ALGORITHM DOCKED STATE
	_______________________________________________


Detailed state:  trans 12.597 -7.582 5.506 quatxyzw 0.709711 0.325298 0.104604 0.616076 center 0.576 -0.005 0.140 ntor 7 16.5216 3.5179 0.7948 168.4047 -62.2574 64.0694 -86.5479
State:	 12.597  -7.582   5.506   0.901  0.413  0.133 103.940     16.52    3.52    0.79  168.40  -62.26   64.07  -86.55

DOCKED: MODEL       21
DOCKED: USER    Run = 21
DOCKED: USER    DPF = ligand_dock.biased.dpf
DOCKED: USER  
DOCKED: USER    Estimated Free Energy of Binding    =   -9.64 kcal/mol  [=(1)+(2)+(3)-(4)]
DOCKED: USER    Estimated Inhibition Constant, Ki   =   85.25 nM (nanomolar)  [Temperature = 298.15 K]
DOCKED: USER    
DOCKED: USER    (1) Final Intermolecular Energy     =  -11.73 kcal/mol
DOCKED: USER        vdW + Hbond + desolv Energy     =  -11.73 kcal/mol
DOCKED: USER        Electrostatic Energy            =   +0.00 kcal/mol
DOCKED: USER    (2) Final Total Internal Energy     =   -1.16 kcal/mol
DOCKED: USER    (3) Torsional Free Energy           =   +2.09 kcal/mol
DOCKED: USER    (4) Unbound System's Energy  [=(2)] =   -1.16 kcal/mol
DOCKED: USER    
DOCKED: USER    
DOCKED: USER    NEWDPF move ligand.pdbqt
DOCKED: USER    NEWDPF about 0.576000 -0.005000 0.140000
DOCKED: USER    NEWDPF tran0 12.597292 -7.581999 5.505872
DOCKED: USER    NEWDPF quaternion0 0.709711 0.325298 0.104604 0.616076
DOCKED: USER    NEWDPF axisangle0 0.901007 0.412979 0.132799 103.939719
DOCKED: USER    NEWDPF quat0 0.901007 0.412979 0.132799 103.939719
DOCKED: USER    NEWDPF dihe0 16.52 3.52 0.79 168.40 -62.26 64.07 -86.55 
DOCKED: USER  keepresnum = 1 
DOCKED: USER  
DOCKED: REMARK  Name = 
DOCKED: REMARK  8 active torsions:
DOCKED: REMARK  status: ('A' for Active; 'I' for Inactive)
DOCKED: REMARK    1  A    between atoms: C_2  and  C_3
DOCKED: REMARK    2  A    between atoms: C_4  and  C_5
DOCKED: REMARK    3  A    between atoms: C_8  and  C_9
DOCKED: REMARK    4  A    between atoms: C_9  and  N_10
DOCKED: REMARK    5  A    between atoms: N_10  and  C_11
DOCKED: REMARK    6  A    between atoms: C_11  and  C_12
DOCKED: REMARK    7  A    between atoms: C_12  and  C_13
DOCKED: REMARK    8  A    between atoms: C_14  and  C_22
DOCKED: REMARK                            x       y       z     vdW  Elec       q    Type
DOCKED: REMARK                         _______ _______ _______ _____ _____    ______ ____
DOCKED: USER                              x       y       z     vdW  Elec       q    Type
DOCKED: USER                           _______ _______ _______ _____ _____    ______ ____
DOCKED: ROOT
DOCKED: ATOM      1  N   UNL     1      12.048  -7.533   4.952 -0.24 +0.00    +0.000 N 
DOCKED: ATOM      2  H   UNL     1      12.679  -6.857   4.521 +0.00 +0.00    +0.000 HD
DOCKED: ATOM      3  H   UNL     1      11.408  -7.082   5.606 -0.01 +0.00    +0.000 HD
DOCKED: ENDROOT
DOCKED: BRANCH   1   4
DOCKED: ATOM      4  C   UNL     1      12.845  -8.509   5.706 -0.42 +0.00    +0.000 C 
DOCKED: BRANCH   4   8
DOCKED: ATOM      5  C   UNL     1      16.348  -9.547   3.391 -0.33 +0.00    +0.000 A 
DOCKED: ATOM      6  C   UNL     1      15.760 -10.487   4.261 -0.40 +0.00    +0.000 A 
DOCKED: ATOM      7  C   UNL     1      14.634 -10.144   5.017 -0.24 +0.00    +0.000 A 
DOCKED: ATOM      8  C   UNL     1      14.078  -8.861   4.922 -0.39 +0.00    +0.000 A 
DOCKED: ATOM      9  C   UNL     1      14.641  -7.934   4.032 -0.32 +0.00    +0.000 A 
DOCKED: ATOM     10  C   UNL     1      15.764  -8.275   3.275 -0.24 +0.00    +0.000 A 
DOCKED: BRANCH   5  12
DOCKED: ATOM     11  C   UNL     1      18.368 -10.884   2.805 -0.58 -0.00    +0.000 C 
DOCKED: ATOM     12  C   UNL     1      17.535  -9.862   2.557 -0.47 +0.00    +0.000 C 
DOCKED: BRANCH  11  14
DOCKED: ATOM     13  O   UNL     1      19.890 -12.396   1.834 -1.80 -0.00    +0.000 OA
DOCKED: ATOM     14  C   UNL     1      19.549 -11.191   1.972 -0.70 -0.00    +0.000 C 
DOCKED: ATOM     15  N   UNL     1      20.331 -10.167   1.343 -0.55 -0.00    +0.000 N 
DOCKED: ATOM     16  O   UNL     1      21.340 -10.503   0.506 -0.75 -0.00    +0.000 OA
DOCKED: ATOM     17  H   UNL     1      20.133  -9.220   1.520 -0.33 -0.00    +0.000 HD
DOCKED: ENDBRANCH  11  14
DOCKED: ENDBRANCH   5  12
DOCKED: ENDBRANCH   4   8
DOCKED: ENDBRANCH   1   4
DOCKED: BRANCH   1  18
DOCKED: ATOM     18  C   UNL     1      11.241  -8.165   3.898 -0.17 +0.00    +0.000 C 
DOCKED: BRANCH  18  19
DOCKED: ATOM     19  C   UNL     1       9.813  -7.599   3.829 -0.12 +0.00    +0.000 C 
DOCKED: BRANCH  19  20
DOCKED: ATOM     20  C   UNL     1       9.491  -6.838   5.083 -0.16 +0.00    +0.000 A 
DOCKED: ATOM     21  C   UNL     1       9.677  -5.475   5.319 -0.23 +0.00    +0.000 A 
DOCKED: ATOM     22  N   UNL     1       9.335  -5.158   6.590 -0.42 +0.00    +0.000 N 
DOCKED: ATOM     23  C   UNL     1       8.954  -6.311   7.166 -0.35 +0.00    +0.000 A 
DOCKED: ATOM     24  C   UNL     1       9.042  -7.358   6.282 -0.28 +0.00    +0.000 A 
DOCKED: ATOM     25  C   UNL     1       8.721  -8.663   6.658 -0.41 +0.00    +0.000 A 
DOCKED: ATOM     26  C   UNL     1       8.292  -8.880   7.979 -0.50 +0.00    +0.000 A 
DOCKED: ATOM     27  C   UNL     1       8.196  -7.801   8.887 -0.61 +0.00    +0.000 A 
DOCKED: ATOM     28  C   UNL     1       8.532  -6.497   8.482 -0.42 +0.00    +0.000 A 
DOCKED: ATOM     29  C   UNL     1      10.172  -4.476   4.321 -0.25 +0.00    +0.000 C 
DOCKED: ATOM     30  H   UNL     1       9.360  -4.266   7.006 -0.05 +0.00    +0.000 HD
DOCKED: ENDBRANCH  19  20
DOCKED: ENDBRANCH  18  19
DOCKED: ENDBRANCH   1  18
DOCKED: TORSDOF 7
DOCKED: TER
DOCKED: ENDMDL
________________________________________________________________________________


	BEGINNING GENETIC ALGORITHM DOCKING 22 of 100
Run: 22 Seed: 1741122236 834487432 [ Run 22 of 100 GA/GALS ]
Beginning LAMARCKIAN GENETIC ALGORITHM (LGA), with a maximum of 2500000 energy evaluations.

Final-Value: -13.542


	FINAL GENETIC ALGORITHM DOCKED STATE
	_______________________________________________


Detailed state:  trans 20.610 -5.730 -5.324 quatxyzw -0.390706 -0.638526 0.176526 -0.639119 center 0.576 -0.005 0.140 ntor 7 22.2991 121.6633 -170.2917 94.5363 -6.7407 55.1524 87.5433
State:	 20.610  -5.730  -5.324  -0.508 -0.830  0.230 -100.548     22.30  121.66 -170.29   94.54   -6.74   55.15   87.54

DOCKED: MODEL       22
DOCKED: USER    Run = 22
DOCKED: USER    DPF = ligand_dock.biased.dpf
DOCKED: USER  
DOCKED: USER    Estimated Free Energy of Binding    =   -8.87 kcal/mol  [=(1)+(2)+(3)-(4)]
DOCKED: USER    Estimated Inhibition Constant, Ki   =  317.32 nM (nanomolar)  [Temperature = 298.15 K]
DOCKED: USER    
DOCKED: USER    (1) Final Intermolecular Energy     =  -10.95 kcal/mol
DOCKED: USER        vdW + Hbond + desolv Energy     =  -10.95 kcal/mol
DOCKED: USER        Electrostatic Energy            =   +0.00 kcal/mol
DOCKED: USER    (2) Final Total Internal Energy     =   -2.59 kcal/mol
DOCKED: USER    (3) Torsional Free Energy           =   +2.09 kcal/mol
DOCKED: USER    (4) Unbound System's Energy  [=(2)] =   -2.59 kcal/mol
DOCKED: USER    
DOCKED: USER    
DOCKED: USER    NEWDPF move ligand.pdbqt
DOCKED: USER    NEWDPF about 0.576000 -0.005000 0.140000
DOCKED: USER    NEWDPF tran0 20.610396 -5.729904 -5.324392
DOCKED: USER    NEWDPF quaternion0 -0.390706 -0.638526 0.176526 -0.639119
DOCKED: USER    NEWDPF axisangle0 -0.507998 -0.830216 0.229520 -100.547701
DOCKED: USER    NEWDPF quat0 -0.507998 -0.830216 0.229520 -100.547701
DOCKED: USER    NEWDPF dihe0 22.30 121.66 -170.29 94.54 -6.74 55.15 87.54 
DOCKED: USER  keepresnum = 1 
DOCKED: USER  
DOCKED: REMARK  Name = 
DOCKED: REMARK  8 active torsions:
DOCKED: REMARK  status: ('A' for Active; 'I' for Inactive)
DOCKED: REMARK    1  A    between atoms: C_2  and  C_3
DOCKED: REMARK    2  A    between atoms: C_4  and  C_5
DOCKED: REMARK    3  A    between atoms: C_8  and  C_9
DOCKED: REMARK    4  A    between atoms: C_9  and  N_10
DOCKED: REMARK    5  A    between atoms: N_10  and  C_11
DOCKED: REMARK    6  A    between atoms: C_11  and  C_12
DOCKED: REMARK    7  A    between atoms: C_12  and  C_13
DOCKED: REMARK    8  A    between atoms: C_14  and  C_22
DOCKED: REMARK                            x       y       z     vdW  Elec       q    Type
DOCKED: REMARK                         _______ _______ _______ _____ _____    ______ ____
DOCKED: USER                              x       y       z     vdW  Elec       q    Type
DOCKED: USER                           _______ _______ _______ _____ _____    ______ ____
DOCKED: ROOT
DOCKED: ATOM      1  N   UNL     1      20.265  -6.083  -5.930 -0.07 -0.00    +0.000 N 
DOCKED: ATOM      2  H   UNL     1      19.968  -5.142  -6.186 +0.00 -0.00    +0.000 HD
DOCKED: ATOM      3  H   UNL     1      19.593  -6.529  -5.304 -0.00 -0.00    +0.000 HD
DOCKED: ENDROOT
DOCKED: BRANCH   1   4
DOCKED: ATOM      4  C   UNL     1      21.548  -5.997  -5.221 -0.16 -0.00    +0.000 C 
DOCKED: BRANCH   4   8
DOCKED: ATOM      5  C   UNL     1      21.324  -8.484  -1.689 -0.45 -0.00    +0.000 A 
DOCKED: ATOM      6  C   UNL     1      21.021  -7.109  -1.618 -0.28 -0.00    +0.000 A 
DOCKED: ATOM      7  C   UNL     1      21.106  -6.306  -2.759 -0.37 -0.00    +0.000 A 
DOCKED: ATOM      8  C   UNL     1      21.496  -6.857  -3.988 -0.27 -0.00    +0.000 A 
DOCKED: ATOM      9  C   UNL     1      21.766  -8.231  -4.070 -0.24 -0.00    +0.000 A 
DOCKED: ATOM     10  C   UNL     1      21.680  -9.035  -2.931 -0.31 -0.00    +0.000 A 
DOCKED: BRANCH   5  12
DOCKED: ATOM     11  C   UNL     1      20.193 -10.188  -0.265 -0.59 -0.00    +0.000 C 
DOCKED: ATOM     12  C   UNL     1      21.238  -9.384  -0.512 -0.65 -0.00    +0.000 C 
DOCKED: BRANCH  11  14
DOCKED: ATOM     13  O   UNL     1      19.611 -12.227   0.759 -1.13 -0.00    +0.000 OA
DOCKED: ATOM     14  C   UNL     1      20.112 -11.081   0.909 -0.69 -0.00    +0.000 C 
DOCKED: ATOM     15  N   UNL     1      20.558 -10.679   2.211 -0.63 -0.00    +0.000 N 
DOCKED: ATOM     16  O   UNL     1      20.561 -11.568   3.231 -1.45 -0.00    +0.000 OA
DOCKED: ATOM     17  H   UNL     1      20.862  -9.755   2.362 -0.57 -0.00    +0.000 HD
DOCKED: ENDBRANCH  11  14
DOCKED: ENDBRANCH   5  12
DOCKED: ENDBRANCH   4   8
DOCKED: ENDBRANCH   1   4
DOCKED: BRANCH   1  18
DOCKED: ATOM     18  C   UNL     1      20.353  -6.900  -7.150 -0.06 -0.00    +0.000 C 
DOCKED: BRANCH  18  19
DOCKED: ATOM     19  C   UNL     1      19.273  -7.992  -7.208 -0.08 -0.00    +0.000 C 
DOCKED: BRANCH  19  20
DOCKED: ATOM     20  C   UNL     1      19.769  -9.254  -6.563 -0.15 -0.00    +0.000 A 
DOCKED: ATOM     21  C   UNL     1      20.612 -10.217  -7.121 -0.24 -0.00    +0.000 A 
DOCKED: ATOM     22  N   UNL     1      20.787 -11.252  -6.267 -0.33 -0.00    +0.000 N 
DOCKED: ATOM     23  C   UNL     1      20.047 -10.964  -5.183 -0.41 -0.00    +0.000 A 
DOCKED: ATOM     24  C   UNL     1      19.406  -9.759  -5.329 -0.22 -0.00    +0.000 A 
DOCKED: ATOM     25  C   UNL     1      18.558  -9.256  -4.341 -0.21 -0.00    +0.000 A 
DOCKED: ATOM     26  C   UNL     1      18.381 -10.021  -3.175 -0.25 -0.00    +0.000 A 
DOCKED: ATOM     27  C   UNL     1      19.044 -11.259  -3.023 -0.16 -0.00    +0.000 A 
DOCKED: ATOM     28  C   UNL     1      19.888 -11.744  -4.038 -0.27 -0.00    +0.000 A 
DOCKED: ATOM     29  C   UNL     1      21.258 -10.136  -8.467 -0.22 -0.00    +0.000 C 
DOCKED: ATOM     30  H   UNL     1      21.343 -12.053  -6.410 -0.51 -0.00    +0.000 HD
DOCKED: ENDBRANCH  19  20
DOCKED: ENDBRANCH  18  19
DOCKED: ENDBRANCH   1  18
DOCKED: TORSDOF 7
DOCKED: TER
DOCKED: ENDMDL
________________________________________________________________________________


	BEGINNING GENETIC ALGORITHM DOCKING 23 of 100
Run: 23 Seed: 359533467 492333732 [ Run 23 of 100 GA/GALS ]
Beginning LAMARCKIAN GENETIC ALGORITHM (LGA), with a maximum of 2500000 energy evaluations.

Final-Value: -14.396


	FINAL GENETIC ALGORITHM DOCKED STATE
	_______________________________________________


Detailed state:  trans 20.771 -11.384 -6.689 quatxyzw 0.108153 -0.841283 0.481911 0.219792 center 0.576 -0.005 0.140 ntor 7 -179.9676 -108.5907 5.3362 63.6679 143.9840 176.3915 118.7070
State:	 20.771 -11.384  -6.689   0.111 -0.862  0.494 154.606   -179.97 -108.59    5.34   63.67  143.98  176.39  118.71

DOCKED: MODEL       23
DOCKED: USER    Run = 23
DOCKED: USER    DPF = ligand_dock.biased.dpf
DOCKED: USER  
DOCKED: USER    Estimated Free Energy of Binding    =  -11.47 kcal/mol  [=(1)+(2)+(3)-(4)]
DOCKED: USER    Estimated Inhibition Constant, Ki   =    3.94 nM (nanomolar)  [Temperature = 298.15 K]
DOCKED: USER    
DOCKED: USER    (1) Final Intermolecular Energy     =  -13.55 kcal/mol
DOCKED: USER        vdW + Hbond + desolv Energy     =  -13.55 kcal/mol
DOCKED: USER        Electrostatic Energy            =   +0.00 kcal/mol
DOCKED: USER    (2) Final Total Internal Energy     =   -0.84 kcal/mol
DOCKED: USER    (3) Torsional Free Energy           =   +2.09 kcal/mol
DOCKED: USER    (4) Unbound System's Energy  [=(2)] =   -0.84 kcal/mol
DOCKED: USER    
DOCKED: USER    
DOCKED: USER    NEWDPF move ligand.pdbqt
DOCKED: USER    NEWDPF about 0.576000 -0.005000 0.140000
DOCKED: USER    NEWDPF tran0 20.770814 -11.384366 -6.689416
DOCKED: USER    NEWDPF quaternion0 0.108153 -0.841283 0.481911 0.219792
DOCKED: USER    NEWDPF axisangle0 0.110864 -0.862370 0.493991 154.606406
DOCKED: USER    NEWDPF quat0 0.110864 -0.862370 0.493991 154.606406
DOCKED: USER    NEWDPF dihe0 -179.97 -108.59 5.34 63.67 143.98 176.39 118.71 
DOCKED: USER  keepresnum = 1 
DOCKED: USER  
DOCKED: REMARK  Name = 
DOCKED: REMARK  8 active torsions:
DOCKED: REMARK  status: ('A' for Active; 'I' for Inactive)
DOCKED: REMARK    1  A    between atoms: C_2  and  C_3
DOCKED: REMARK    2  A    between atoms: C_4  and  C_5
DOCKED: REMARK    3  A    between atoms: C_8  and  C_9
DOCKED: REMARK    4  A    between atoms: C_9  and  N_10
DOCKED: REMARK    5  A    between atoms: N_10  and  C_11
DOCKED: REMARK    6  A    between atoms: C_11  and  C_12
DOCKED: REMARK    7  A    between atoms: C_12  and  C_13
DOCKED: REMARK    8  A    between atoms: C_14  and  C_22
DOCKED: REMARK                            x       y       z     vdW  Elec       q    Type
DOCKED: REMARK                         _______ _______ _______ _____ _____    ______ ____
DOCKED: USER                              x       y       z     vdW  Elec       q    Type
DOCKED: USER                           _______ _______ _______ _____ _____    ______ ____
DOCKED: ROOT
DOCKED: ATOM      1  N   UNL     1      21.543 -11.277  -6.739 -0.30 -0.00    +0.000 N 
DOCKED: ATOM      2  H   UNL     1      21.420 -11.541  -7.717 -0.40 -0.00    +0.000 HD
DOCKED: ATOM      3  H   UNL     1      21.709 -12.093  -6.150 -0.47 -0.00    +0.000 HD
DOCKED: ENDROOT
DOCKED: BRANCH   1   4
DOCKED: ATOM      4  C   UNL     1      20.315 -10.627  -6.267 -0.35 -0.00    +0.000 C 
DOCKED: BRANCH   4   8
DOCKED: ATOM      5  C   UNL     1      20.310 -10.383  -1.949 -0.47 -0.00    +0.000 A 
DOCKED: ATOM      6  C   UNL     1      21.364  -9.821  -2.697 -0.47 -0.00    +0.000 A 
DOCKED: ATOM      7  C   UNL     1      21.368  -9.912  -4.092 -0.41 -0.00    +0.000 A 
DOCKED: ATOM      8  C   UNL     1      20.326 -10.566  -4.765 -0.39 -0.00    +0.000 A 
DOCKED: ATOM      9  C   UNL     1      19.259 -11.097  -4.026 -0.35 -0.00    +0.000 A 
DOCKED: ATOM     10  C   UNL     1      19.252 -11.006  -2.632 -0.34 -0.00    +0.000 A 
DOCKED: BRANCH   5  12
DOCKED: ATOM     11  C   UNL     1      20.006 -11.361   0.324 -0.62 -0.00    +0.000 C 
DOCKED: ATOM     12  C   UNL     1      20.249 -10.305  -0.468 -0.60 -0.00    +0.000 C 
DOCKED: BRANCH  11  14
DOCKED: ATOM     13  O   UNL     1      19.808 -10.143   2.328 -0.70 -0.00    +0.000 OA
DOCKED: ATOM     14  C   UNL     1      19.945 -11.277   1.797 -0.73 -0.00    +0.000 C 
DOCKED: ATOM     15  N   UNL     1      20.062 -12.432   2.637 -0.68 -0.00    +0.000 N 
DOCKED: ATOM     16  O   UNL     1      19.895 -12.317   3.975 -1.15 -0.00    +0.000 OA
DOCKED: ATOM     17  H   UNL     1      20.265 -13.309   2.240 -0.60 -0.00    +0.000 HD
DOCKED: ENDBRANCH  11  14
DOCKED: ENDBRANCH   5  12
DOCKED: ENDBRANCH   4   8
DOCKED: ENDBRANCH   1   4
DOCKED: BRANCH   1  18
DOCKED: ATOM     18  C   UNL     1      22.718 -10.399  -6.631 -0.34 -0.00    +0.000 C 
DOCKED: BRANCH  18  19
DOCKED: ATOM     19  C   UNL     1      23.247  -9.950  -8.003 -0.25 -0.00    +0.000 C 
DOCKED: BRANCH  19  20
DOCKED: ATOM     20  C   UNL     1      24.672 -10.388  -8.183 -0.29 -0.00    +0.000 A 
DOCKED: ATOM     21  C   UNL     1      25.132 -11.537  -8.830 -0.37 -0.00    +0.000 A 
DOCKED: ATOM     22  N   UNL     1      26.479 -11.634  -8.734 -0.37 -0.00    +0.000 N 
DOCKED: ATOM     23  C   UNL     1      26.874 -10.569  -8.014 -0.36 -0.00    +0.000 A 
DOCKED: ATOM     24  C   UNL     1      25.801  -9.791  -7.655 -0.32 -0.00    +0.000 A 
DOCKED: ATOM     25  C   UNL     1      25.958  -8.640  -6.882 -0.24 -0.00    +0.000 A 
DOCKED: ATOM     26  C   UNL     1      27.260  -8.288  -6.483 -0.36 -0.00    +0.000 A 
DOCKED: ATOM     27  C   UNL     1      28.364  -9.087  -6.858 -0.43 -0.00    +0.000 A 
DOCKED: ATOM     28  C   UNL     1      28.175 -10.245  -7.632 -0.44 -0.00    +0.000 A 
DOCKED: ATOM     29  C   UNL     1      24.279 -12.533  -9.549 -0.39 -0.00    +0.000 C 
DOCKED: ATOM     30  H   UNL     1      27.051 -12.340  -9.113 -0.34 -0.00    +0.000 HD
DOCKED: ENDBRANCH  19  20
DOCKED: ENDBRANCH  18  19
DOCKED: ENDBRANCH   1  18
DOCKED: TORSDOF 7
DOCKED: TER
DOCKED: ENDMDL
________________________________________________________________________________


	BEGINNING GENETIC ALGORITHM DOCKING 24 of 100
Run: 24 Seed: 465188910 1148860777 [ Run 24 of 100 GA/GALS ]
Beginning LAMARCKIAN GENETIC ALGORITHM (LGA), with a maximum of 2500000 energy evaluations.

Final-Value: -14.362


	FINAL GENETIC ALGORITHM DOCKED STATE
	_______________________________________________


Detailed state:  trans 20.274 -9.899 -6.492 quatxyzw 0.318364 0.838067 -0.400270 0.189924 center 0.576 -0.005 0.140 ntor 7 -125.8909 20.3562 11.5450 -18.4391 -167.0369 179.7342 97.9447
State:	 20.274  -9.899  -6.492   0.324  0.854 -0.408 158.103   -125.89   20.36   11.54  -18.44 -167.04  179.73   97.94

DOCKED: MODEL       24
DOCKED: USER    Run = 24
DOCKED: USER    DPF = ligand_dock.biased.dpf
DOCKED: USER  
DOCKED: USER    Estimated Free Energy of Binding    =  -11.18 kcal/mol  [=(1)+(2)+(3)-(4)]
DOCKED: USER    Estimated Inhibition Constant, Ki   =    6.35 nM (nanomolar)  [Temperature = 298.15 K]
DOCKED: USER    
DOCKED: USER    (1) Final Intermolecular Energy     =  -13.27 kcal/mol
DOCKED: USER        vdW + Hbond + desolv Energy     =  -13.27 kcal/mol
DOCKED: USER        Electrostatic Energy            =   +0.00 kcal/mol
DOCKED: USER    (2) Final Total Internal Energy     =   -1.09 kcal/mol
DOCKED: USER    (3) Torsional Free Energy           =   +2.09 kcal/mol
DOCKED: USER    (4) Unbound System's Energy  [=(2)] =   -1.09 kcal/mol
DOCKED: USER    
DOCKED: USER    
DOCKED: USER    NEWDPF move ligand.pdbqt
DOCKED: USER    NEWDPF about 0.576000 -0.005000 0.140000
DOCKED: USER    NEWDPF tran0 20.274388 -9.898566 -6.492472
DOCKED: USER    NEWDPF quaternion0 0.318364 0.838067 -0.400270 0.189924
DOCKED: USER    NEWDPF axisangle0 0.324266 0.853604 -0.407690 158.103302
DOCKED: USER    NEWDPF quat0 0.324266 0.853604 -0.407690 158.103302
DOCKED: USER    NEWDPF dihe0 -125.89 20.36 11.54 -18.44 -167.04 179.73 97.94 
DOCKED: USER  keepresnum = 1 
DOCKED: USER  
DOCKED: REMARK  Name = 
DOCKED: REMARK  8 active torsions:
DOCKED: REMARK  status: ('A' for Active; 'I' for Inactive)
DOCKED: REMARK    1  A    between atoms: C_2  and  C_3
DOCKED: REMARK    2  A    between atoms: C_4  and  C_5
DOCKED: REMARK    3  A    between atoms: C_8  and  C_9
DOCKED: REMARK    4  A    between atoms: C_9  and  N_10
DOCKED: REMARK    5  A    between atoms: N_10  and  C_11
DOCKED: REMARK    6  A    between atoms: C_11  and  C_12
DOCKED: REMARK    7  A    between atoms: C_12  and  C_13
DOCKED: REMARK    8  A    between atoms: C_14  and  C_22
DOCKED: REMARK                            x       y       z     vdW  Elec       q    Type
DOCKED: REMARK                         _______ _______ _______ _____ _____    ______ ____
DOCKED: USER                              x       y       z     vdW  Elec       q    Type
DOCKED: USER                           _______ _______ _______ _____ _____    ______ ____
DOCKED: ROOT
DOCKED: ATOM      1  N   UNL     1      20.659 -10.495  -6.819 -0.28 -0.00    +0.000 N 
DOCKED: ATOM      2  H   UNL     1      20.256 -10.152  -7.691 -0.01 -0.00    +0.000 HD
DOCKED: ATOM      3  H   UNL     1      20.041 -11.164  -6.359 -0.09 -0.00    +0.000 HD
DOCKED: ENDROOT
DOCKED: BRANCH   1   4
DOCKED: ATOM      4  C   UNL     1      20.847  -9.360  -5.907 -0.25 -0.00    +0.000 C 
DOCKED: BRANCH   4   8
DOCKED: ATOM      5  C   UNL     1      20.065 -10.556  -1.825 -0.44 -0.00    +0.000 A 
DOCKED: ATOM      6  C   UNL     1      21.385 -10.338  -2.267 -0.50 -0.00    +0.000 A 
DOCKED: ATOM      7  C   UNL     1      21.635  -9.963  -3.591 -0.37 -0.00    +0.000 A 
DOCKED: ATOM      8  C   UNL     1      20.576  -9.802  -4.496 -0.33 -0.00    +0.000 A 
DOCKED: ATOM      9  C   UNL     1      19.259  -9.985  -4.050 -0.29 -0.00    +0.000 A 
DOCKED: ATOM     10  C   UNL     1      19.007 -10.358  -2.728 -0.33 -0.00    +0.000 A 
DOCKED: BRANCH   5  12
DOCKED: ATOM     11  C   UNL     1      20.669 -11.164   0.516 -0.68 -0.00    +0.000 C 
DOCKED: ATOM     12  C   UNL     1      19.741 -10.942  -0.429 -0.56 -0.00    +0.000 C 
DOCKED: BRANCH  11  14
DOCKED: ATOM     13  O   UNL     1      19.889 -12.708   2.113 -1.62 -0.00    +0.000 OA
DOCKED: ATOM     14  C   UNL     1      20.341 -11.550   1.903 -0.78 -0.00    +0.000 C 
DOCKED: ATOM     15  N   UNL     1      20.492 -10.649   3.007 -0.66 -0.00    +0.000 N 
DOCKED: ATOM     16  O   UNL     1      20.279 -11.083   4.271 -1.03 -0.00    +0.000 OA
DOCKED: ATOM     17  H   UNL     1      20.752  -9.714   2.845 -0.59 -0.00    +0.000 HD
DOCKED: ENDBRANCH  11  14
DOCKED: ENDBRANCH   5  12
DOCKED: ENDBRANCH   4   8
DOCKED: ENDBRANCH   1   4
DOCKED: BRANCH   1  18
DOCKED: ATOM     18  C   UNL     1      21.922 -11.185  -7.121 -0.29 -0.00    +0.000 C 
DOCKED: BRANCH  18  19
DOCKED: ATOM     19  C   UNL     1      22.416 -10.912  -8.551 -0.29 -0.00    +0.000 C 
DOCKED: BRANCH  19  20
DOCKED: ATOM     20  C   UNL     1      23.897 -11.141  -8.647 -0.30 -0.00    +0.000 A 
DOCKED: ATOM     21  C   UNL     1      24.550 -12.252  -9.184 -0.37 -0.00    +0.000 A 
DOCKED: ATOM     22  N   UNL     1      25.891 -12.137  -9.034 -0.37 -0.00    +0.000 N 
DOCKED: ATOM     23  C   UNL     1      26.091 -10.976  -8.388 -0.37 -0.00    +0.000 A 
DOCKED: ATOM     24  C   UNL     1      24.900 -10.343  -8.129 -0.30 -0.00    +0.000 A 
DOCKED: ATOM     25  C   UNL     1      24.849  -9.128  -7.445 -0.24 -0.00    +0.000 A 
DOCKED: ATOM     26  C   UNL     1      26.065  -8.556  -7.031 -0.26 -0.00    +0.000 A 
DOCKED: ATOM     27  C   UNL     1      27.291  -9.204  -7.303 -0.38 -0.00    +0.000 A 
DOCKED: ATOM     28  C   UNL     1      27.311 -10.432  -7.989 -0.39 -0.00    +0.000 A 
DOCKED: ATOM     29  C   UNL     1      23.888 -13.415  -9.850 -0.41 -0.00    +0.000 C 
DOCKED: ATOM     30  H   UNL     1      26.578 -12.775  -9.335 -0.48 -0.00    +0.000 HD
DOCKED: ENDBRANCH  19  20
DOCKED: ENDBRANCH  18  19
DOCKED: ENDBRANCH   1  18
DOCKED: TORSDOF 7
DOCKED: TER
DOCKED: ENDMDL
________________________________________________________________________________


	BEGINNING GENETIC ALGORITHM DOCKING 25 of 100
Run: 25 Seed: 585968879 1268810706 [ Run 25 of 100 GA/GALS ]
Beginning LAMARCKIAN GENETIC ALGORITHM (LGA), with a maximum of 2500000 energy evaluations.

Final-Value: -12.840


	FINAL GENETIC ALGORITHM DOCKED STATE
	_______________________________________________


Detailed state:  trans 19.940 -9.692 -6.405 quatxyzw -0.442405 -0.615806 -0.651763 0.016275 center 0.576 -0.005 0.140 ntor 7 -69.0103 154.6058 54.0379 41.4656 -125.3725 151.8379 -65.7518
State:	 19.940  -9.692  -6.405  -0.442 -0.616 -0.652 178.135    -69.01  154.61   54.04   41.47 -125.37  151.84  -65.75

DOCKED: MODEL       25
DOCKED: USER    Run = 25
DOCKED: USER    DPF = ligand_dock.biased.dpf
DOCKED: USER  
DOCKED: USER    Estimated Free Energy of Binding    =   -9.88 kcal/mol  [=(1)+(2)+(3)-(4)]
DOCKED: USER    Estimated Inhibition Constant, Ki   =   56.87 nM (nanomolar)  [Temperature = 298.15 K]
DOCKED: USER    
DOCKED: USER    (1) Final Intermolecular Energy     =  -11.97 kcal/mol
DOCKED: USER        vdW + Hbond + desolv Energy     =  -11.97 kcal/mol
DOCKED: USER        Electrostatic Energy            =   +0.00 kcal/mol
DOCKED: USER    (2) Final Total Internal Energy     =   -0.87 kcal/mol
DOCKED: USER    (3) Torsional Free Energy           =   +2.09 kcal/mol
DOCKED: USER    (4) Unbound System's Energy  [=(2)] =   -0.87 kcal/mol
DOCKED: USER    
DOCKED: USER    
DOCKED: USER    NEWDPF move ligand.pdbqt
DOCKED: USER    NEWDPF about 0.576000 -0.005000 0.140000
DOCKED: USER    NEWDPF tran0 19.939969 -9.691811 -6.404614
DOCKED: USER    NEWDPF quaternion0 -0.442405 -0.615806 -0.651763 0.016275
DOCKED: USER    NEWDPF axisangle0 -0.442464 -0.615888 -0.651849 178.134902
DOCKED: USER    NEWDPF quat0 -0.442464 -0.615888 -0.651849 178.134902
DOCKED: USER    NEWDPF dihe0 -69.01 154.61 54.04 41.47 -125.37 151.84 -65.75 
DOCKED: USER  keepresnum = 1 
DOCKED: USER  
DOCKED: REMARK  Name = 
DOCKED: REMARK  8 active torsions:
DOCKED: REMARK  status: ('A' for Active; 'I' for Inactive)
DOCKED: REMARK    1  A    between atoms: C_2  and  C_3
DOCKED: REMARK    2  A    between atoms: C_4  and  C_5
DOCKED: REMARK    3  A    between atoms: C_8  and  C_9
DOCKED: REMARK    4  A    between atoms: C_9  and  N_10
DOCKED: REMARK    5  A    between atoms: N_10  and  C_11
DOCKED: REMARK    6  A    between atoms: C_11  and  C_12
DOCKED: REMARK    7  A    between atoms: C_12  and  C_13
DOCKED: REMARK    8  A    between atoms: C_14  and  C_22
DOCKED: REMARK                            x       y       z     vdW  Elec       q    Type
DOCKED: REMARK                         _______ _______ _______ _____ _____    ______ ____
DOCKED: USER                              x       y       z     vdW  Elec       q    Type
DOCKED: USER                           _______ _______ _______ _____ _____    ______ ____
DOCKED: ROOT
DOCKED: ATOM      1  N   UNL     1      20.617  -9.881  -6.746 -0.21 -0.00    +0.000 N 
DOCKED: ATOM      2  H   UNL     1      21.038  -9.332  -5.997 +0.00 -0.00    +0.000 HD
DOCKED: ATOM      3  H   UNL     1      20.389  -9.300  -7.553 +0.00 -0.00    +0.000 HD
DOCKED: ENDROOT
DOCKED: BRANCH   1   4
DOCKED: ATOM      4  C   UNL     1      19.367 -10.472  -6.253 -0.32 -0.00    +0.000 C 
DOCKED: BRANCH   4   8
DOCKED: ATOM      5  C   UNL     1      19.383 -10.574  -1.929 -0.39 -0.00    +0.000 A 
DOCKED: ATOM      6  C   UNL     1      18.177 -10.403  -2.637 -0.24 -0.00    +0.000 A 
DOCKED: ATOM      7  C   UNL     1      18.177 -10.358  -4.035 -0.26 -0.00    +0.000 A 
DOCKED: ATOM      8  C   UNL     1      19.377 -10.481  -4.749 -0.33 -0.00    +0.000 A 
DOCKED: ATOM      9  C   UNL     1      20.575 -10.685  -4.049 -0.44 -0.00    +0.000 A 
DOCKED: ATOM     10  C   UNL     1      20.577 -10.731  -2.653 -0.41 -0.00    +0.000 A 
DOCKED: BRANCH   5  12
DOCKED: ATOM     11  C   UNL     1      20.109 -11.586   0.230 -0.48 -0.00    +0.000 C 
DOCKED: ATOM     12  C   UNL     1      19.439 -10.641  -0.447 -0.51 -0.00    +0.000 C 
DOCKED: BRANCH  11  14
DOCKED: ATOM     13  O   UNL     1      19.853 -12.731   2.271 -1.56 -0.00    +0.000 OA
DOCKED: ATOM     14  C   UNL     1      20.160 -11.648   1.705 -0.77 -0.00    +0.000 C 
DOCKED: ATOM     15  N   UNL     1      20.517 -10.517   2.509 -0.61 -0.00    +0.000 N 
DOCKED: ATOM     16  O   UNL     1      20.651 -10.652   3.849 -1.10 -0.00    +0.000 OA
DOCKED: ATOM     17  H   UNL     1      20.665  -9.641   2.085 -0.53 -0.00    +0.000 HD
DOCKED: ENDBRANCH  11  14
DOCKED: ENDBRANCH   5  12
DOCKED: ENDBRANCH   4   8
DOCKED: ENDBRANCH   1   4
DOCKED: BRANCH   1  18
DOCKED: ATOM     18  C   UNL     1      21.582 -10.900  -7.186 -0.32 -0.00    +0.000 C 
DOCKED: BRANCH  18  19
DOCKED: ATOM     19  C   UNL     1      23.007 -10.620  -6.679 -0.28 -0.00    +0.000 C 
DOCKED: BRANCH  19  20
DOCKED: ATOM     20  C   UNL     1      24.018 -10.997  -7.723 -0.37 -0.00    +0.000 A 
DOCKED: ATOM     21  C   UNL     1      25.224 -10.355  -8.006 -0.33 -0.00    +0.000 A 
DOCKED: ATOM     22  N   UNL     1      25.841 -10.939  -9.060 -0.32 -0.00    +0.000 N 
DOCKED: ATOM     23  C   UNL     1      25.026 -11.930  -9.460 -0.33 -0.00    +0.000 A 
DOCKED: ATOM     24  C   UNL     1      23.902 -11.992  -8.675 -0.39 -0.00    +0.000 A 
DOCKED: ATOM     25  C   UNL     1      22.894 -12.928  -8.911 -0.26 -0.00    +0.000 A 
DOCKED: ATOM     26  C   UNL     1      23.066 -13.823  -9.982 -0.38 -0.00    +0.000 A 
DOCKED: ATOM     27  C   UNL     1      24.226 -13.761 -10.787 -0.32 -0.00    +0.000 A 
DOCKED: ATOM     28  C   UNL     1      25.222 -12.803 -10.530 -0.20 -0.00    +0.000 A 
DOCKED: ATOM     29  C   UNL     1      25.790  -9.191  -7.256 -0.33 -0.00    +0.000 C 
DOCKED: ATOM     30  H   UNL     1      26.709 -10.688  -9.453 -0.01 -0.00    +0.000 HD
DOCKED: ENDBRANCH  19  20
DOCKED: ENDBRANCH  18  19
DOCKED: ENDBRANCH   1  18
DOCKED: TORSDOF 7
DOCKED: TER
DOCKED: ENDMDL
________________________________________________________________________________


	BEGINNING GENETIC ALGORITHM DOCKING 26 of 100
Run: 26 Seed: 1022931301 1546464481 [ Run 26 of 100 GA/GALS ]
Beginning LAMARCKIAN GENETIC ALGORITHM (LGA), with a maximum of 2500000 energy evaluations.

Final-Value: -14.224


	FINAL GENETIC ALGORITHM DOCKED STATE
	_______________________________________________


Detailed state:  trans 21.185 -10.013 -6.066 quatxyzw -0.255020 0.693678 -0.439908 0.510154 center 0.576 -0.005 0.140 ntor 7 -79.1148 -108.0129 79.3521 93.6708 -84.5377 72.5300 12.0543
State:	 21.185 -10.013  -6.066  -0.297  0.807 -0.511 118.652    -79.11 -108.01   79.35   93.67  -84.54   72.53   12.05

DOCKED: MODEL       26
DOCKED: USER    Run = 26
DOCKED: USER    DPF = ligand_dock.biased.dpf
DOCKED: USER  
DOCKED: USER    Estimated Free Energy of Binding    =  -11.32 kcal/mol  [=(1)+(2)+(3)-(4)]
DOCKED: USER    Estimated Inhibition Constant, Ki   =    5.04 nM (nanomolar)  [Temperature = 298.15 K]
DOCKED: USER    
DOCKED: USER    (1) Final Intermolecular Energy     =  -13.41 kcal/mol
DOCKED: USER        vdW + Hbond + desolv Energy     =  -13.41 kcal/mol
DOCKED: USER        Electrostatic Energy            =   +0.00 kcal/mol
DOCKED: USER    (2) Final Total Internal Energy     =   -0.82 kcal/mol
DOCKED: USER    (3) Torsional Free Energy           =   +2.09 kcal/mol
DOCKED: USER    (4) Unbound System's Energy  [=(2)] =   -0.82 kcal/mol
DOCKED: USER    
DOCKED: USER    
DOCKED: USER    NEWDPF move ligand.pdbqt
DOCKED: USER    NEWDPF about 0.576000 -0.005000 0.140000
DOCKED: USER    NEWDPF tran0 21.184996 -10.013210 -6.065732
DOCKED: USER    NEWDPF quaternion0 -0.255020 0.693678 -0.439908 0.510154
DOCKED: USER    NEWDPF axisangle0 -0.296506 0.806524 -0.511471 118.651864
DOCKED: USER    NEWDPF quat0 -0.296506 0.806524 -0.511471 118.651864
DOCKED: USER    NEWDPF dihe0 -79.11 -108.01 79.35 93.67 -84.54 72.53 12.05 
DOCKED: USER  keepresnum = 1 
DOCKED: USER  
DOCKED: REMARK  Name = 
DOCKED: REMARK  8 active torsions:
DOCKED: REMARK  status: ('A' for Active; 'I' for Inactive)
DOCKED: REMARK    1  A    between atoms: C_2  and  C_3
DOCKED: REMARK    2  A    between atoms: C_4  and  C_5
DOCKED: REMARK    3  A    between atoms: C_8  and  C_9
DOCKED: REMARK    4  A    between atoms: C_9  and  N_10
DOCKED: REMARK    5  A    between atoms: N_10  and  C_11
DOCKED: REMARK    6  A    between atoms: C_11  and  C_12
DOCKED: REMARK    7  A    between atoms: C_12  and  C_13
DOCKED: REMARK    8  A    between atoms: C_14  and  C_22
DOCKED: REMARK                            x       y       z     vdW  Elec       q    Type
DOCKED: REMARK                         _______ _______ _______ _____ _____    ______ ____
DOCKED: USER                              x       y       z     vdW  Elec       q    Type
DOCKED: USER                           _______ _______ _______ _____ _____    ______ ____
DOCKED: ROOT
DOCKED: ATOM      1  N   UNL     1      21.188 -10.289  -6.797 -0.27 -0.00    +0.000 N 
DOCKED: ATOM      2  H   UNL     1      20.184 -10.404  -6.655 -0.01 -0.00    +0.000 HD
DOCKED: ATOM      3  H   UNL     1      21.705 -11.116  -6.499 -0.08 -0.00    +0.000 HD
DOCKED: ENDROOT
DOCKED: BRANCH   1   4
DOCKED: ATOM      4  C   UNL     1      21.652  -9.155  -5.988 -0.27 -0.00    +0.000 C 
DOCKED: BRANCH   4   8
DOCKED: ATOM      5  C   UNL     1      20.653  -9.857  -1.838 -0.51 -0.00    +0.000 A 
DOCKED: ATOM      6  C   UNL     1      21.156  -8.607  -2.253 -0.44 -0.00    +0.000 A 
DOCKED: ATOM      7  C   UNL     1      21.489  -8.388  -3.593 -0.32 -0.00    +0.000 A 
DOCKED: ATOM      8  C   UNL     1      21.330  -9.408  -4.541 -0.34 -0.00    +0.000 A 
DOCKED: ATOM      9  C   UNL     1      20.798 -10.642  -4.139 -0.44 -0.00    +0.000 A 
DOCKED: ATOM     10  C   UNL     1      20.464 -10.863  -2.801 -0.39 -0.00    +0.000 A 
DOCKED: BRANCH   5  12
DOCKED: ATOM     11  C   UNL     1      20.679 -11.225   0.245 -0.62 -0.00    +0.000 C 
DOCKED: ATOM     12  C   UNL     1      20.271 -10.141  -0.432 -0.60 -0.00    +0.000 C 
DOCKED: BRANCH  11  14
DOCKED: ATOM     13  O   UNL     1      19.624 -12.541   1.887 -1.61 -0.00    +0.000 OA
DOCKED: ATOM     14  C   UNL     1      20.295 -11.503   1.643 -0.77 -0.00    +0.000 C 
DOCKED: ATOM     15  N   UNL     1      20.634 -10.622   2.722 -0.63 -0.00    +0.000 N 
DOCKED: ATOM     16  O   UNL     1      20.351 -10.972   3.998 -1.13 -0.00    +0.000 OA
DOCKED: ATOM     17  H   UNL     1      21.073  -9.762   2.533 -0.59 -0.00    +0.000 HD
DOCKED: ENDBRANCH  11  14
DOCKED: ENDBRANCH   5  12
DOCKED: ENDBRANCH   4   8
DOCKED: ENDBRANCH   1   4
DOCKED: BRANCH   1  18
DOCKED: ATOM     18  C   UNL     1      21.443 -10.093  -8.232 -0.23 -0.00    +0.000 C 
DOCKED: BRANCH  18  19
DOCKED: ATOM     19  C   UNL     1      21.779 -11.407  -8.956 -0.22 -0.00    +0.000 C 
DOCKED: BRANCH  19  20
DOCKED: ATOM     20  C   UNL     1      23.261 -11.646  -8.946 -0.31 -0.00    +0.000 A 
DOCKED: ATOM     21  C   UNL     1      23.935 -12.810  -9.321 -0.37 -0.00    +0.000 A 
DOCKED: ATOM     22  N   UNL     1      25.267 -12.679  -9.114 -0.43 -0.00    +0.000 N 
DOCKED: ATOM     23  C   UNL     1      25.439 -11.453  -8.590 -0.38 -0.00    +0.000 A 
DOCKED: ATOM     24  C   UNL     1      24.240 -10.796  -8.466 -0.29 -0.00    +0.000 A 
DOCKED: ATOM     25  C   UNL     1      24.160  -9.513  -7.924 -0.22 -0.00    +0.000 A 
DOCKED: ATOM     26  C   UNL     1      25.356  -8.898  -7.511 -0.25 -0.00    +0.000 A 
DOCKED: ATOM     27  C   UNL     1      26.590  -9.573  -7.644 -0.35 -0.00    +0.000 A 
DOCKED: ATOM     28  C   UNL     1      26.640 -10.869  -8.188 -0.31 -0.00    +0.000 A 
DOCKED: ATOM     29  C   UNL     1      23.302 -14.039  -9.890 -0.44 -0.00    +0.000 C 
DOCKED: ATOM     30  H   UNL     1      25.965 -13.346  -9.306 -0.60 -0.00    +0.000 HD
DOCKED: ENDBRANCH  19  20
DOCKED: ENDBRANCH  18  19
DOCKED: ENDBRANCH   1  18
DOCKED: TORSDOF 7
DOCKED: TER
DOCKED: ENDMDL
________________________________________________________________________________


	BEGINNING GENETIC ALGORITHM DOCKING 27 of 100
Run: 27 Seed: 1911840537 102570490 [ Run 27 of 100 GA/GALS ]
Beginning LAMARCKIAN GENETIC ALGORITHM (LGA), with a maximum of 2500000 energy evaluations.

Final-Value: -12.743


	FINAL GENETIC ALGORITHM DOCKED STATE
	_______________________________________________


Detailed state:  trans 22.272 -9.167 -7.452 quatxyzw -0.669830 -0.503205 -0.006242 -0.545962 center 0.576 -0.005 0.140 ntor 7 -180.0000 76.9762 179.4593 -68.3857 -175.1334 -157.2199 78.6636
State:	 22.272  -9.167  -7.452  -0.800 -0.601 -0.007 -113.819   -180.00   76.98  179.46  -68.39 -175.13 -157.22   78.66

DOCKED: MODEL       27
DOCKED: USER    Run = 27
DOCKED: USER    DPF = ligand_dock.biased.dpf
DOCKED: USER  
DOCKED: USER    Estimated Free Energy of Binding    =   -9.59 kcal/mol  [=(1)+(2)+(3)-(4)]
DOCKED: USER    Estimated Inhibition Constant, Ki   =   93.45 nM (nanomolar)  [Temperature = 298.15 K]
DOCKED: USER    
DOCKED: USER    (1) Final Intermolecular Energy     =  -11.68 kcal/mol
DOCKED: USER        vdW + Hbond + desolv Energy     =  -11.68 kcal/mol
DOCKED: USER        Electrostatic Energy            =   +0.00 kcal/mol
DOCKED: USER    (2) Final Total Internal Energy     =   -1.07 kcal/mol
DOCKED: USER    (3) Torsional Free Energy           =   +2.09 kcal/mol
DOCKED: USER    (4) Unbound System's Energy  [=(2)] =   -1.07 kcal/mol
DOCKED: USER    
DOCKED: USER    
DOCKED: USER    NEWDPF move ligand.pdbqt
DOCKED: USER    NEWDPF about 0.576000 -0.005000 0.140000
DOCKED: USER    NEWDPF tran0 22.271542 -9.166549 -7.452141
DOCKED: USER    NEWDPF quaternion0 -0.669830 -0.503205 -0.006242 -0.545962
DOCKED: USER    NEWDPF axisangle0 -0.799501 -0.600619 -0.007450 -113.819140
DOCKED: USER    NEWDPF quat0 -0.799501 -0.600619 -0.007450 -113.819140
DOCKED: USER    NEWDPF dihe0 -180.00 76.98 179.46 -68.39 -175.13 -157.22 78.66 
DOCKED: USER  keepresnum = 1 
DOCKED: USER  
DOCKED: REMARK  Name = 
DOCKED: REMARK  8 active torsions:
DOCKED: REMARK  status: ('A' for Active; 'I' for Inactive)
DOCKED: REMARK    1  A    between atoms: C_2  and  C_3
DOCKED: REMARK    2  A    between atoms: C_4  and  C_5
DOCKED: REMARK    3  A    between atoms: C_8  and  C_9
DOCKED: REMARK    4  A    between atoms: C_9  and  N_10
DOCKED: REMARK    5  A    between atoms: N_10  and  C_11
DOCKED: REMARK    6  A    between atoms: C_11  and  C_12
DOCKED: REMARK    7  A    between atoms: C_12  and  C_13
DOCKED: REMARK    8  A    between atoms: C_14  and  C_22
DOCKED: REMARK                            x       y       z     vdW  Elec       q    Type
DOCKED: REMARK                         _______ _______ _______ _____ _____    ______ ____
DOCKED: USER                              x       y       z     vdW  Elec       q    Type
DOCKED: USER                           _______ _______ _______ _____ _____    ______ ____
DOCKED: ROOT
DOCKED: ATOM      1  N   UNL     1      21.838  -9.402  -8.059 -0.14 -0.00    +0.000 N 
DOCKED: ATOM      2  H   UNL     1      22.239  -8.593  -8.534 +0.00 -0.00    +0.000 HD
DOCKED: ATOM      3  H   UNL     1      20.982  -9.156  -7.561 +0.00 -0.00    +0.000 HD
DOCKED: ENDROOT
DOCKED: BRANCH   1   4
DOCKED: ATOM      4  C   UNL     1      22.806  -9.894  -7.070 -0.31 -0.00    +0.000 C 
DOCKED: BRANCH   4   8
DOCKED: ATOM      5  C   UNL     1      21.002 -10.060  -3.142 -0.47 -0.00    +0.000 A 
DOCKED: ATOM      6  C   UNL     1      21.084 -11.217  -3.942 -0.28 -0.00    +0.000 A 
DOCKED: ATOM      7  C   UNL     1      21.657 -11.158  -5.217 -0.48 -0.00    +0.000 A 
DOCKED: ATOM      8  C   UNL     1      22.154  -9.945  -5.716 -0.31 -0.00    +0.000 A 
DOCKED: ATOM      9  C   UNL     1      22.105  -8.799  -4.909 -0.14 -0.00    +0.000 A 
DOCKED: ATOM     10  C   UNL     1      21.534  -8.857  -3.636 -0.33 -0.00    +0.000 A 
DOCKED: BRANCH   5  12
DOCKED: ATOM     11  C   UNL     1      20.817 -10.896  -0.802 -0.54 -0.00    +0.000 C 
DOCKED: ATOM     12  C   UNL     1      20.416 -10.069  -1.779 -0.55 -0.00    +0.000 C 
DOCKED: BRANCH  11  14
DOCKED: ATOM     13  O   UNL     1      19.115 -10.338   0.726 -0.53 -0.00    +0.000 OA
DOCKED: ATOM     14  C   UNL     1      20.228 -10.902   0.553 -0.67 -0.00    +0.000 C 
DOCKED: ATOM     15  N   UNL     1      20.890 -11.500   1.675 -0.68 -0.00    +0.000 N 
DOCKED: ATOM     16  O   UNL     1      20.263 -11.572   2.872 -1.68 -0.00    +0.000 OA
DOCKED: ATOM     17  H   UNL     1      21.801 -11.859   1.573 -0.53 -0.00    +0.000 HD
DOCKED: ENDBRANCH  11  14
DOCKED: ENDBRANCH   5  12
DOCKED: ENDBRANCH   4   8
DOCKED: ENDBRANCH   1   4
DOCKED: BRANCH   1  18
DOCKED: ATOM     18  C   UNL     1      21.498 -10.420  -9.064 -0.22 -0.00    +0.000 C 
DOCKED: BRANCH  18  19
DOCKED: ATOM     19  C   UNL     1      22.512 -10.472 -10.218 -0.15 -0.00    +0.000 C 
DOCKED: BRANCH  19  20
DOCKED: ATOM     20  C   UNL     1      23.361 -11.706 -10.113 -0.21 -0.00    +0.000 A 
DOCKED: ATOM     21  C   UNL     1      24.573 -11.848  -9.437 -0.31 -0.00    +0.000 A 
DOCKED: ATOM     22  N   UNL     1      25.083 -13.089  -9.621 -0.39 -0.00    +0.000 N 
DOCKED: ATOM     23  C   UNL     1      24.215 -13.727 -10.425 -0.35 -0.00    +0.000 A 
DOCKED: ATOM     24  C   UNL     1      23.156 -12.915 -10.752 -0.26 -0.00    +0.000 A 
DOCKED: ATOM     25  C   UNL     1      22.134 -13.349 -11.597 -0.20 -0.00    +0.000 A 
DOCKED: ATOM     26  C   UNL     1      22.213 -14.658 -12.105 -0.32 +0.00    +0.000 A 
DOCKED: ATOM     27  C   UNL     1      23.299 -15.495 -11.764 -0.32 +0.00    +0.000 A 
DOCKED: ATOM     28  C   UNL     1      24.319 -15.028 -10.914 -0.35 +0.00    +0.000 A 
DOCKED: ATOM     29  C   UNL     1      25.236 -10.796  -8.605 -0.36 -0.00    +0.000 C 
DOCKED: ATOM     30  H   UNL     1      25.918 -13.449  -9.244 -0.62 -0.00    +0.000 HD
DOCKED: ENDBRANCH  19  20
DOCKED: ENDBRANCH  18  19
DOCKED: ENDBRANCH   1  18
DOCKED: TORSDOF 7
DOCKED: TER
DOCKED: ENDMDL
________________________________________________________________________________


	BEGINNING GENETIC ALGORITHM DOCKING 28 of 100
Run: 28 Seed: 580320521 675381190 [ Run 28 of 100 GA/GALS ]
Beginning LAMARCKIAN GENETIC ALGORITHM (LGA), with a maximum of 2500000 energy evaluations.

Final-Value: -13.769


	FINAL GENETIC ALGORITHM DOCKED STATE
	_______________________________________________


Detailed state:  trans 11.955 -10.740 -1.632 quatxyzw 0.449321 -0.172477 -0.609198 -0.630270 center 0.576 -0.005 0.140 ntor 7 14.6487 -125.5366 -179.9852 -117.6457 -173.6731 149.5891 -86.8965
State:	 11.955 -10.740  -1.632   0.579 -0.222 -0.785 -101.860     14.65 -125.54 -179.99 -117.65 -173.67  149.59  -86.90

DOCKED: MODEL       28
DOCKED: USER    Run = 28
DOCKED: USER    DPF = ligand_dock.biased.dpf
DOCKED: USER  
DOCKED: USER    Estimated Free Energy of Binding    =   -8.64 kcal/mol  [=(1)+(2)+(3)-(4)]
DOCKED: USER    Estimated Inhibition Constant, Ki   =  467.02 nM (nanomolar)  [Temperature = 298.15 K]
DOCKED: USER    
DOCKED: USER    (1) Final Intermolecular Energy     =  -10.72 kcal/mol
DOCKED: USER        vdW + Hbond + desolv Energy     =  -10.72 kcal/mol
DOCKED: USER        Electrostatic Energy            =   +0.00 kcal/mol
DOCKED: USER    (2) Final Total Internal Energy     =   -3.04 kcal/mol
DOCKED: USER    (3) Torsional Free Energy           =   +2.09 kcal/mol
DOCKED: USER    (4) Unbound System's Energy  [=(2)] =   -3.04 kcal/mol
DOCKED: USER    
DOCKED: USER    
DOCKED: USER    NEWDPF move ligand.pdbqt
DOCKED: USER    NEWDPF about 0.576000 -0.005000 0.140000
DOCKED: USER    NEWDPF tran0 11.955436 -10.739637 -1.631894
DOCKED: USER    NEWDPF quaternion0 0.449321 -0.172477 -0.609198 -0.630270
DOCKED: USER    NEWDPF axisangle0 0.578741 -0.222157 -0.784669 -101.859838
DOCKED: USER    NEWDPF quat0 0.578741 -0.222157 -0.784669 -101.859838
DOCKED: USER    NEWDPF dihe0 14.65 -125.54 -179.99 -117.65 -173.67 149.59 -86.90 
DOCKED: USER  keepresnum = 1 
DOCKED: USER  
DOCKED: REMARK  Name = 
DOCKED: REMARK  8 active torsions:
DOCKED: REMARK  status: ('A' for Active; 'I' for Inactive)
DOCKED: REMARK    1  A    between atoms: C_2  and  C_3
DOCKED: REMARK    2  A    between atoms: C_4  and  C_5
DOCKED: REMARK    3  A    between atoms: C_8  and  C_9
DOCKED: REMARK    4  A    between atoms: C_9  and  N_10
DOCKED: REMARK    5  A    between atoms: N_10  and  C_11
DOCKED: REMARK    6  A    between atoms: C_11  and  C_12
DOCKED: REMARK    7  A    between atoms: C_12  and  C_13
DOCKED: REMARK    8  A    between atoms: C_14  and  C_22
DOCKED: REMARK                            x       y       z     vdW  Elec       q    Type
DOCKED: REMARK                         _______ _______ _______ _____ _____    ______ ____
DOCKED: USER                              x       y       z     vdW  Elec       q    Type
DOCKED: USER                           _______ _______ _______ _____ _____    ______ ____
DOCKED: ROOT
DOCKED: ATOM      1  N   UNL     1      11.655 -10.212  -1.140 -0.23 -0.00    +0.000 N 
DOCKED: ATOM      2  H   UNL     1      11.740 -10.954  -0.445 -0.02 +0.00    +0.000 HD
DOCKED: ATOM      3  H   UNL     1      10.757 -10.253  -1.622 -0.03 -0.00    +0.000 HD
DOCKED: ENDROOT
DOCKED: BRANCH   1   4
DOCKED: ATOM      4  C   UNL     1      12.711 -10.384  -2.146 -0.23 -0.00    +0.000 C 
DOCKED: BRANCH   4   8
DOCKED: ATOM      5  C   UNL     1      16.436 -11.501  -0.253 -0.35 +0.00    +0.000 A 
DOCKED: ATOM      6  C   UNL     1      15.614 -12.479  -0.850 -0.33 +0.00    +0.000 A 
DOCKED: ATOM      7  C   UNL     1      14.405 -12.115  -1.451 -0.34 +0.00    +0.000 A 
DOCKED: ATOM      8  C   UNL     1      13.992 -10.775  -1.464 -0.28 -0.00    +0.000 A 
DOCKED: ATOM      9  C   UNL     1      14.823  -9.796  -0.900 -0.23 -0.00    +0.000 A 
DOCKED: ATOM     10  C   UNL     1      16.032 -10.157  -0.301 -0.25 -0.00    +0.000 A 
DOCKED: BRANCH   5  12
DOCKED: ATOM     11  C   UNL     1      18.237 -11.160   1.436 -0.53 -0.00    +0.000 C 
DOCKED: ATOM     12  C   UNL     1      17.734 -11.829   0.387 -0.52 -0.00    +0.000 C 
DOCKED: BRANCH  11  14
DOCKED: ATOM     13  O   UNL     1      19.667 -11.281   3.302 -1.07 -0.00    +0.000 OA
DOCKED: ATOM     14  C   UNL     1      19.530 -11.490   2.067 -0.72 -0.00    +0.000 C 
DOCKED: ATOM     15  N   UNL     1      20.638 -12.011   1.321 -0.71 -0.00    +0.000 N 
DOCKED: ATOM     16  O   UNL     1      21.766 -12.395   1.961 -1.08 -0.00    +0.000 OA
DOCKED: ATOM     17  H   UNL     1      20.577 -12.088   0.342 -0.04 -0.00    +0.000 HD
DOCKED: ENDBRANCH  11  14
DOCKED: ENDBRANCH   5  12
DOCKED: ENDBRANCH   4   8
DOCKED: ENDBRANCH   1   4
DOCKED: BRANCH   1  18
DOCKED: ATOM     18  C   UNL     1      11.739  -8.912  -0.457 -0.13 -0.00    +0.000 C 
DOCKED: BRANCH  18  19
DOCKED: ATOM     19  C   UNL     1      11.509  -9.027   1.059 -0.12 +0.00    +0.000 C 
DOCKED: BRANCH  19  20
DOCKED: ATOM     20  C   UNL     1      12.509  -9.965   1.671 -0.20 +0.00    +0.000 A 
DOCKED: ATOM     21  C   UNL     1      12.385 -11.345   1.840 -0.29 +0.00    +0.000 A 
DOCKED: ATOM     22  N   UNL     1      13.460 -11.846   2.493 -0.34 +0.00    +0.000 N 
DOCKED: ATOM     23  C   UNL     1      14.253 -10.793   2.758 -0.37 +0.00    +0.000 A 
DOCKED: ATOM     24  C   UNL     1      13.704  -9.629   2.279 -0.22 +0.00    +0.000 A 
DOCKED: ATOM     25  C   UNL     1      14.334  -8.396   2.455 -0.23 +0.00    +0.000 A 
DOCKED: ATOM     26  C   UNL     1      15.564  -8.377   3.135 -0.28 +0.00    +0.000 A 
DOCKED: ATOM     27  C   UNL     1      16.131  -9.576   3.623 -0.35 +0.00    +0.000 A 
DOCKED: ATOM     28  C   UNL     1      15.471 -10.804   3.437 -0.46 +0.00    +0.000 A 
DOCKED: ATOM     29  C   UNL     1      11.242 -12.182   1.363 -0.37 +0.00    +0.000 C 
DOCKED: ATOM     30  H   UNL     1      13.627 -12.788   2.726 -0.42 +0.00    +0.000 HD
DOCKED: ENDBRANCH  19  20
DOCKED: ENDBRANCH  18  19
DOCKED: ENDBRANCH   1  18
DOCKED: TORSDOF 7
DOCKED: TER
DOCKED: ENDMDL
________________________________________________________________________________


	BEGINNING GENETIC ALGORITHM DOCKING 29 of 100
Run: 29 Seed: 100429260 842086633 [ Run 29 of 100 GA/GALS ]
Beginning LAMARCKIAN GENETIC ALGORITHM (LGA), with a maximum of 2500000 energy evaluations.

Final-Value: -12.765


	FINAL GENETIC ALGORITHM DOCKED STATE
	_______________________________________________


Detailed state:  trans 15.250 -10.198 1.699 quatxyzw -0.399504 -0.751150 0.524883 0.025848 center 0.576 -0.005 0.140 ntor 7 -102.2904 -98.2302 -46.7856 -62.1799 174.8668 166.5133 76.3242
State:	 15.250 -10.198   1.699  -0.400 -0.751  0.525 177.038   -102.29  -98.23  -46.79  -62.18  174.87  166.51   76.32

DOCKED: MODEL       29
DOCKED: USER    Run = 29
DOCKED: USER    DPF = ligand_dock.biased.dpf
DOCKED: USER  
DOCKED: USER    Estimated Free Energy of Binding    =   -9.72 kcal/mol  [=(1)+(2)+(3)-(4)]
DOCKED: USER    Estimated Inhibition Constant, Ki   =   74.79 nM (nanomolar)  [Temperature = 298.15 K]
DOCKED: USER    
DOCKED: USER    (1) Final Intermolecular Energy     =  -11.81 kcal/mol
DOCKED: USER        vdW + Hbond + desolv Energy     =  -11.81 kcal/mol
DOCKED: USER        Electrostatic Energy            =   +0.00 kcal/mol
DOCKED: USER    (2) Final Total Internal Energy     =   -0.96 kcal/mol
DOCKED: USER    (3) Torsional Free Energy           =   +2.09 kcal/mol
DOCKED: USER    (4) Unbound System's Energy  [=(2)] =   -0.96 kcal/mol
DOCKED: USER    
DOCKED: USER    
DOCKED: USER    NEWDPF move ligand.pdbqt
DOCKED: USER    NEWDPF about 0.576000 -0.005000 0.140000
DOCKED: USER    NEWDPF tran0 15.249615 -10.198138 1.699380
DOCKED: USER    NEWDPF quaternion0 -0.399504 -0.751150 0.524883 0.025848
DOCKED: USER    NEWDPF axisangle0 -0.399638 -0.751401 0.525058 177.037738
DOCKED: USER    NEWDPF quat0 -0.399638 -0.751401 0.525058 177.037738
DOCKED: USER    NEWDPF dihe0 -102.29 -98.23 -46.79 -62.18 174.87 166.51 76.32 
DOCKED: USER  keepresnum = 1 
DOCKED: USER  
DOCKED: REMARK  Name = 
DOCKED: REMARK  8 active torsions:
DOCKED: REMARK  status: ('A' for Active; 'I' for Inactive)
DOCKED: REMARK    1  A    between atoms: C_2  and  C_3
DOCKED: REMARK    2  A    between atoms: C_4  and  C_5
DOCKED: REMARK    3  A    between atoms: C_8  and  C_9
DOCKED: REMARK    4  A    between atoms: C_9  and  N_10
DOCKED: REMARK    5  A    between atoms: N_10  and  C_11
DOCKED: REMARK    6  A    between atoms: C_11  and  C_12
DOCKED: REMARK    7  A    between atoms: C_12  and  C_13
DOCKED: REMARK    8  A    between atoms: C_14  and  C_22
DOCKED: REMARK                            x       y       z     vdW  Elec       q    Type
DOCKED: REMARK                         _______ _______ _______ _____ _____    ______ ____
DOCKED: USER                              x       y       z     vdW  Elec       q    Type
DOCKED: USER                           _______ _______ _______ _____ _____    ______ ____
DOCKED: ROOT
DOCKED: ATOM      1  N   UNL     1      15.691 -10.836   1.794 -0.34 +0.00    +0.000 N 
DOCKED: ATOM      2  H   UNL     1      15.592 -10.938   0.785 +0.00 +0.00    +0.000 HD
DOCKED: ATOM      3  H   UNL     1      14.933 -11.303   2.293 -0.01 +0.00    +0.000 HD
DOCKED: ENDROOT
DOCKED: BRANCH   1   4
DOCKED: ATOM      4  C   UNL     1      15.636  -9.409   2.133 -0.35 +0.00    +0.000 C 
DOCKED: BRANCH   4   8
DOCKED: ATOM      5  C   UNL     1      12.440  -8.642   4.945 -0.30 +0.00    +0.000 A 
DOCKED: ATOM      6  C   UNL     1      13.724  -9.005   5.400 -0.44 +0.00    +0.000 A 
DOCKED: ATOM      7  C   UNL     1      14.752  -9.263   4.488 -0.35 +0.00    +0.000 A 
DOCKED: ATOM      8  C   UNL     1      14.518  -9.169   3.109 -0.29 +0.00    +0.000 A 
DOCKED: ATOM      9  C   UNL     1      13.251  -8.775   2.653 -0.18 +0.00    +0.000 A 
DOCKED: ATOM     10  C   UNL     1      12.224  -8.515   3.562 -0.17 +0.00    +0.000 A 
DOCKED: BRANCH   5  12
DOCKED: ATOM     11  C   UNL     1      10.155  -9.015   5.867 -0.34 +0.00    +0.000 C 
DOCKED: ATOM     12  C   UNL     1      11.317  -8.344   5.868 -0.26 +0.00    +0.000 C 
DOCKED: BRANCH  11  14
DOCKED: ATOM     13  O   UNL     1       8.129  -7.938   6.393 -0.35 +0.00    +0.000 OA
DOCKED: ATOM     14  C   UNL     1       9.041  -8.713   6.788 -0.48 +0.00    +0.000 C 
DOCKED: ATOM     15  N   UNL     1       8.976  -9.248   8.116 -0.59 +0.00    +0.000 N 
DOCKED: ATOM     16  O   UNL     1       7.883  -9.027   8.884 -0.71 +0.00    +0.000 OA
DOCKED: ATOM     17  H   UNL     1       9.727  -9.776   8.470 -0.06 +0.00    +0.000 HD
DOCKED: ENDBRANCH  11  14
DOCKED: ENDBRANCH   5  12
DOCKED: ENDBRANCH   4   8
DOCKED: ENDBRANCH   1   4
DOCKED: BRANCH   1  18
DOCKED: ATOM     18  C   UNL     1      16.955 -11.462   2.211 -0.36 +0.00    +0.000 C 
DOCKED: BRANCH  18  19
DOCKED: ATOM     19  C   UNL     1      17.730 -12.067   1.029 -0.54 +0.00    +0.000 C 
DOCKED: BRANCH  19  20
DOCKED: ATOM     20  C   UNL     1      19.011 -11.318   0.805 -0.52 -0.00    +0.000 A 
DOCKED: ATOM     21  C   UNL     1      19.920 -10.882   1.771 -0.62 -0.00    +0.000 A 
DOCKED: ATOM     22  N   UNL     1      20.926 -10.179   1.199 -0.54 -0.00    +0.000 N 
DOCKED: ATOM     23  C   UNL     1      20.652 -10.147  -0.116 -0.59 -0.00    +0.000 A 
DOCKED: ATOM     24  C   UNL     1      19.490 -10.824  -0.395 -0.47 -0.00    +0.000 A 
DOCKED: ATOM     25  C   UNL     1      18.985 -10.909  -1.693 -0.39 -0.00    +0.000 A 
DOCKED: ATOM     26  C   UNL     1      19.711 -10.284  -2.723 -0.39 -0.00    +0.000 A 
DOCKED: ATOM     27  C   UNL     1      20.909  -9.592  -2.436 -0.48 -0.00    +0.000 A 
DOCKED: ATOM     28  C   UNL     1      21.391  -9.517  -1.117 -0.56 -0.00    +0.000 A 
DOCKED: ATOM     29  C   UNL     1      19.828 -11.152   3.239 -0.74 -0.00    +0.000 C 
DOCKED: ATOM     30  H   UNL     1      21.700  -9.774   1.655 -0.40 -0.00    +0.000 HD
DOCKED: ENDBRANCH  19  20
DOCKED: ENDBRANCH  18  19
DOCKED: ENDBRANCH   1  18
DOCKED: TORSDOF 7
DOCKED: TER
DOCKED: ENDMDL
________________________________________________________________________________


	BEGINNING GENETIC ALGORITHM DOCKING 30 of 100
Run: 30 Seed: 693558462 1679122613 [ Run 30 of 100 GA/GALS ]
Beginning LAMARCKIAN GENETIC ALGORITHM (LGA), with a maximum of 2500000 energy evaluations.

Final-Value: -12.193


	FINAL GENETIC ALGORITHM DOCKED STATE
	_______________________________________________


Detailed state:  trans 14.983 -11.786 -1.102 quatxyzw -0.178914 0.958708 0.213575 0.057040 center 0.576 -0.005 0.140 ntor 7 -62.1640 118.3394 135.2090 39.4684 -53.8661 15.3010 -91.5408
State:	 14.983 -11.786  -1.102  -0.179  0.960  0.214 173.460    -62.16  118.34  135.21   39.47  -53.87   15.30  -91.54

DOCKED: MODEL       30
DOCKED: USER    Run = 30
DOCKED: USER    DPF = ligand_dock.biased.dpf
DOCKED: USER  
DOCKED: USER    Estimated Free Energy of Binding    =   -8.59 kcal/mol  [=(1)+(2)+(3)-(4)]
DOCKED: USER    Estimated Inhibition Constant, Ki   =  503.25 nM (nanomolar)  [Temperature = 298.15 K]
DOCKED: USER    
DOCKED: USER    (1) Final Intermolecular Energy     =  -10.68 kcal/mol
DOCKED: USER        vdW + Hbond + desolv Energy     =  -10.68 kcal/mol
DOCKED: USER        Electrostatic Energy            =   +0.00 kcal/mol
DOCKED: USER    (2) Final Total Internal Energy     =   -1.51 kcal/mol
DOCKED: USER    (3) Torsional Free Energy           =   +2.09 kcal/mol
DOCKED: USER    (4) Unbound System's Energy  [=(2)] =   -1.51 kcal/mol
DOCKED: USER    
DOCKED: USER    
DOCKED: USER    NEWDPF move ligand.pdbqt
DOCKED: USER    NEWDPF about 0.576000 -0.005000 0.140000
DOCKED: USER    NEWDPF tran0 14.982861 -11.785813 -1.101839
DOCKED: USER    NEWDPF quaternion0 -0.178914 0.958708 0.213575 0.057040
DOCKED: USER    NEWDPF axisangle0 -0.179206 0.960272 0.213923 173.460095
DOCKED: USER    NEWDPF quat0 -0.179206 0.960272 0.213923 173.460095
DOCKED: USER    NEWDPF dihe0 -62.16 118.34 135.21 39.47 -53.87 15.30 -91.54 
DOCKED: USER  keepresnum = 1 
DOCKED: USER  
DOCKED: REMARK  Name = 
DOCKED: REMARK  8 active torsions:
DOCKED: REMARK  status: ('A' for Active; 'I' for Inactive)
DOCKED: REMARK    1  A    between atoms: C_2  and  C_3
DOCKED: REMARK    2  A    between atoms: C_4  and  C_5
DOCKED: REMARK    3  A    between atoms: C_8  and  C_9
DOCKED: REMARK    4  A    between atoms: C_9  and  N_10
DOCKED: REMARK    5  A    between atoms: N_10  and  C_11
DOCKED: REMARK    6  A    between atoms: C_11  and  C_12
DOCKED: REMARK    7  A    between atoms: C_12  and  C_13
DOCKED: REMARK    8  A    between atoms: C_14  and  C_22
DOCKED: REMARK                            x       y       z     vdW  Elec       q    Type
DOCKED: REMARK                         _______ _______ _______ _____ _____    ______ ____
DOCKED: USER                              x       y       z     vdW  Elec       q    Type
DOCKED: USER                           _______ _______ _______ _____ _____    ______ ____
DOCKED: ROOT
DOCKED: ATOM      1  N   UNL     1      15.546 -11.304  -1.349 -0.30 +0.00    +0.000 N 
DOCKED: ATOM      2  H   UNL     1      14.778 -10.664  -1.549 -0.00 -0.00    +0.000 HD
DOCKED: ATOM      3  H   UNL     1      15.739 -11.915  -2.143 +0.00 +0.00    +0.000 HD
DOCKED: ENDROOT
DOCKED: BRANCH   1   4
DOCKED: ATOM      4  C   UNL     1      15.169 -12.154  -0.213 -0.49 +0.00    +0.000 C 
DOCKED: BRANCH   4   8
DOCKED: ATOM      5  C   UNL     1      13.479  -9.660   2.891 -0.24 +0.00    +0.000 A 
DOCKED: ATOM      6  C   UNL     1      14.329 -10.735   3.219 -0.37 +0.00    +0.000 A 
DOCKED: ATOM      7  C   UNL     1      14.865 -11.547   2.214 -0.43 +0.00    +0.000 A 
DOCKED: ATOM      8  C   UNL     1      14.560 -11.303   0.867 -0.35 +0.00    +0.000 A 
DOCKED: ATOM      9  C   UNL     1      13.742 -10.214   0.535 -0.21 +0.00    +0.000 A 
DOCKED: ATOM     10  C   UNL     1      13.207  -9.401   1.537 -0.16 +0.00    +0.000 A 
DOCKED: BRANCH   5  12
DOCKED: ATOM     11  C   UNL     1      13.432  -7.582   4.266 -0.28 +0.00    +0.000 C 
DOCKED: ATOM     12  C   UNL     1      12.894  -8.760   3.916 -0.27 +0.00    +0.000 C 
DOCKED: BRANCH  11  14
DOCKED: ATOM     13  O   UNL     1      13.611  -6.182   6.151 -0.99 +0.00    +0.000 OA
DOCKED: ATOM     14  C   UNL     1      12.846  -6.691   5.288 -0.32 +0.00    +0.000 C 
DOCKED: ATOM     15  N   UNL     1      11.442  -6.411   5.348 -0.25 +0.00    +0.000 N 
DOCKED: ATOM     16  O   UNL     1      10.968  -5.508   6.237 -0.28 +0.00    +0.000 OA
DOCKED: ATOM     17  H   UNL     1      10.822  -6.877   4.742 +0.00 +0.00    +0.000 HD
DOCKED: ENDBRANCH  11  14
DOCKED: ENDBRANCH   5  12
DOCKED: ENDBRANCH   4   8
DOCKED: ENDBRANCH   1   4
DOCKED: BRANCH   1  18
DOCKED: ATOM     18  C   UNL     1      16.760 -10.518  -1.082 -0.30 -0.00    +0.000 C 
DOCKED: BRANCH  18  19
DOCKED: ATOM     19  C   UNL     1      18.046 -11.272  -1.459 -0.27 -0.00    +0.000 C 
DOCKED: BRANCH  19  20
DOCKED: ATOM     20  C   UNL     1      19.149 -10.940  -0.497 -0.45 -0.00    +0.000 A 
DOCKED: ATOM     21  C   UNL     1      20.472 -10.615  -0.803 -0.53 -0.00    +0.000 A 
DOCKED: ATOM     22  N   UNL     1      21.197 -10.444   0.328 -0.65 -0.00    +0.000 N 
DOCKED: ATOM     23  C   UNL     1      20.350 -10.678   1.346 -0.60 -0.00    +0.000 A 
DOCKED: ATOM     24  C   UNL     1      19.096 -10.990   0.883 -0.51 -0.00    +0.000 A 
DOCKED: ATOM     25  C   UNL     1      18.049 -11.297   1.754 -0.45 -0.00    +0.000 A 
DOCKED: ATOM     26  C   UNL     1      18.314 -11.270   3.135 -0.33 +0.00    +0.000 A 
DOCKED: ATOM     27  C   UNL     1      19.603 -10.944   3.610 -0.51 -0.00    +0.000 A 
DOCKED: ATOM     28  C   UNL     1      20.641 -10.645   2.709 -0.39 -0.00    +0.000 A 
DOCKED: ATOM     29  C   UNL     1      21.036 -10.458  -2.179 -0.57 -0.00    +0.000 C 
DOCKED: ATOM     30  H   UNL     1      22.148 -10.199   0.392 -0.18 -0.00    +0.000 HD
DOCKED: ENDBRANCH  19  20
DOCKED: ENDBRANCH  18  19
DOCKED: ENDBRANCH   1  18
DOCKED: TORSDOF 7
DOCKED: TER
DOCKED: ENDMDL
________________________________________________________________________________


	BEGINNING GENETIC ALGORITHM DOCKING 31 of 100
Run: 31 Seed: 1168814205 540128832 [ Run 31 of 100 GA/GALS ]
Beginning LAMARCKIAN GENETIC ALGORITHM (LGA), with a maximum of 2500000 energy evaluations.

Final-Value: -14.683


	FINAL GENETIC ALGORITHM DOCKED STATE
	_______________________________________________


Detailed state:  trans 20.455 -10.843 -6.407 quatxyzw 0.136283 0.812460 -0.563949 0.057420 center 0.576 -0.005 0.140 ntor 7 -34.6911 110.9200 -12.0089 5.3359 -17.2627 -141.6882 97.6156
State:	 20.455 -10.843  -6.407   0.137  0.814 -0.565 173.416    -34.69  110.92  -12.01    5.34  -17.26 -141.69   97.62

DOCKED: MODEL       31
DOCKED: USER    Run = 31
DOCKED: USER    DPF = ligand_dock.biased.dpf
DOCKED: USER  
DOCKED: USER    Estimated Free Energy of Binding    =  -11.51 kcal/mol  [=(1)+(2)+(3)-(4)]
DOCKED: USER    Estimated Inhibition Constant, Ki   =    3.67 nM (nanomolar)  [Temperature = 298.15 K]
DOCKED: USER    
DOCKED: USER    (1) Final Intermolecular Energy     =  -13.60 kcal/mol
DOCKED: USER        vdW + Hbond + desolv Energy     =  -13.60 kcal/mol
DOCKED: USER        Electrostatic Energy            =   +0.00 kcal/mol
DOCKED: USER    (2) Final Total Internal Energy     =   -1.09 kcal/mol
DOCKED: USER    (3) Torsional Free Energy           =   +2.09 kcal/mol
DOCKED: USER    (4) Unbound System's Energy  [=(2)] =   -1.09 kcal/mol
DOCKED: USER    
DOCKED: USER    
DOCKED: USER    NEWDPF move ligand.pdbqt
DOCKED: USER    NEWDPF about 0.576000 -0.005000 0.140000
DOCKED: USER    NEWDPF tran0 20.455383 -10.843378 -6.407332
DOCKED: USER    NEWDPF quaternion0 0.136283 0.812460 -0.563949 0.057420
DOCKED: USER    NEWDPF axisangle0 0.136508 0.813803 -0.564881 173.416476
DOCKED: USER    NEWDPF quat0 0.136508 0.813803 -0.564881 173.416476
DOCKED: USER    NEWDPF dihe0 -34.69 110.92 -12.01 5.34 -17.26 -141.69 97.62 
DOCKED: USER  keepresnum = 1 
DOCKED: USER  
DOCKED: REMARK  Name = 
DOCKED: REMARK  8 active torsions:
DOCKED: REMARK  status: ('A' for Active; 'I' for Inactive)
DOCKED: REMARK    1  A    between atoms: C_2  and  C_3
DOCKED: REMARK    2  A    between atoms: C_4  and  C_5
DOCKED: REMARK    3  A    between atoms: C_8  and  C_9
DOCKED: REMARK    4  A    between atoms: C_9  and  N_10
DOCKED: REMARK    5  A    between atoms: N_10  and  C_11
DOCKED: REMARK    6  A    between atoms: C_11  and  C_12
DOCKED: REMARK    7  A    between atoms: C_12  and  C_13
DOCKED: REMARK    8  A    between atoms: C_14  and  C_22
DOCKED: REMARK                            x       y       z     vdW  Elec       q    Type
DOCKED: REMARK                         _______ _______ _______ _____ _____    ______ ____
DOCKED: USER                              x       y       z     vdW  Elec       q    Type
DOCKED: USER                           _______ _______ _______ _____ _____    ______ ____
DOCKED: ROOT
DOCKED: ATOM      1  N   UNL     1      21.077 -11.282  -6.587 -0.23 -0.00    +0.000 N 
DOCKED: ATOM      2  H   UNL     1      20.594 -11.434  -7.472 -0.26 -0.00    +0.000 HD
DOCKED: ATOM      3  H   UNL     1      20.805 -11.976  -5.890 -0.44 -0.00    +0.000 HD
DOCKED: ENDROOT
DOCKED: BRANCH   1   4
DOCKED: ATOM      4  C   UNL     1      20.708  -9.959  -6.068 -0.30 -0.00    +0.000 C 
DOCKED: BRANCH   4   8
DOCKED: ATOM      5  C   UNL     1      20.411 -10.214  -1.760 -0.49 -0.00    +0.000 A 
DOCKED: ATOM      6  C   UNL     1      19.249 -10.162  -2.557 -0.32 -0.00    +0.000 A 
DOCKED: ATOM      7  C   UNL     1      19.349 -10.068  -3.948 -0.31 -0.00    +0.000 A 
DOCKED: ATOM      8  C   UNL     1      20.605 -10.020  -4.569 -0.35 -0.00    +0.000 A 
DOCKED: ATOM      9  C   UNL     1      21.763 -10.106  -3.782 -0.35 -0.00    +0.000 A 
DOCKED: ATOM     10  C   UNL     1      21.666 -10.202  -2.392 -0.32 -0.00    +0.000 A 
DOCKED: BRANCH   5  12
DOCKED: ATOM     11  C   UNL     1      20.312 -11.497   0.375 -0.53 -0.00    +0.000 C 
DOCKED: ATOM     12  C   UNL     1      20.363 -10.327  -0.281 -0.63 -0.00    +0.000 C 
DOCKED: BRANCH  11  14
DOCKED: ATOM     13  O   UNL     1      19.875 -12.686   2.359 -1.58 -0.00    +0.000 OA
DOCKED: ATOM     14  C   UNL     1      20.262 -11.602   1.847 -0.78 -0.00    +0.000 C 
DOCKED: ATOM     15  N   UNL     1      20.612 -10.510   2.707 -0.60 -0.00    +0.000 N 
DOCKED: ATOM     16  O   UNL     1      20.652 -10.689   4.048 -1.04 -0.00    +0.000 OA
DOCKED: ATOM     17  H   UNL     1      20.824  -9.630   2.321 -0.55 -0.00    +0.000 HD
DOCKED: ENDBRANCH  11  14
DOCKED: ENDBRANCH   5  12
DOCKED: ENDBRANCH   4   8
DOCKED: ENDBRANCH   1   4
DOCKED: BRANCH   1  18
DOCKED: ATOM     18  C   UNL     1      22.524 -11.412  -6.809 -0.47 -0.00    +0.000 C 
DOCKED: BRANCH  18  19
DOCKED: ATOM     19  C   UNL     1      23.023 -10.536  -7.970 -0.31 -0.00    +0.000 C 
DOCKED: BRANCH  19  20
DOCKED: ATOM     20  C   UNL     1      24.499 -10.724  -8.171 -0.32 -0.00    +0.000 A 
DOCKED: ATOM     21  C   UNL     1      25.140 -11.786  -8.813 -0.39 -0.00    +0.000 A 
DOCKED: ATOM     22  N   UNL     1      26.485 -11.647  -8.740 -0.37 -0.00    +0.000 N 
DOCKED: ATOM     23  C   UNL     1      26.701 -10.520  -8.041 -0.38 -0.00    +0.000 A 
DOCKED: ATOM     24  C   UNL     1      25.516  -9.933  -7.671 -0.31 -0.00    +0.000 A 
DOCKED: ATOM     25  C   UNL     1      25.484  -8.761  -6.914 -0.16 -0.00    +0.000 A 
DOCKED: ATOM     26  C   UNL     1      26.712  -8.184  -6.544 -0.27 -0.00    +0.000 A 
DOCKED: ATOM     27  C   UNL     1      27.931  -8.785  -6.929 -0.39 -0.00    +0.000 A 
DOCKED: ATOM     28  C   UNL     1      27.933  -9.971  -7.686 -0.44 -0.00    +0.000 A 
DOCKED: ATOM     29  C   UNL     1      24.461 -12.924  -9.505 -0.40 -0.00    +0.000 C 
DOCKED: ATOM     30  H   UNL     1      27.165 -12.249  -9.121 -0.29 -0.00    +0.000 HD
DOCKED: ENDBRANCH  19  20
DOCKED: ENDBRANCH  18  19
DOCKED: ENDBRANCH   1  18
DOCKED: TORSDOF 7
DOCKED: TER
DOCKED: ENDMDL
________________________________________________________________________________


	BEGINNING GENETIC ALGORITHM DOCKING 32 of 100
Run: 32 Seed: 455326840 1992896471 [ Run 32 of 100 GA/GALS ]
Beginning LAMARCKIAN GENETIC ALGORITHM (LGA), with a maximum of 2500000 energy evaluations.

Final-Value: -13.427


	FINAL GENETIC ALGORITHM DOCKED STATE
	_______________________________________________


Detailed state:  trans 14.609 -12.549 1.074 quatxyzw 0.071610 -0.421306 0.902993 0.044456 center 0.576 -0.005 0.140 ntor 7 -132.4501 -175.7410 -146.0478 -29.8257 -69.8662 -60.2980 99.6198
State:	 14.609 -12.549   1.074   0.072 -0.422  0.904 174.904   -132.45 -175.74 -146.05  -29.83  -69.87  -60.30   99.62

DOCKED: MODEL       32
DOCKED: USER    Run = 32
DOCKED: USER    DPF = ligand_dock.biased.dpf
DOCKED: USER  
DOCKED: USER    Estimated Free Energy of Binding    =  -10.18 kcal/mol  [=(1)+(2)+(3)-(4)]
DOCKED: USER    Estimated Inhibition Constant, Ki   =   34.29 nM (nanomolar)  [Temperature = 298.15 K]
DOCKED: USER    
DOCKED: USER    (1) Final Intermolecular Energy     =  -12.27 kcal/mol
DOCKED: USER        vdW + Hbond + desolv Energy     =  -12.27 kcal/mol
DOCKED: USER        Electrostatic Energy            =   +0.00 kcal/mol
DOCKED: USER    (2) Final Total Internal Energy     =   -1.15 kcal/mol
DOCKED: USER    (3) Torsional Free Energy           =   +2.09 kcal/mol
DOCKED: USER    (4) Unbound System's Energy  [=(2)] =   -1.15 kcal/mol
DOCKED: USER    
DOCKED: USER    
DOCKED: USER    NEWDPF move ligand.pdbqt
DOCKED: USER    NEWDPF about 0.576000 -0.005000 0.140000
DOCKED: USER    NEWDPF tran0 14.608789 -12.548839 1.074284
DOCKED: USER    NEWDPF quaternion0 0.071610 -0.421306 0.902993 0.044456
DOCKED: USER    NEWDPF axisangle0 0.071681 -0.421723 0.903887 174.903983
DOCKED: USER    NEWDPF quat0 0.071681 -0.421723 0.903887 174.903983
DOCKED: USER    NEWDPF dihe0 -132.45 -175.74 -146.05 -29.83 -69.87 -60.30 99.62 
DOCKED: USER  keepresnum = 1 
DOCKED: USER  
DOCKED: REMARK  Name = 
DOCKED: REMARK  8 active torsions:
DOCKED: REMARK  status: ('A' for Active; 'I' for Inactive)
DOCKED: REMARK    1  A    between atoms: C_2  and  C_3
DOCKED: REMARK    2  A    between atoms: C_4  and  C_5
DOCKED: REMARK    3  A    between atoms: C_8  and  C_9
DOCKED: REMARK    4  A    between atoms: C_9  and  N_10
DOCKED: REMARK    5  A    between atoms: N_10  and  C_11
DOCKED: REMARK    6  A    between atoms: C_11  and  C_12
DOCKED: REMARK    7  A    between atoms: C_12  and  C_13
DOCKED: REMARK    8  A    between atoms: C_14  and  C_22
DOCKED: REMARK                            x       y       z     vdW  Elec       q    Type
DOCKED: REMARK                         _______ _______ _______ _____ _____    ______ ____
DOCKED: USER                              x       y       z     vdW  Elec       q    Type
DOCKED: USER                           _______ _______ _______ _____ _____    ______ ____
DOCKED: ROOT
DOCKED: ATOM      1  N   UNL     1      15.361 -12.758   1.111 -0.38 +0.00    +0.000 N 
DOCKED: ATOM      2  H   UNL     1      15.005 -13.704   0.980 -0.00 +0.00    +0.000 HD
DOCKED: ATOM      3  H   UNL     1      15.398 -12.505   2.099 -0.05 +0.00    +0.000 HD
DOCKED: ENDROOT
DOCKED: BRANCH   1   4
DOCKED: ATOM      4  C   UNL     1      14.454 -11.816   0.442 -0.45 +0.00    +0.000 C 
DOCKED: BRANCH   4   8
DOCKED: ATOM      5  C   UNL     1      14.255  -8.166   2.755 -0.23 +0.00    +0.000 A 
DOCKED: ATOM      6  C   UNL     1      13.207  -8.518   1.880 -0.15 +0.00    +0.000 A 
DOCKED: ATOM      7  C   UNL     1      13.281  -9.693   1.125 -0.17 +0.00    +0.000 A 
DOCKED: ATOM      8  C   UNL     1      14.398 -10.534   1.226 -0.26 +0.00    +0.000 A 
DOCKED: ATOM      9  C   UNL     1      15.427 -10.204   2.121 -0.32 +0.00    +0.000 A 
DOCKED: ATOM     10  C   UNL     1      15.355  -9.032   2.877 -0.33 +0.00    +0.000 A 
DOCKED: BRANCH   5  12
DOCKED: ATOM     11  C   UNL     1      15.000  -6.752   4.667 -0.46 +0.00    +0.000 C 
DOCKED: ATOM     12  C   UNL     1      14.223  -6.939   3.589 -0.29 +0.00    +0.000 C 
DOCKED: BRANCH  11  14
DOCKED: ATOM     13  O   UNL     1      13.903  -5.259   6.121 -1.04 +0.00    +0.000 OA
DOCKED: ATOM     14  C   UNL     1      14.962  -5.529   5.494 -0.45 +0.00    +0.000 C 
DOCKED: ATOM     15  N   UNL     1      16.075  -4.629   5.584 -0.45 -0.00    +0.000 N 
DOCKED: ATOM     16  O   UNL     1      16.030  -3.578   6.436 -0.67 +0.00    +0.000 OA
DOCKED: ATOM     17  H   UNL     1      16.872  -4.776   5.026 -0.58 -0.00    +0.000 HD
DOCKED: ENDBRANCH  11  14
DOCKED: ENDBRANCH   5  12
DOCKED: ENDBRANCH   4   8
DOCKED: ENDBRANCH   1   4
DOCKED: BRANCH   1  18
DOCKED: ATOM     18  C   UNL     1      16.730 -12.689   0.578 -0.48 +0.00    +0.000 C 
DOCKED: BRANCH  18  19
DOCKED: ATOM     19  C   UNL     1      16.956 -11.456  -0.311 -0.41 +0.00    +0.000 C 
DOCKED: BRANCH  19  20
DOCKED: ATOM     20  C   UNL     1      18.361 -10.950  -0.158 -0.39 -0.00    +0.000 A 
DOCKED: ATOM     21  C   UNL     1      19.005 -10.579   1.024 -0.45 -0.00    +0.000 A 
DOCKED: ATOM     22  N   UNL     1      20.247 -10.107   0.764 -0.57 -0.00    +0.000 N 
DOCKED: ATOM     23  C   UNL     1      20.388 -10.156  -0.572 -0.55 -0.00    +0.000 A 
DOCKED: ATOM     24  C   UNL     1      19.258 -10.657  -1.169 -0.40 -0.00    +0.000 A 
DOCKED: ATOM     25  C   UNL     1      19.156 -10.782  -2.555 -0.37 -0.00    +0.000 A 
DOCKED: ATOM     26  C   UNL     1      20.257 -10.385  -3.334 -0.42 -0.00    +0.000 A 
DOCKED: ATOM     27  C   UNL     1      21.422  -9.874  -2.718 -0.46 -0.00    +0.000 A 
DOCKED: ATOM     28  C   UNL     1      21.494  -9.753  -1.319 -0.48 -0.00    +0.000 A 
DOCKED: ATOM     29  C   UNL     1      18.432 -10.689   2.401 -0.58 -0.00    +0.000 C 
DOCKED: ATOM     30  H   UNL     1      20.911  -9.791   1.420 -0.43 -0.00    +0.000 HD
DOCKED: ENDBRANCH  19  20
DOCKED: ENDBRANCH  18  19
DOCKED: ENDBRANCH   1  18
DOCKED: TORSDOF 7
DOCKED: TER
DOCKED: ENDMDL
________________________________________________________________________________


	BEGINNING GENETIC ALGORITHM DOCKING 33 of 100
Run: 33 Seed: 469895534 259666987 [ Run 33 of 100 GA/GALS ]
Beginning LAMARCKIAN GENETIC ALGORITHM (LGA), with a maximum of 2500000 energy evaluations.

Final-Value: -13.637


	FINAL GENETIC ALGORITHM DOCKED STATE
	_______________________________________________


Detailed state:  trans 20.543 -10.819 -8.278 quatxyzw 0.103017 0.928400 -0.165527 -0.316325 center 0.576 -0.005 0.140 ntor 7 127.4871 -150.9137 -43.0396 71.1361 -161.2160 172.8999 172.6241
State:	 20.543 -10.819  -8.278   0.109  0.979 -0.174 -143.118    127.49 -150.91  -43.04   71.14 -161.22  172.90  172.62

DOCKED: MODEL       33
DOCKED: USER    Run = 33
DOCKED: USER    DPF = ligand_dock.biased.dpf
DOCKED: USER  
DOCKED: USER    Estimated Free Energy of Binding    =  -10.55 kcal/mol  [=(1)+(2)+(3)-(4)]
DOCKED: USER    Estimated Inhibition Constant, Ki   =   18.35 nM (nanomolar)  [Temperature = 298.15 K]
DOCKED: USER    
DOCKED: USER    (1) Final Intermolecular Energy     =  -12.64 kcal/mol
DOCKED: USER        vdW + Hbond + desolv Energy     =  -12.64 kcal/mol
DOCKED: USER        Electrostatic Energy            =   +0.00 kcal/mol
DOCKED: USER    (2) Final Total Internal Energy     =   -0.99 kcal/mol
DOCKED: USER    (3) Torsional Free Energy           =   +2.09 kcal/mol
DOCKED: USER    (4) Unbound System's Energy  [=(2)] =   -0.99 kcal/mol
DOCKED: USER    
DOCKED: USER    
DOCKED: USER    NEWDPF move ligand.pdbqt
DOCKED: USER    NEWDPF about 0.576000 -0.005000 0.140000
DOCKED: USER    NEWDPF tran0 20.543356 -10.819323 -8.277646
DOCKED: USER    NEWDPF quaternion0 0.103017 0.928400 -0.165527 -0.316325
DOCKED: USER    NEWDPF axisangle0 0.108593 0.978653 -0.174487 -143.118301
DOCKED: USER    NEWDPF quat0 0.108593 0.978653 -0.174487 -143.118301
DOCKED: USER    NEWDPF dihe0 127.49 -150.91 -43.04 71.14 -161.22 172.90 172.62 
DOCKED: USER  keepresnum = 1 
DOCKED: USER  
DOCKED: REMARK  Name = 
DOCKED: REMARK  8 active torsions:
DOCKED: REMARK  status: ('A' for Active; 'I' for Inactive)
DOCKED: REMARK    1  A    between atoms: C_2  and  C_3
DOCKED: REMARK    2  A    between atoms: C_4  and  C_5
DOCKED: REMARK    3  A    between atoms: C_8  and  C_9
DOCKED: REMARK    4  A    between atoms: C_9  and  N_10
DOCKED: REMARK    5  A    between atoms: N_10  and  C_11
DOCKED: REMARK    6  A    between atoms: C_11  and  C_12
DOCKED: REMARK    7  A    between atoms: C_12  and  C_13
DOCKED: REMARK    8  A    between atoms: C_14  and  C_22
DOCKED: REMARK                            x       y       z     vdW  Elec       q    Type
DOCKED: REMARK                         _______ _______ _______ _____ _____    ______ ____
DOCKED: USER                              x       y       z     vdW  Elec       q    Type
DOCKED: USER                           _______ _______ _______ _____ _____    ______ ____
DOCKED: ROOT
DOCKED: ATOM      1  N   UNL     1      21.301 -10.883  -8.094 -0.27 -0.00    +0.000 N 
DOCKED: ATOM      2  H   UNL     1      21.457 -10.408  -8.983 -0.01 -0.00    +0.000 HD
DOCKED: ATOM      3  H   UNL     1      21.259 -11.895  -8.214 -0.47 -0.00    +0.000 HD
DOCKED: ENDROOT
DOCKED: BRANCH   1   4
DOCKED: ATOM      4  C   UNL     1      20.012 -10.444  -7.545 -0.28 -0.00    +0.000 C 
DOCKED: BRANCH   4   8
DOCKED: ATOM      5  C   UNL     1      20.276  -9.996  -3.251 -0.41 -0.00    +0.000 A 
DOCKED: ATOM      6  C   UNL     1      20.110  -8.869  -4.080 -0.27 -0.00    +0.000 A 
DOCKED: ATOM      7  C   UNL     1      20.037  -9.016  -5.469 -0.18 -0.00    +0.000 A 
DOCKED: ATOM      8  C   UNL     1      20.131 -10.286  -6.054 -0.28 -0.00    +0.000 A 
DOCKED: ATOM      9  C   UNL     1      20.263 -11.414  -5.230 -0.44 -0.00    +0.000 A 
DOCKED: ATOM     10  C   UNL     1      20.335 -11.269  -3.843 -0.38 -0.00    +0.000 A 
DOCKED: BRANCH   5  12
DOCKED: ATOM     11  C   UNL     1      20.627 -10.938  -0.970 -0.44 -0.00    +0.000 C 
DOCKED: ATOM     12  C   UNL     1      20.348  -9.899  -1.772 -0.53 -0.00    +0.000 C 
DOCKED: BRANCH  11  14
DOCKED: ATOM     13  O   UNL     1      21.158  -9.780   1.009 -0.60 -0.00    +0.000 OA
DOCKED: ATOM     14  C   UNL     1      20.695 -10.836   0.501 -0.70 -0.00    +0.000 C 
DOCKED: ATOM     15  N   UNL     1      20.280 -11.902   1.365 -0.70 -0.00    +0.000 N 
DOCKED: ATOM     16  O   UNL     1      20.263 -11.721   2.706 -1.77 -0.00    +0.000 OA
DOCKED: ATOM     17  H   UNL     1      20.007 -12.766   0.982 -0.27 -0.00    +0.000 HD
DOCKED: ENDBRANCH  11  14
DOCKED: ENDBRANCH   5  12
DOCKED: ENDBRANCH   4   8
DOCKED: ENDBRANCH   1   4
DOCKED: BRANCH   1  18
DOCKED: ATOM     18  C   UNL     1      22.424 -10.583  -7.194 -0.36 -0.00    +0.000 C 
DOCKED: BRANCH  18  19
DOCKED: ATOM     19  C   UNL     1      23.391  -9.544  -7.785 -0.24 -0.00    +0.000 C 
DOCKED: BRANCH  19  20
DOCKED: ATOM     20  C   UNL     1      24.723 -10.174  -8.073 -0.29 -0.00    +0.000 A 
DOCKED: ATOM     21  C   UNL     1      24.967 -11.379  -8.734 -0.36 -0.00    +0.000 A 
DOCKED: ATOM     22  N   UNL     1      26.291 -11.659  -8.747 -0.40 -0.00    +0.000 N 
DOCKED: ATOM     23  C   UNL     1      26.886 -10.653  -8.083 -0.33 -0.00    +0.000 A 
DOCKED: ATOM     24  C   UNL     1      25.964  -9.733  -7.651 -0.33 -0.00    +0.000 A 
DOCKED: ATOM     25  C   UNL     1      26.340  -8.608  -6.915 -0.29 -0.00    +0.000 A 
DOCKED: ATOM     26  C   UNL     1      27.706  -8.435  -6.632 -0.38 -0.00    +0.000 A 
DOCKED: ATOM     27  C   UNL     1      28.656  -9.380  -7.081 -0.44 -0.00    +0.000 A 
DOCKED: ATOM     28  C   UNL     1      28.247 -10.508  -7.815 -0.42 -0.00    +0.000 A 
DOCKED: ATOM     29  C   UNL     1      23.929 -12.254  -9.362 -0.38 -0.00    +0.000 C 
DOCKED: ATOM     30  H   UNL     1      26.729 -12.439  -9.159 -0.42 -0.00    +0.000 HD
DOCKED: ENDBRANCH  19  20
DOCKED: ENDBRANCH  18  19
DOCKED: ENDBRANCH   1  18
DOCKED: TORSDOF 7
DOCKED: TER
DOCKED: ENDMDL
________________________________________________________________________________


	BEGINNING GENETIC ALGORITHM DOCKING 34 of 100
Run: 34 Seed: 1128955034 10225849 [ Run 34 of 100 GA/GALS ]
Beginning LAMARCKIAN GENETIC ALGORITHM (LGA), with a maximum of 2500000 energy evaluations.

Final-Value: -13.132


	FINAL GENETIC ALGORITHM DOCKED STATE
	_______________________________________________


Detailed state:  trans 15.411 -11.201 3.633 quatxyzw -0.191742 0.895078 -0.281638 0.287665 center 0.576 -0.005 0.140 ntor 7 -115.3182 139.2995 -38.4999 48.1131 74.7775 77.2779 -54.2691
State:	 15.411 -11.201   3.633  -0.200  0.935 -0.294 146.564   -115.32  139.30  -38.50   48.11   74.78   77.28  -54.27

DOCKED: MODEL       34
DOCKED: USER    Run = 34
DOCKED: USER    DPF = ligand_dock.biased.dpf
DOCKED: USER  
DOCKED: USER    Estimated Free Energy of Binding    =  -10.21 kcal/mol  [=(1)+(2)+(3)-(4)]
DOCKED: USER    Estimated Inhibition Constant, Ki   =   32.54 nM (nanomolar)  [Temperature = 298.15 K]
DOCKED: USER    
DOCKED: USER    (1) Final Intermolecular Energy     =  -12.30 kcal/mol
DOCKED: USER        vdW + Hbond + desolv Energy     =  -12.30 kcal/mol
DOCKED: USER        Electrostatic Energy            =   +0.00 kcal/mol
DOCKED: USER    (2) Final Total Internal Energy     =   -0.83 kcal/mol
DOCKED: USER    (3) Torsional Free Energy           =   +2.09 kcal/mol
DOCKED: USER    (4) Unbound System's Energy  [=(2)] =   -0.83 kcal/mol
DOCKED: USER    
DOCKED: USER    
DOCKED: USER    NEWDPF move ligand.pdbqt
DOCKED: USER    NEWDPF about 0.576000 -0.005000 0.140000
DOCKED: USER    NEWDPF tran0 15.411465 -11.200737 3.633425
DOCKED: USER    NEWDPF quaternion0 -0.191742 0.895078 -0.281638 0.287665
DOCKED: USER    NEWDPF axisangle0 -0.200204 0.934582 -0.294067 146.563605
DOCKED: USER    NEWDPF quat0 -0.200204 0.934582 -0.294067 146.563605
DOCKED: USER    NEWDPF dihe0 -115.32 139.30 -38.50 48.11 74.78 77.28 -54.27 
DOCKED: USER  keepresnum = 1 
DOCKED: USER  
DOCKED: REMARK  Name = 
DOCKED: REMARK  8 active torsions:
DOCKED: REMARK  status: ('A' for Active; 'I' for Inactive)
DOCKED: REMARK    1  A    between atoms: C_2  and  C_3
DOCKED: REMARK    2  A    between atoms: C_4  and  C_5
DOCKED: REMARK    3  A    between atoms: C_8  and  C_9
DOCKED: REMARK    4  A    between atoms: C_9  and  N_10
DOCKED: REMARK    5  A    between atoms: N_10  and  C_11
DOCKED: REMARK    6  A    between atoms: C_11  and  C_12
DOCKED: REMARK    7  A    between atoms: C_12  and  C_13
DOCKED: REMARK    8  A    between atoms: C_14  and  C_22
DOCKED: REMARK                            x       y       z     vdW  Elec       q    Type
DOCKED: REMARK                         _______ _______ _______ _____ _____    ______ ____
DOCKED: USER                              x       y       z     vdW  Elec       q    Type
DOCKED: USER                           _______ _______ _______ _____ _____    ______ ____
DOCKED: ROOT
DOCKED: ATOM      1  N   UNL     1      15.765 -11.167   2.937 -0.47 +0.00    +0.000 N 
DOCKED: ATOM      2  H   UNL     1      14.820 -11.067   2.569 -0.01 +0.00    +0.000 HD
DOCKED: ATOM      3  H   UNL     1      16.035 -12.149   3.012 -0.03 +0.00    +0.000 HD
DOCKED: ENDROOT
DOCKED: BRANCH   1   4
DOCKED: ATOM      4  C   UNL     1      15.811 -10.588   4.285 -0.46 +0.00    +0.000 C 
DOCKED: BRANCH   4   8
DOCKED: ATOM      5  C   UNL     1      12.051  -8.616   5.113 -0.29 +0.00    +0.000 A 
DOCKED: ATOM      6  C   UNL     1      12.374  -9.023   3.803 -0.19 +0.00    +0.000 A 
DOCKED: ATOM      7  C   UNL     1      13.595  -9.649   3.537 -0.27 +0.00    +0.000 A 
DOCKED: ATOM      8  C   UNL     1      14.516  -9.878   4.569 -0.38 +0.00    +0.000 A 
DOCKED: ATOM      9  C   UNL     1      14.185  -9.505   5.880 -0.33 +0.00    +0.000 A 
DOCKED: ATOM     10  C   UNL     1      12.965  -8.880   6.148 -0.31 +0.00    +0.000 A 
DOCKED: BRANCH   5  12
DOCKED: ATOM     11  C   UNL     1       9.852  -8.493   6.278 -0.38 +0.00    +0.000 C 
DOCKED: ATOM     12  C   UNL     1      10.765  -7.958   5.453 -0.29 +0.00    +0.000 C 
DOCKED: BRANCH  11  14
DOCKED: ATOM     13  O   UNL     1       7.615  -7.935   5.799 -0.29 +0.00    +0.000 OA
DOCKED: ATOM     14  C   UNL     1       8.573  -7.834   6.612 -0.39 +0.00    +0.000 C 
DOCKED: ATOM     15  N   UNL     1       8.394  -7.067   7.809 -0.50 +0.00    +0.000 N 
DOCKED: ATOM     16  O   UNL     1       7.174  -6.571   8.121 -1.11 +0.00    +0.000 OA
DOCKED: ATOM     17  H   UNL     1       9.160  -6.900   8.404 -0.06 +0.00    +0.000 HD
DOCKED: ENDBRANCH  11  14
DOCKED: ENDBRANCH   5  12
DOCKED: ENDBRANCH   4   8
DOCKED: ENDBRANCH   1   4
DOCKED: BRANCH   1  18
DOCKED: ATOM     18  C   UNL     1      16.704 -10.512   2.015 -0.44 +0.00    +0.000 C 
DOCKED: BRANCH  18  19
DOCKED: ATOM     19  C   UNL     1      17.215 -11.463   0.919 -0.47 +0.00    +0.000 C 
DOCKED: BRANCH  19  20
DOCKED: ATOM     20  C   UNL     1      18.695 -11.296   0.729 -0.48 -0.00    +0.000 A 
DOCKED: ATOM     21  C   UNL     1      19.686 -11.337   1.711 -0.63 -0.00    +0.000 A 
DOCKED: ATOM     22  N   UNL     1      20.902 -11.076   1.174 -0.65 -0.00    +0.000 N 
DOCKED: ATOM     23  C   UNL     1      20.686 -10.849  -0.133 -0.58 -0.00    +0.000 A 
DOCKED: ATOM     24  C   UNL     1      19.353 -10.967  -0.441 -0.47 -0.00    +0.000 A 
DOCKED: ATOM     25  C   UNL     1      18.879 -10.753  -1.736 -0.36 -0.00    +0.000 A 
DOCKED: ATOM     26  C   UNL     1      19.814 -10.418  -2.732 -0.41 -0.00    +0.000 A 
DOCKED: ATOM     27  C   UNL     1      21.186 -10.303  -2.415 -0.50 -0.00    +0.000 A 
DOCKED: ATOM     28  C   UNL     1      21.635 -10.518  -1.099 -0.51 -0.00    +0.000 A 
DOCKED: ATOM     29  C   UNL     1      19.468 -11.638   3.159 -0.68 -0.00    +0.000 C 
DOCKED: ATOM     30  H   UNL     1      21.766 -11.056   1.645 -0.35 -0.00    +0.000 HD
DOCKED: ENDBRANCH  19  20
DOCKED: ENDBRANCH  18  19
DOCKED: ENDBRANCH   1  18
DOCKED: TORSDOF 7
DOCKED: TER
DOCKED: ENDMDL
________________________________________________________________________________


	BEGINNING GENETIC ALGORITHM DOCKING 35 of 100
Run: 35 Seed: 6249929 1027476679 [ Run 35 of 100 GA/GALS ]
Beginning LAMARCKIAN GENETIC ALGORITHM (LGA), with a maximum of 2500000 energy evaluations.

Final-Value: -14.368


	FINAL GENETIC ALGORITHM DOCKED STATE
	_______________________________________________


Detailed state:  trans 14.982 -12.477 0.463 quatxyzw -0.042773 -0.550642 0.831338 0.061981 center 0.576 -0.005 0.140 ntor 7 123.5554 -139.2126 94.2689 38.0547 12.3600 16.8754 100.8799
State:	 14.982 -12.477   0.463  -0.043 -0.552  0.833 172.893    123.56 -139.21   94.27   38.05   12.36   16.88  100.88

DOCKED: MODEL       35
DOCKED: USER    Run = 35
DOCKED: USER    DPF = ligand_dock.biased.dpf
DOCKED: USER  
DOCKED: USER    Estimated Free Energy of Binding    =  -11.07 kcal/mol  [=(1)+(2)+(3)-(4)]
DOCKED: USER    Estimated Inhibition Constant, Ki   =    7.62 nM (nanomolar)  [Temperature = 298.15 K]
DOCKED: USER    
DOCKED: USER    (1) Final Intermolecular Energy     =  -13.16 kcal/mol
DOCKED: USER        vdW + Hbond + desolv Energy     =  -13.16 kcal/mol
DOCKED: USER        Electrostatic Energy            =   +0.00 kcal/mol
DOCKED: USER    (2) Final Total Internal Energy     =   -1.20 kcal/mol
DOCKED: USER    (3) Torsional Free Energy           =   +2.09 kcal/mol
DOCKED: USER    (4) Unbound System's Energy  [=(2)] =   -1.20 kcal/mol
DOCKED: USER    
DOCKED: USER    
DOCKED: USER    NEWDPF move ligand.pdbqt
DOCKED: USER    NEWDPF about 0.576000 -0.005000 0.140000
DOCKED: USER    NEWDPF tran0 14.981856 -12.477210 0.463221
DOCKED: USER    NEWDPF quaternion0 -0.042773 -0.550642 0.831338 0.061981
DOCKED: USER    NEWDPF axisangle0 -0.042855 -0.551703 0.832939 172.892951
DOCKED: USER    NEWDPF quat0 -0.042855 -0.551703 0.832939 172.892951
DOCKED: USER    NEWDPF dihe0 123.56 -139.21 94.27 38.05 12.36 16.88 100.88 
DOCKED: USER  keepresnum = 1 
DOCKED: USER  
DOCKED: REMARK  Name = 
DOCKED: REMARK  8 active torsions:
DOCKED: REMARK  status: ('A' for Active; 'I' for Inactive)
DOCKED: REMARK    1  A    between atoms: C_2  and  C_3
DOCKED: REMARK    2  A    between atoms: C_4  and  C_5
DOCKED: REMARK    3  A    between atoms: C_8  and  C_9
DOCKED: REMARK    4  A    between atoms: C_9  and  N_10
DOCKED: REMARK    5  A    between atoms: N_10  and  C_11
DOCKED: REMARK    6  A    between atoms: C_11  and  C_12
DOCKED: REMARK    7  A    between atoms: C_12  and  C_13
DOCKED: REMARK    8  A    between atoms: C_14  and  C_22
DOCKED: REMARK                            x       y       z     vdW  Elec       q    Type
DOCKED: REMARK                         _______ _______ _______ _____ _____    ______ ____
DOCKED: USER                              x       y       z     vdW  Elec       q    Type
DOCKED: USER                           _______ _______ _______ _____ _____    ______ ____
DOCKED: ROOT
DOCKED: ATOM      1  N   UNL     1      15.700 -12.766   0.571 -0.50 +0.00    +0.000 N 
DOCKED: ATOM      2  H   UNL     1      15.337 -13.589   0.091 -0.05 +0.00    +0.000 HD
DOCKED: ATOM      3  H   UNL     1      15.542 -12.820   1.578 -0.04 +0.00    +0.000 HD
DOCKED: ENDROOT
DOCKED: BRANCH   1   4
DOCKED: ATOM      4  C   UNL     1      14.995 -11.579   0.071 -0.41 +0.00    +0.000 C 
DOCKED: BRANCH   4   8
DOCKED: ATOM      5  C   UNL     1      14.666  -8.724   3.304 -0.30 +0.00    +0.000 A 
DOCKED: ATOM      6  C   UNL     1      13.849  -9.872   3.276 -0.29 +0.00    +0.000 A 
DOCKED: ATOM      7  C   UNL     1      13.950 -10.787   2.224 -0.34 +0.00    +0.000 A 
DOCKED: ATOM      8  C   UNL     1      14.862 -10.572   1.180 -0.27 +0.00    +0.000 A 
DOCKED: ATOM      9  C   UNL     1      15.699  -9.448   1.222 -0.24 +0.00    +0.000 A 
DOCKED: ATOM     10  C   UNL     1      15.601  -8.533   2.273 -0.20 +0.00    +0.000 A 
DOCKED: BRANCH   5  12
DOCKED: ATOM     11  C   UNL     1      15.094  -6.480   4.301 -0.42 +0.00    +0.000 C 
DOCKED: ATOM     12  C   UNL     1      14.609  -7.727   4.402 -0.40 +0.00    +0.000 C 
DOCKED: BRANCH  11  14
DOCKED: ATOM     13  O   UNL     1      13.994  -5.439   6.103 -1.05 +0.00    +0.000 OA
DOCKED: ATOM     14  C   UNL     1      15.037  -5.493   5.398 -0.46 +0.00    +0.000 C 
DOCKED: ATOM     15  N   UNL     1      16.111  -4.583   5.669 -0.45 -0.00    +0.000 N 
DOCKED: ATOM     16  O   UNL     1      16.054  -3.770   6.750 -0.64 +0.00    +0.000 OA
DOCKED: ATOM     17  H   UNL     1      16.889  -4.550   5.068 -0.55 -0.00    +0.000 HD
DOCKED: ENDBRANCH  11  14
DOCKED: ENDBRANCH   5  12
DOCKED: ENDBRANCH   4   8
DOCKED: ENDBRANCH   1   4
DOCKED: BRANCH   1  18
DOCKED: ATOM     18  C   UNL     1      17.151 -12.690   0.348 -0.54 +0.00    +0.000 C 
DOCKED: BRANCH  18  19
DOCKED: ATOM     19  C   UNL     1      17.895 -12.030   1.521 -0.44 +0.00    +0.000 C 
DOCKED: BRANCH  19  20
DOCKED: ATOM     20  C   UNL     1      19.075 -11.249   1.019 -0.53 -0.00    +0.000 A 
DOCKED: ATOM     21  C   UNL     1      20.042 -10.590   1.781 -0.58 -0.00    +0.000 A 
DOCKED: ATOM     22  N   UNL     1      20.916  -9.935   0.981 -0.51 -0.00    +0.000 N 
DOCKED: ATOM     23  C   UNL     1      20.501 -10.156  -0.278 -0.57 -0.00    +0.000 A 
DOCKED: ATOM     24  C   UNL     1      19.378 -10.947  -0.295 -0.47 -0.00    +0.000 A 
DOCKED: ATOM     25  C   UNL     1      18.746 -11.295  -1.490 -0.35 -0.00    +0.000 A 
DOCKED: ATOM     26  C   UNL     1      19.300 -10.817  -2.690 -0.38 -0.00    +0.000 A 
DOCKED: ATOM     27  C   UNL     1      20.458 -10.008  -2.672 -0.45 -0.00    +0.000 A 
DOCKED: ATOM     28  C   UNL     1      21.071  -9.668  -1.453 -0.56 -0.00    +0.000 A 
DOCKED: ATOM     29  C   UNL     1      20.132 -10.599   3.273 -0.69 -0.00    +0.000 C 
DOCKED: ATOM     30  H   UNL     1      21.697  -9.405   1.264 -0.50 -0.00    +0.000 HD
DOCKED: ENDBRANCH  19  20
DOCKED: ENDBRANCH  18  19
DOCKED: ENDBRANCH   1  18
DOCKED: TORSDOF 7
DOCKED: TER
DOCKED: ENDMDL
________________________________________________________________________________


	BEGINNING GENETIC ALGORITHM DOCKING 36 of 100
Run: 36 Seed: 1838217601 931951292 [ Run 36 of 100 GA/GALS ]
Beginning LAMARCKIAN GENETIC ALGORITHM (LGA), with a maximum of 2500000 energy evaluations.

Final-Value: -14.398


	FINAL GENETIC ALGORITHM DOCKED STATE
	_______________________________________________


Detailed state:  trans 21.683 -10.337 -5.605 quatxyzw -0.569107 0.237886 -0.767938 0.172623 center 0.576 -0.005 0.140 ntor 7 -119.3880 160.8134 -40.8790 -84.5088 -21.3647 24.9801 -9.3396
State:	 21.683 -10.337  -5.605  -0.578  0.242 -0.780 160.119   -119.39  160.81  -40.88  -84.51  -21.36   24.98   -9.34

DOCKED: MODEL       36
DOCKED: USER    Run = 36
DOCKED: USER    DPF = ligand_dock.biased.dpf
DOCKED: USER  
DOCKED: USER    Estimated Free Energy of Binding    =  -11.33 kcal/mol  [=(1)+(2)+(3)-(4)]
DOCKED: USER    Estimated Inhibition Constant, Ki   =    4.98 nM (nanomolar)  [Temperature = 298.15 K]
DOCKED: USER    
DOCKED: USER    (1) Final Intermolecular Energy     =  -13.41 kcal/mol
DOCKED: USER        vdW + Hbond + desolv Energy     =  -13.41 kcal/mol
DOCKED: USER        Electrostatic Energy            =   +0.00 kcal/mol
DOCKED: USER    (2) Final Total Internal Energy     =   -0.98 kcal/mol
DOCKED: USER    (3) Torsional Free Energy           =   +2.09 kcal/mol
DOCKED: USER    (4) Unbound System's Energy  [=(2)] =   -0.98 kcal/mol
DOCKED: USER    
DOCKED: USER    
DOCKED: USER    NEWDPF move ligand.pdbqt
DOCKED: USER    NEWDPF about 0.576000 -0.005000 0.140000
DOCKED: USER    NEWDPF tran0 21.682668 -10.336722 -5.605429
DOCKED: USER    NEWDPF quaternion0 -0.569107 0.237886 -0.767938 0.172623
DOCKED: USER    NEWDPF axisangle0 -0.577781 0.241512 -0.779642 160.119253
DOCKED: USER    NEWDPF quat0 -0.577781 0.241512 -0.779642 160.119253
DOCKED: USER    NEWDPF dihe0 -119.39 160.81 -40.88 -84.51 -21.36 24.98 -9.34 
DOCKED: USER  keepresnum = 1 
DOCKED: USER  
DOCKED: REMARK  Name = 
DOCKED: REMARK  8 active torsions:
DOCKED: REMARK  status: ('A' for Active; 'I' for Inactive)
DOCKED: REMARK    1  A    between atoms: C_2  and  C_3
DOCKED: REMARK    2  A    between atoms: C_4  and  C_5
DOCKED: REMARK    3  A    between atoms: C_8  and  C_9
DOCKED: REMARK    4  A    between atoms: C_9  and  N_10
DOCKED: REMARK    5  A    between atoms: N_10  and  C_11
DOCKED: REMARK    6  A    between atoms: C_11  and  C_12
DOCKED: REMARK    7  A    between atoms: C_12  and  C_13
DOCKED: REMARK    8  A    between atoms: C_14  and  C_22
DOCKED: REMARK                            x       y       z     vdW  Elec       q    Type
DOCKED: REMARK                         _______ _______ _______ _____ _____    ______ ____
DOCKED: USER                              x       y       z     vdW  Elec       q    Type
DOCKED: USER                           _______ _______ _______ _____ _____    ______ ____
DOCKED: ROOT
DOCKED: ATOM      1  N   UNL     1      22.068 -10.605  -6.231 -0.37 -0.00    +0.000 N 
DOCKED: ATOM      2  H   UNL     1      22.007 -11.508  -5.761 -0.07 -0.00    +0.000 HD
DOCKED: ATOM      3  H   UNL     1      22.905 -10.094  -5.951 -0.02 -0.00    +0.000 HD
DOCKED: ENDROOT
DOCKED: BRANCH   1   4
DOCKED: ATOM      4  C   UNL     1      20.903  -9.796  -5.850 -0.30 -0.00    +0.000 C 
DOCKED: BRANCH   4   8
DOCKED: ATOM      5  C   UNL     1      19.964 -10.611  -1.708 -0.43 -0.00    +0.000 A 
DOCKED: ATOM      6  C   UNL     1      19.128 -11.085  -2.738 -0.30 -0.00    +0.000 A 
DOCKED: ATOM      7  C   UNL     1      19.428 -10.809  -4.076 -0.38 -0.00    +0.000 A 
DOCKED: ATOM      8  C   UNL     1      20.562 -10.056  -4.409 -0.36 -0.00    +0.000 A 
DOCKED: ATOM      9  C   UNL     1      21.415  -9.611  -3.388 -0.42 -0.00    +0.000 A 
DOCKED: ATOM     10  C   UNL     1      21.118  -9.887  -2.051 -0.52 -0.00    +0.000 A 
DOCKED: BRANCH   5  12
DOCKED: ATOM     11  C   UNL     1      20.655 -11.216   0.610 -0.70 -0.00    +0.000 C 
DOCKED: ATOM     12  C   UNL     1      19.700 -10.884  -0.273 -0.57 -0.00    +0.000 C 
DOCKED: BRANCH  11  14
DOCKED: ATOM     13  O   UNL     1      19.888 -12.602   2.351 -1.64 -0.00    +0.000 OA
DOCKED: ATOM     14  C   UNL     1      20.386 -11.489   2.036 -0.77 -0.00    +0.000 C 
DOCKED: ATOM     15  N   UNL     1      20.646 -10.524   3.064 -0.63 -0.00    +0.000 N 
DOCKED: ATOM     16  O   UNL     1      20.481 -10.859   4.365 -0.92 -0.00    +0.000 OA
DOCKED: ATOM     17  H   UNL     1      20.944  -9.618   2.823 -0.59 -0.00    +0.000 HD
DOCKED: ENDBRANCH  11  14
DOCKED: ENDBRANCH   5  12
DOCKED: ENDBRANCH   4   8
DOCKED: ENDBRANCH   1   4
DOCKED: BRANCH   1  18
DOCKED: ATOM     18  C   UNL     1      22.142 -10.831  -7.682 -0.34 -0.00    +0.000 C 
DOCKED: BRANCH  18  19
DOCKED: ATOM     19  C   UNL     1      23.104  -9.856  -8.381 -0.21 -0.00    +0.000 C 
DOCKED: BRANCH  19  20
DOCKED: ATOM     20  C   UNL     1      24.485 -10.442  -8.450 -0.26 -0.00    +0.000 A 
DOCKED: ATOM     21  C   UNL     1      24.845 -11.714  -8.896 -0.37 -0.00    +0.000 A 
DOCKED: ATOM     22  N   UNL     1      26.176 -11.914  -8.747 -0.34 -0.00    +0.000 N 
DOCKED: ATOM     23  C   UNL     1      26.657 -10.789  -8.191 -0.33 -0.00    +0.000 A 
DOCKED: ATOM     24  C   UNL     1      25.656  -9.871  -7.989 -0.30 -0.00    +0.000 A 
DOCKED: ATOM     25  C   UNL     1      25.907  -8.630  -7.401 -0.26 -0.00    +0.000 A 
DOCKED: ATOM     26  C   UNL     1      27.230  -8.337  -7.024 -0.32 -0.00    +0.000 A 
DOCKED: ATOM     27  C   UNL     1      28.261  -9.280  -7.238 -0.42 -0.00    +0.000 A 
DOCKED: ATOM     28  C   UNL     1      27.977 -10.525  -7.827 -0.39 -0.00    +0.000 A 
DOCKED: ATOM     29  C   UNL     1      23.915 -12.732  -9.475 -0.41 -0.00    +0.000 C 
DOCKED: ATOM     30  H   UNL     1      26.687 -12.719  -8.994 -0.45 -0.00    +0.000 HD
DOCKED: ENDBRANCH  19  20
DOCKED: ENDBRANCH  18  19
DOCKED: ENDBRANCH   1  18
DOCKED: TORSDOF 7
DOCKED: TER
DOCKED: ENDMDL
________________________________________________________________________________


	BEGINNING GENETIC ALGORITHM DOCKING 37 of 100
Run: 37 Seed: 467048859 1679815567 [ Run 37 of 100 GA/GALS ]
Beginning LAMARCKIAN GENETIC ALGORITHM (LGA), with a maximum of 2500000 energy evaluations.

Final-Value: -13.178


	FINAL GENETIC ALGORITHM DOCKED STATE
	_______________________________________________


Detailed state:  trans 22.186 -9.053 -5.832 quatxyzw -0.524749 0.544722 -0.609934 -0.236427 center 0.576 -0.005 0.140 ntor 7 92.3598 82.7955 152.9145 -154.8850 -157.8911 120.5060 52.2166
State:	 22.186  -9.053  -5.832  -0.540  0.561 -0.628 -152.649     92.36   82.80  152.91 -154.89 -157.89  120.51   52.22

DOCKED: MODEL       37
DOCKED: USER    Run = 37
DOCKED: USER    DPF = ligand_dock.biased.dpf
DOCKED: USER  
DOCKED: USER    Estimated Free Energy of Binding    =   -9.78 kcal/mol  [=(1)+(2)+(3)-(4)]
DOCKED: USER    Estimated Inhibition Constant, Ki   =   67.73 nM (nanomolar)  [Temperature = 298.15 K]
DOCKED: USER    
DOCKED: USER    (1) Final Intermolecular Energy     =  -11.87 kcal/mol
DOCKED: USER        vdW + Hbond + desolv Energy     =  -11.87 kcal/mol
DOCKED: USER        Electrostatic Energy            =   +0.00 kcal/mol
DOCKED: USER    (2) Final Total Internal Energy     =   -1.31 kcal/mol
DOCKED: USER    (3) Torsional Free Energy           =   +2.09 kcal/mol
DOCKED: USER    (4) Unbound System's Energy  [=(2)] =   -1.31 kcal/mol
DOCKED: USER    
DOCKED: USER    
DOCKED: USER    NEWDPF move ligand.pdbqt
DOCKED: USER    NEWDPF about 0.576000 -0.005000 0.140000
DOCKED: USER    NEWDPF tran0 22.186159 -9.052933 -5.832475
DOCKED: USER    NEWDPF quaternion0 -0.524749 0.544722 -0.609934 -0.236427
DOCKED: USER    NEWDPF axisangle0 -0.540060 0.560616 -0.627730 -152.648544
DOCKED: USER    NEWDPF quat0 -0.540060 0.560616 -0.627730 -152.648544
DOCKED: USER    NEWDPF dihe0 92.36 82.80 152.91 -154.89 -157.89 120.51 52.22 
DOCKED: USER  keepresnum = 1 
DOCKED: USER  
DOCKED: REMARK  Name = 
DOCKED: REMARK  8 active torsions:
DOCKED: REMARK  status: ('A' for Active; 'I' for Inactive)
DOCKED: REMARK    1  A    between atoms: C_2  and  C_3
DOCKED: REMARK    2  A    between atoms: C_4  and  C_5
DOCKED: REMARK    3  A    between atoms: C_8  and  C_9
DOCKED: REMARK    4  A    between atoms: C_9  and  N_10
DOCKED: REMARK    5  A    between atoms: N_10  and  C_11
DOCKED: REMARK    6  A    between atoms: C_11  and  C_12
DOCKED: REMARK    7  A    between atoms: C_12  and  C_13
DOCKED: REMARK    8  A    between atoms: C_14  and  C_22
DOCKED: REMARK                            x       y       z     vdW  Elec       q    Type
DOCKED: REMARK                         _______ _______ _______ _____ _____    ______ ____
DOCKED: USER                              x       y       z     vdW  Elec       q    Type
DOCKED: USER                           _______ _______ _______ _____ _____    ______ ____
DOCKED: ROOT
DOCKED: ATOM      1  N   UNL     1      22.666  -8.606  -6.258 -0.23 -0.00    +0.000 N 
DOCKED: ATOM      2  H   UNL     1      22.822  -9.457  -6.799 -0.01 -0.00    +0.000 HD
DOCKED: ATOM      3  H   UNL     1      23.317  -8.536  -5.476 +0.01 -0.00    +0.000 HD
DOCKED: ENDROOT
DOCKED: BRANCH   1   4
DOCKED: ATOM      4  C   UNL     1      21.306  -8.641  -5.706 -0.24 -0.00    +0.000 C 
DOCKED: BRANCH   4   8
DOCKED: ATOM      5  C   UNL     1      21.380 -10.019  -1.607 -0.55 -0.00    +0.000 A 
DOCKED: ATOM      6  C   UNL     1      20.969  -8.707  -1.914 -0.45 -0.00    +0.000 A 
DOCKED: ATOM      7  C   UNL     1      20.958  -8.260  -3.239 -0.37 -0.00    +0.000 A 
DOCKED: ATOM      8  C   UNL     1      21.358  -9.112  -4.279 -0.34 -0.00    +0.000 A 
DOCKED: ATOM      9  C   UNL     1      21.735 -10.429  -3.980 -0.41 -0.00    +0.000 A 
DOCKED: ATOM     10  C   UNL     1      21.746 -10.877  -2.657 -0.17 -0.00    +0.000 A 
DOCKED: BRANCH   5  12
DOCKED: ATOM     11  C   UNL     1      20.310 -10.634   0.559 -0.67 -0.00    +0.000 C 
DOCKED: ATOM     12  C   UNL     1      21.399 -10.549  -0.220 -0.70 -0.00    +0.000 C 
DOCKED: BRANCH  11  14
DOCKED: ATOM     13  O   UNL     1      20.518 -12.395   2.108 -1.86 -0.00    +0.000 OA
DOCKED: ATOM     14  C   UNL     1      20.336 -11.159   1.939 -0.75 -0.00    +0.000 C 
DOCKED: ATOM     15  N   UNL     1      20.136 -10.320   3.084 -0.60 -0.00    +0.000 N 
DOCKED: ATOM     16  O   UNL     1      20.273 -10.830   4.330 -0.91 -0.00    +0.000 OA
DOCKED: ATOM     17  H   UNL     1      19.899  -9.373   2.963 -0.56 -0.00    +0.000 HD
DOCKED: ENDBRANCH  11  14
DOCKED: ENDBRANCH   5  12
DOCKED: ENDBRANCH   4   8
DOCKED: ENDBRANCH   1   4
DOCKED: BRANCH   1  18
DOCKED: ATOM     18  C   UNL     1      22.885  -7.444  -7.131 -0.14 -0.00    +0.000 C 
DOCKED: BRANCH  18  19
DOCKED: ATOM     19  C   UNL     1      24.169  -7.569  -7.968 -0.13 -0.00    +0.000 C 
DOCKED: BRANCH  19  20
DOCKED: ATOM     20  C   UNL     1      24.591  -9.007  -8.068 -0.19 -0.00    +0.000 A 
DOCKED: ATOM     21  C   UNL     1      25.765  -9.582  -7.579 -0.30 -0.00    +0.000 A 
DOCKED: ATOM     22  N   UNL     1      25.833 -10.891  -7.917 -0.39 -0.00    +0.000 N 
DOCKED: ATOM     23  C   UNL     1      24.724 -11.145  -8.632 -0.33 -0.00    +0.000 A 
DOCKED: ATOM     24  C   UNL     1      23.946 -10.020  -8.752 -0.17 -0.00    +0.000 A 
DOCKED: ATOM     25  C   UNL     1      22.751 -10.028  -9.473 -0.12 -0.00    +0.000 A 
DOCKED: ATOM     26  C   UNL     1      22.355 -11.236 -10.074 -0.19 -0.00    +0.000 A 
DOCKED: ATOM     27  C   UNL     1      23.153 -12.395  -9.946 -0.29 -0.00    +0.000 A 
DOCKED: ATOM     28  C   UNL     1      24.356 -12.355  -9.219 -0.37 -0.00    +0.000 A 
DOCKED: ATOM     29  C   UNL     1      26.814  -8.878  -6.779 -0.39 -0.00    +0.000 C 
DOCKED: ATOM     30  H   UNL     1      26.549 -11.527  -7.686 -0.05 -0.00    +0.000 HD
DOCKED: ENDBRANCH  19  20
DOCKED: ENDBRANCH  18  19
DOCKED: ENDBRANCH   1  18
DOCKED: TORSDOF 7
DOCKED: TER
DOCKED: ENDMDL
________________________________________________________________________________


	BEGINNING GENETIC ALGORITHM DOCKING 38 of 100
Run: 38 Seed: 1297196614 337005832 [ Run 38 of 100 GA/GALS ]
Beginning LAMARCKIAN GENETIC ALGORITHM (LGA), with a maximum of 2500000 energy evaluations.

Final-Value: -13.829


	FINAL GENETIC ALGORITHM DOCKED STATE
	_______________________________________________


Detailed state:  trans 19.189 -10.786 -5.773 quatxyzw -0.313315 0.658153 -0.565159 0.386346 center 0.576 -0.005 0.140 ntor 7 49.4460 -149.4307 -169.4252 -79.7097 -175.0668 -19.1105 45.6263
State:	 19.189 -10.786  -5.773  -0.340  0.714 -0.613 134.545     49.45 -149.43 -169.43  -79.71 -175.07  -19.11   45.63

DOCKED: MODEL       38
DOCKED: USER    Run = 38
DOCKED: USER    DPF = ligand_dock.biased.dpf
DOCKED: USER  
DOCKED: USER    Estimated Free Energy of Binding    =  -10.46 kcal/mol  [=(1)+(2)+(3)-(4)]
DOCKED: USER    Estimated Inhibition Constant, Ki   =   21.69 nM (nanomolar)  [Temperature = 298.15 K]
DOCKED: USER    
DOCKED: USER    (1) Final Intermolecular Energy     =  -12.54 kcal/mol
DOCKED: USER        vdW + Hbond + desolv Energy     =  -12.54 kcal/mol
DOCKED: USER        Electrostatic Energy            =   +0.00 kcal/mol
DOCKED: USER    (2) Final Total Internal Energy     =   -1.29 kcal/mol
DOCKED: USER    (3) Torsional Free Energy           =   +2.09 kcal/mol
DOCKED: USER    (4) Unbound System's Energy  [=(2)] =   -1.29 kcal/mol
DOCKED: USER    
DOCKED: USER    
DOCKED: USER    NEWDPF move ligand.pdbqt
DOCKED: USER    NEWDPF about 0.576000 -0.005000 0.140000
DOCKED: USER    NEWDPF tran0 19.188868 -10.785990 -5.773123
DOCKED: USER    NEWDPF quaternion0 -0.313315 0.658153 -0.565159 0.386346
DOCKED: USER    NEWDPF axisangle0 -0.339691 0.713558 -0.612736 134.545301
DOCKED: USER    NEWDPF quat0 -0.339691 0.713558 -0.612736 134.545301
DOCKED: USER    NEWDPF dihe0 49.45 -149.43 -169.43 -79.71 -175.07 -19.11 45.63 
DOCKED: USER  keepresnum = 1 
DOCKED: USER  
DOCKED: REMARK  Name = 
DOCKED: REMARK  8 active torsions:
DOCKED: REMARK  status: ('A' for Active; 'I' for Inactive)
DOCKED: REMARK    1  A    between atoms: C_2  and  C_3
DOCKED: REMARK    2  A    between atoms: C_4  and  C_5
DOCKED: REMARK    3  A    between atoms: C_8  and  C_9
DOCKED: REMARK    4  A    between atoms: C_9  and  N_10
DOCKED: REMARK    5  A    between atoms: N_10  and  C_11
DOCKED: REMARK    6  A    between atoms: C_11  and  C_12
DOCKED: REMARK    7  A    between atoms: C_12  and  C_13
DOCKED: REMARK    8  A    between atoms: C_14  and  C_22
DOCKED: REMARK                            x       y       z     vdW  Elec       q    Type
DOCKED: REMARK                         _______ _______ _______ _____ _____    ______ ____
DOCKED: USER                              x       y       z     vdW  Elec       q    Type
DOCKED: USER                           _______ _______ _______ _____ _____    ______ ____
DOCKED: ROOT
DOCKED: ATOM      1  N   UNL     1      19.397 -11.085  -6.465 -0.35 -0.00    +0.000 N 
DOCKED: ATOM      2  H   UNL     1      18.476 -11.522  -6.445 -0.05 -0.00    +0.000 HD
DOCKED: ATOM      3  H   UNL     1      20.099 -11.673  -6.015 -0.24 -0.00    +0.000 HD
DOCKED: ENDROOT
DOCKED: BRANCH   1   4
DOCKED: ATOM      4  C   UNL     1      19.335  -9.818  -5.725 -0.25 -0.00    +0.000 C 
DOCKED: BRANCH   4   8
DOCKED: ATOM      5  C   UNL     1      20.378 -10.436  -1.574 -0.49 -0.00    +0.000 A 
DOCKED: ATOM      6  C   UNL     1      21.338  -9.963  -2.491 -0.49 -0.00    +0.000 A 
DOCKED: ATOM      7  C   UNL     1      21.000  -9.776  -3.835 -0.41 -0.00    +0.000 A 
DOCKED: ATOM      8  C   UNL     1      19.704 -10.059  -4.288 -0.31 -0.00    +0.000 A 
DOCKED: ATOM      9  C   UNL     1      18.737 -10.497  -3.371 -0.32 -0.00    +0.000 A 
DOCKED: ATOM     10  C   UNL     1      19.072 -10.683  -2.028 -0.37 -0.00    +0.000 A 
DOCKED: BRANCH   5  12
DOCKED: ATOM     11  C   UNL     1      19.833 -11.229   0.726 -0.67 -0.00    +0.000 C 
DOCKED: ATOM     12  C   UNL     1      20.678 -10.640  -0.135 -0.67 -0.00    +0.000 C 
DOCKED: BRANCH  11  14
DOCKED: ATOM     13  O   UNL     1      20.271 -12.606   2.584 -1.69 -0.00    +0.000 OA
DOCKED: ATOM     14  C   UNL     1      20.136 -11.428   2.157 -0.77 -0.00    +0.000 C 
DOCKED: ATOM     15  N   UNL     1      20.255 -10.334   3.076 -0.60 -0.00    +0.000 N 
DOCKED: ATOM     16  O   UNL     1      20.637 -10.561   4.354 -0.90 -0.00    +0.000 OA
DOCKED: ATOM     17  H   UNL     1      20.058  -9.418   2.776 -0.54 -0.00    +0.000 HD
DOCKED: ENDBRANCH  11  14
DOCKED: ENDBRANCH   5  12
DOCKED: ENDBRANCH   4   8
DOCKED: ENDBRANCH   1   4
DOCKED: BRANCH   1  18
DOCKED: ATOM     18  C   UNL     1      19.800 -10.896  -7.866 -0.20 -0.00    +0.000 C 
DOCKED: BRANCH  18  19
DOCKED: ATOM     19  C   UNL     1      21.119 -10.116  -8.000 -0.24 -0.00    +0.000 C 
DOCKED: BRANCH  19  20
DOCKED: ATOM     20  C   UNL     1      22.274 -11.064  -8.148 -0.28 -0.00    +0.000 A 
DOCKED: ATOM     21  C   UNL     1      22.916 -11.783  -7.138 -0.44 -0.00    +0.000 A 
DOCKED: ATOM     22  N   UNL     1      23.961 -12.483  -7.639 -0.47 -0.00    +0.000 N 
DOCKED: ATOM     23  C   UNL     1      24.000 -12.196  -8.952 -0.38 -0.00    +0.000 A 
DOCKED: ATOM     24  C   UNL     1      22.993 -11.330  -9.298 -0.24 -0.00    +0.000 A 
DOCKED: ATOM     25  C   UNL     1      22.843 -10.866 -10.606 -0.13 -0.00    +0.000 A 
DOCKED: ATOM     26  C   UNL     1      23.756 -11.322 -11.573 -0.08 -0.00    +0.000 A 
DOCKED: ATOM     27  C   UNL     1      24.789 -12.218 -11.217 -0.16 -0.00    +0.000 A 
DOCKED: ATOM     28  C   UNL     1      24.920 -12.663  -9.890 -0.32 -0.00    +0.000 A 
DOCKED: ATOM     29  C   UNL     1      22.517 -11.809  -5.697 -0.47 -0.00    +0.000 C 
DOCKED: ATOM     30  H   UNL     1      24.568 -13.079  -7.143 -0.05 +0.00    +0.000 HD
DOCKED: ENDBRANCH  19  20
DOCKED: ENDBRANCH  18  19
DOCKED: ENDBRANCH   1  18
DOCKED: TORSDOF 7
DOCKED: TER
DOCKED: ENDMDL
________________________________________________________________________________


	BEGINNING GENETIC ALGORITHM DOCKING 39 of 100
Run: 39 Seed: 2042873963 1114871380 [ Run 39 of 100 GA/GALS ]
Beginning LAMARCKIAN GENETIC ALGORITHM (LGA), with a maximum of 2500000 energy evaluations.

Final-Value: -12.937


	FINAL GENETIC ALGORITHM DOCKED STATE
	_______________________________________________


Detailed state:  trans 18.221 -11.126 1.869 quatxyzw 0.870816 -0.117552 -0.451512 -0.154913 center 0.576 -0.005 0.140 ntor 7 80.6692 -178.5350 158.6788 170.8073 -102.1550 90.8586 27.1791
State:	 18.221 -11.126   1.869   0.881 -0.119 -0.457 -162.177     80.67 -178.54  158.68  170.81 -102.15   90.86   27.18

DOCKED: MODEL       39
DOCKED: USER    Run = 39
DOCKED: USER    DPF = ligand_dock.biased.dpf
DOCKED: USER  
DOCKED: USER    Estimated Free Energy of Binding    =   -9.22 kcal/mol  [=(1)+(2)+(3)-(4)]
DOCKED: USER    Estimated Inhibition Constant, Ki   =  175.17 nM (nanomolar)  [Temperature = 298.15 K]
DOCKED: USER    
DOCKED: USER    (1) Final Intermolecular Energy     =  -11.31 kcal/mol
DOCKED: USER        vdW + Hbond + desolv Energy     =  -11.31 kcal/mol
DOCKED: USER        Electrostatic Energy            =   +0.00 kcal/mol
DOCKED: USER    (2) Final Total Internal Energy     =   -1.63 kcal/mol
DOCKED: USER    (3) Torsional Free Energy           =   +2.09 kcal/mol
DOCKED: USER    (4) Unbound System's Energy  [=(2)] =   -1.63 kcal/mol
DOCKED: USER    
DOCKED: USER    
DOCKED: USER    NEWDPF move ligand.pdbqt
DOCKED: USER    NEWDPF about 0.576000 -0.005000 0.140000
DOCKED: USER    NEWDPF tran0 18.220791 -11.125564 1.868992
DOCKED: USER    NEWDPF quaternion0 0.870816 -0.117552 -0.451512 -0.154913
DOCKED: USER    NEWDPF axisangle0 0.881457 -0.118989 -0.457029 -162.176529
DOCKED: USER    NEWDPF quat0 0.881457 -0.118989 -0.457029 -162.176529
DOCKED: USER    NEWDPF dihe0 80.67 -178.54 158.68 170.81 -102.15 90.86 27.18 
DOCKED: USER  keepresnum = 1 
DOCKED: USER  
DOCKED: REMARK  Name = 
DOCKED: REMARK  8 active torsions:
DOCKED: REMARK  status: ('A' for Active; 'I' for Inactive)
DOCKED: REMARK    1  A    between atoms: C_2  and  C_3
DOCKED: REMARK    2  A    between atoms: C_4  and  C_5
DOCKED: REMARK    3  A    between atoms: C_8  and  C_9
DOCKED: REMARK    4  A    between atoms: C_9  and  N_10
DOCKED: REMARK    5  A    between atoms: N_10  and  C_11
DOCKED: REMARK    6  A    between atoms: C_11  and  C_12
DOCKED: REMARK    7  A    between atoms: C_12  and  C_13
DOCKED: REMARK    8  A    between atoms: C_14  and  C_22
DOCKED: REMARK                            x       y       z     vdW  Elec       q    Type
DOCKED: REMARK                         _______ _______ _______ _____ _____    ______ ____
DOCKED: USER                              x       y       z     vdW  Elec       q    Type
DOCKED: USER                           _______ _______ _______ _____ _____    ______ ____
DOCKED: ROOT
DOCKED: ATOM      1  N   UNL     1      17.561 -11.043   2.280 -0.44 +0.00    +0.000 N 
DOCKED: ATOM      2  H   UNL     1      17.311 -11.946   1.878 -0.01 +0.00    +0.000 HD
DOCKED: ATOM      3  H   UNL     1      17.267 -10.273   1.679 -0.01 +0.00    +0.000 HD
DOCKED: ENDROOT
DOCKED: BRANCH   1   4
DOCKED: ATOM      4  C   UNL     1      19.021 -10.973   2.414 -0.64 -0.00    +0.000 C 
DOCKED: BRANCH   4   8
DOCKED: ATOM      5  C   UNL     1      20.819 -10.532  -1.496 -0.52 -0.00    +0.000 A 
DOCKED: ATOM      6  C   UNL     1      21.599 -10.401  -0.329 -0.59 -0.00    +0.000 A 
DOCKED: ATOM      7  C   UNL     1      21.013 -10.533   0.933 -0.51 -0.00    +0.000 A 
DOCKED: ATOM      8  C   UNL     1      19.640 -10.793   1.055 -0.56 -0.00    +0.000 A 
DOCKED: ATOM      9  C   UNL     1      18.867 -10.957  -0.104 -0.44 -0.00    +0.000 A 
DOCKED: ATOM     10  C   UNL     1      19.452 -10.827  -1.365 -0.41 -0.00    +0.000 A 
DOCKED: BRANCH   5  12
DOCKED: ATOM     11  C   UNL     1      20.810 -10.922  -3.957 -0.50 -0.00    +0.000 C 
DOCKED: ATOM     12  C   UNL     1      21.392 -10.414  -2.860 -0.55 -0.00    +0.000 C 
DOCKED: BRANCH  11  14
DOCKED: ATOM     13  O   UNL     1      21.188  -9.740  -5.958 -0.28 -0.00    +0.000 OA
DOCKED: ATOM     14  C   UNL     1      21.386 -10.803  -5.312 -0.49 -0.00    +0.000 C 
DOCKED: ATOM     15  N   UNL     1      22.136 -11.861  -5.923 -0.52 -0.00    +0.000 N 
DOCKED: ATOM     16  O   UNL     1      22.732 -11.666  -7.122 -0.51 -0.00    +0.000 OA
DOCKED: ATOM     17  H   UNL     1      22.217 -12.731  -5.469 -0.24 -0.00    +0.000 HD
DOCKED: ENDBRANCH  11  14
DOCKED: ENDBRANCH   5  12
DOCKED: ENDBRANCH   4   8
DOCKED: ENDBRANCH   1   4
DOCKED: BRANCH   1  18
DOCKED: ATOM     18  C   UNL     1      16.873 -10.894   3.571 -0.44 +0.00    +0.000 C 
DOCKED: BRANCH  18  19
DOCKED: ATOM     19  C   UNL     1      15.378 -10.571   3.408 -0.50 +0.00    +0.000 C 
DOCKED: BRANCH  19  20
DOCKED: ATOM     20  C   UNL     1      15.080 -10.171   1.992 -0.30 +0.00    +0.000 A 
DOCKED: ATOM     21  C   UNL     1      14.719  -8.905   1.527 -0.24 +0.00    +0.000 A 
DOCKED: ATOM     22  N   UNL     1      14.461  -8.939   0.198 -0.23 +0.00    +0.000 N 
DOCKED: ATOM     23  C   UNL     1      14.636 -10.218  -0.178 -0.24 +0.00    +0.000 A 
DOCKED: ATOM     24  C   UNL     1      15.006 -11.000   0.889 -0.31 +0.00    +0.000 A 
DOCKED: ATOM     25  C   UNL     1      15.222 -12.372   0.752 -0.44 +0.00    +0.000 A 
DOCKED: ATOM     26  C   UNL     1      15.057 -12.938  -0.525 -0.49 +0.00    +0.000 A 
DOCKED: ATOM     27  C   UNL     1      14.682 -12.132  -1.623 -0.32 +0.00    +0.000 A 
DOCKED: ATOM     28  C   UNL     1      14.464 -10.753  -1.454 -0.28 -0.00    +0.000 A 
DOCKED: ATOM     29  C   UNL     1      14.633  -7.663   2.355 -0.28 +0.00    +0.000 C 
DOCKED: ATOM     30  H   UNL     1      14.200  -8.183  -0.375 -0.01 -0.00    +0.000 HD
DOCKED: ENDBRANCH  19  20
DOCKED: ENDBRANCH  18  19
DOCKED: ENDBRANCH   1  18
DOCKED: TORSDOF 7
DOCKED: TER
DOCKED: ENDMDL
________________________________________________________________________________


	BEGINNING GENETIC ALGORITHM DOCKING 40 of 100
Run: 40 Seed: 98478775 1665726640 [ Run 40 of 100 GA/GALS ]
Beginning LAMARCKIAN GENETIC ALGORITHM (LGA), with a maximum of 2500000 energy evaluations.

Final-Value: -14.255


	FINAL GENETIC ALGORITHM DOCKED STATE
	_______________________________________________


Detailed state:  trans 22.524 -8.005 -5.339 quatxyzw -0.603236 0.358877 -0.692269 0.167562 center 0.576 -0.005 0.140 ntor 7 -40.3185 -151.0280 169.5487 -159.2905 -134.6943 180.0000 -9.5078
State:	 22.524  -8.005  -5.339  -0.612  0.364 -0.702 160.708    -40.32 -151.03  169.55 -159.29 -134.69  180.00   -9.51

DOCKED: MODEL       40
DOCKED: USER    Run = 40
DOCKED: USER    DPF = ligand_dock.biased.dpf
DOCKED: USER  
DOCKED: USER    Estimated Free Energy of Binding    =  -10.10 kcal/mol  [=(1)+(2)+(3)-(4)]
DOCKED: USER    Estimated Inhibition Constant, Ki   =   39.61 nM (nanomolar)  [Temperature = 298.15 K]
DOCKED: USER    
DOCKED: USER    (1) Final Intermolecular Energy     =  -12.19 kcal/mol
DOCKED: USER        vdW + Hbond + desolv Energy     =  -12.19 kcal/mol
DOCKED: USER        Electrostatic Energy            =   +0.00 kcal/mol
DOCKED: USER    (2) Final Total Internal Energy     =   -2.07 kcal/mol
DOCKED: USER    (3) Torsional Free Energy           =   +2.09 kcal/mol
DOCKED: USER    (4) Unbound System's Energy  [=(2)] =   -2.07 kcal/mol
DOCKED: USER    
DOCKED: USER    
DOCKED: USER    NEWDPF move ligand.pdbqt
DOCKED: USER    NEWDPF about 0.576000 -0.005000 0.140000
DOCKED: USER    NEWDPF tran0 22.524062 -8.004896 -5.339017
DOCKED: USER    NEWDPF quaternion0 -0.603236 0.358877 -0.692269 0.167562
DOCKED: USER    NEWDPF axisangle0 -0.611887 0.364024 -0.702197 160.707765
DOCKED: USER    NEWDPF quat0 -0.611887 0.364024 -0.702197 160.707765
DOCKED: USER    NEWDPF dihe0 -40.32 -151.03 169.55 -159.29 -134.69 180.00 -9.51 
DOCKED: USER  keepresnum = 1 
DOCKED: USER  
DOCKED: REMARK  Name = 
DOCKED: REMARK  8 active torsions:
DOCKED: REMARK  status: ('A' for Active; 'I' for Inactive)
DOCKED: REMARK    1  A    between atoms: C_2  and  C_3
DOCKED: REMARK    2  A    between atoms: C_4  and  C_5
DOCKED: REMARK    3  A    between atoms: C_8  and  C_9
DOCKED: REMARK    4  A    between atoms: C_9  and  N_10
DOCKED: REMARK    5  A    between atoms: N_10  and  C_11
DOCKED: REMARK    6  A    between atoms: C_11  and  C_12
DOCKED: REMARK    7  A    between atoms: C_12  and  C_13
DOCKED: REMARK    8  A    between atoms: C_14  and  C_22
DOCKED: REMARK                            x       y       z     vdW  Elec       q    Type
DOCKED: REMARK                         _______ _______ _______ _____ _____    ______ ____
DOCKED: USER                              x       y       z     vdW  Elec       q    Type
DOCKED: USER                           _______ _______ _______ _____ _____    ______ ____
DOCKED: ROOT
DOCKED: ATOM      1  N   UNL     1      22.816  -8.159  -6.048 -0.19 -0.00    +0.000 N 
DOCKED: ATOM      2  H   UNL     1      22.657  -9.134  -5.795 -0.02 -0.00    +0.000 HD
DOCKED: ATOM      3  H   UNL     1      23.739  -7.842  -5.752 +0.00 -0.00    +0.000 HD
DOCKED: ENDROOT
DOCKED: BRANCH   1   4
DOCKED: ATOM      4  C   UNL     1      21.817  -7.326  -5.365 -0.21 -0.00    +0.000 C 
DOCKED: BRANCH   4   8
DOCKED: ATOM      5  C   UNL     1      20.972  -8.930  -1.438 -0.49 -0.00    +0.000 A 
DOCKED: ATOM      6  C   UNL     1      21.108  -7.540  -1.631 -0.34 -0.00    +0.000 A 
DOCKED: ATOM      7  C   UNL     1      21.393  -7.026  -2.900 -0.38 -0.00    +0.000 A 
DOCKED: ATOM      8  C   UNL     1      21.550  -7.886  -3.996 -0.28 -0.00    +0.000 A 
DOCKED: ATOM      9  C   UNL     1      21.382  -9.267  -3.814 -0.38 -0.00    +0.000 A 
DOCKED: ATOM     10  C   UNL     1      21.096  -9.782  -2.548 -0.49 -0.00    +0.000 A 
DOCKED: BRANCH   5  12
DOCKED: ATOM     11  C   UNL     1      20.641 -10.849   0.117 -0.68 -0.00    +0.000 C 
DOCKED: ATOM     12  C   UNL     1      20.658  -9.528  -0.117 -0.58 -0.00    +0.000 C 
DOCKED: BRANCH  11  14
DOCKED: ATOM     13  O   UNL     1      19.896 -12.622   1.474 -1.58 -0.00    +0.000 OA
DOCKED: ATOM     14  C   UNL     1      20.326 -11.439   1.433 -0.76 -0.00    +0.000 C 
DOCKED: ATOM     15  N   UNL     1      20.466 -10.704   2.657 -0.65 -0.00    +0.000 N 
DOCKED: ATOM     16  O   UNL     1      20.265 -11.321   3.844 -1.25 -0.00    +0.000 OA
DOCKED: ATOM     17  H   UNL     1      20.709  -9.751   2.632 -0.57 -0.00    +0.000 HD
DOCKED: ENDBRANCH  11  14
DOCKED: ENDBRANCH   5  12
DOCKED: ENDBRANCH   4   8
DOCKED: ENDBRANCH   1   4
DOCKED: BRANCH   1  18
DOCKED: ATOM     18  C   UNL     1      22.744  -8.033  -7.511 -0.14 -0.00    +0.000 C 
DOCKED: BRANCH  18  19
DOCKED: ATOM     19  C   UNL     1      22.140  -9.278  -8.181 -0.16 -0.00    +0.000 C 
DOCKED: BRANCH  19  20
DOCKED: ATOM     20  C   UNL     1      21.424 -10.123  -7.168 -0.25 -0.00    +0.000 A 
DOCKED: ATOM     21  C   UNL     1      21.895 -11.277  -6.541 -0.33 -0.00    +0.000 A 
DOCKED: ATOM     22  N   UNL     1      20.942 -11.808  -5.737 -0.26 -0.00    +0.000 N 
DOCKED: ATOM     23  C   UNL     1      19.867 -11.012  -5.867 -0.35 -0.00    +0.000 A 
DOCKED: ATOM     24  C   UNL     1      20.119  -9.979  -6.735 -0.22 -0.00    +0.000 A 
DOCKED: ATOM     25  C   UNL     1      19.143  -9.032  -7.050 -0.12 -0.00    +0.000 A 
DOCKED: ATOM     26  C   UNL     1      17.882  -9.160  -6.440 -0.12 -0.00    +0.000 A 
DOCKED: ATOM     27  C   UNL     1      17.625 -10.220  -5.543 -0.23 -0.00    +0.000 A 
DOCKED: ATOM     28  C   UNL     1      18.626 -11.164  -5.249 -0.33 -0.00    +0.000 A 
DOCKED: ATOM     29  C   UNL     1      23.261 -11.863  -6.703 -0.47 -0.00    +0.000 C 
DOCKED: ATOM     30  H   UNL     1      21.022 -12.612  -5.174 -0.38 -0.00    +0.000 HD
DOCKED: ENDBRANCH  19  20
DOCKED: ENDBRANCH  18  19
DOCKED: ENDBRANCH   1  18
DOCKED: TORSDOF 7
DOCKED: TER
DOCKED: ENDMDL
________________________________________________________________________________


	BEGINNING GENETIC ALGORITHM DOCKING 41 of 100
Run: 41 Seed: 1983660696 125458871 [ Run 41 of 100 GA/GALS ]
Beginning LAMARCKIAN GENETIC ALGORITHM (LGA), with a maximum of 2500000 energy evaluations.

Final-Value: -14.767


	FINAL GENETIC ALGORITHM DOCKED STATE
	_______________________________________________


Detailed state:  trans 19.867 -10.792 -6.365 quatxyzw 0.004658 -0.886192 0.462662 0.024185 center 0.576 -0.005 0.140 ntor 7 50.4527 -178.8883 5.4016 44.0271 179.8914 165.0133 114.4863
State:	 19.867 -10.792  -6.365   0.005 -0.886  0.463 177.228     50.45 -178.89    5.40   44.03  179.89  165.01  114.49

DOCKED: MODEL       41
DOCKED: USER    Run = 41
DOCKED: USER    DPF = ligand_dock.biased.dpf
DOCKED: USER  
DOCKED: USER    Estimated Free Energy of Binding    =  -11.66 kcal/mol  [=(1)+(2)+(3)-(4)]
DOCKED: USER    Estimated Inhibition Constant, Ki   =    2.84 nM (nanomolar)  [Temperature = 298.15 K]
DOCKED: USER    
DOCKED: USER    (1) Final Intermolecular Energy     =  -13.75 kcal/mol
DOCKED: USER        vdW + Hbond + desolv Energy     =  -13.75 kcal/mol
DOCKED: USER        Electrostatic Energy            =   +0.00 kcal/mol
DOCKED: USER    (2) Final Total Internal Energy     =   -1.02 kcal/mol
DOCKED: USER    (3) Torsional Free Energy           =   +2.09 kcal/mol
DOCKED: USER    (4) Unbound System's Energy  [=(2)] =   -1.02 kcal/mol
DOCKED: USER    
DOCKED: USER    
DOCKED: USER    NEWDPF move ligand.pdbqt
DOCKED: USER    NEWDPF about 0.576000 -0.005000 0.140000
DOCKED: USER    NEWDPF tran0 19.867147 -10.792391 -6.364905
DOCKED: USER    NEWDPF quaternion0 0.004658 -0.886192 0.462662 0.024185
DOCKED: USER    NEWDPF axisangle0 0.004659 -0.886452 0.462798 177.228290
DOCKED: USER    NEWDPF quat0 0.004659 -0.886452 0.462798 177.228290
DOCKED: USER    NEWDPF dihe0 50.45 -178.89 5.40 44.03 179.89 165.01 114.49 
DOCKED: USER  keepresnum = 1 
DOCKED: USER  
DOCKED: REMARK  Name = 
DOCKED: REMARK  8 active torsions:
DOCKED: REMARK  status: ('A' for Active; 'I' for Inactive)
DOCKED: REMARK    1  A    between atoms: C_2  and  C_3
DOCKED: REMARK    2  A    between atoms: C_4  and  C_5
DOCKED: REMARK    3  A    between atoms: C_8  and  C_9
DOCKED: REMARK    4  A    between atoms: C_9  and  N_10
DOCKED: REMARK    5  A    between atoms: N_10  and  C_11
DOCKED: REMARK    6  A    between atoms: C_11  and  C_12
DOCKED: REMARK    7  A    between atoms: C_12  and  C_13
DOCKED: REMARK    8  A    between atoms: C_14  and  C_22
DOCKED: REMARK                            x       y       z     vdW  Elec       q    Type
DOCKED: REMARK                         _______ _______ _______ _____ _____    ______ ____
DOCKED: USER                              x       y       z     vdW  Elec       q    Type
DOCKED: USER                           _______ _______ _______ _____ _____    ______ ____
DOCKED: ROOT
DOCKED: ATOM      1  N   UNL     1      20.591 -10.952  -6.611 -0.30 -0.00    +0.000 N 
DOCKED: ATOM      2  H   UNL     1      20.157 -11.035  -7.530 -0.08 -0.00    +0.000 HD
DOCKED: ATOM      3  H   UNL     1      20.580 -11.842  -6.111 -0.41 -0.00    +0.000 HD
DOCKED: ENDROOT
DOCKED: BRANCH   1   4
DOCKED: ATOM      4  C   UNL     1      19.830  -9.982  -5.815 -0.28 -0.00    +0.000 C 
DOCKED: BRANCH   4   8
DOCKED: ATOM      5  C   UNL     1      20.654 -10.504  -1.601 -0.51 -0.00    +0.000 A 
DOCKED: ATOM      6  C   UNL     1      21.399  -9.585  -2.369 -0.47 -0.00    +0.000 A 
DOCKED: ATOM      7  C   UNL     1      21.138  -9.428  -3.733 -0.40 -0.00    +0.000 A 
DOCKED: ATOM      8  C   UNL     1      20.134 -10.183  -4.356 -0.35 -0.00    +0.000 A 
DOCKED: ATOM      9  C   UNL     1      19.369 -11.074  -3.589 -0.36 -0.00    +0.000 A 
DOCKED: ATOM     10  C   UNL     1      19.627 -11.232  -2.226 -0.19 -0.00    +0.000 A 
DOCKED: BRANCH   5  12
DOCKED: ATOM     11  C   UNL     1      19.965 -11.222   0.684 -0.68 -0.00    +0.000 C 
DOCKED: ATOM     12  C   UNL     1      20.881 -10.702  -0.148 -0.68 -0.00    +0.000 C 
DOCKED: BRANCH  11  14
DOCKED: ATOM     13  O   UNL     1      20.259 -12.592   2.576 -1.71 -0.00    +0.000 OA
DOCKED: ATOM     14  C   UNL     1      20.196 -11.415   2.130 -0.77 -0.00    +0.000 C 
DOCKED: ATOM     15  N   UNL     1      20.323 -10.315   3.040 -0.56 -0.00    +0.000 N 
DOCKED: ATOM     16  O   UNL     1      20.638 -10.541   4.337 -0.91 -0.00    +0.000 OA
DOCKED: ATOM     17  H   UNL     1      20.181  -9.395   2.721 -0.54 -0.00    +0.000 HD
DOCKED: ENDBRANCH  11  14
DOCKED: ENDBRANCH   5  12
DOCKED: ENDBRANCH   4   8
DOCKED: ENDBRANCH   1   4
DOCKED: BRANCH   1  18
DOCKED: ATOM     18  C   UNL     1      21.996 -10.553  -6.787 -0.37 -0.00    +0.000 C 
DOCKED: BRANCH  18  19
DOCKED: ATOM     19  C   UNL     1      22.390 -10.420  -8.267 -0.26 -0.00    +0.000 C 
DOCKED: BRANCH  19  20
DOCKED: ATOM     20  C   UNL     1      23.773 -10.960  -8.491 -0.29 -0.00    +0.000 A 
DOCKED: ATOM     21  C   UNL     1      24.124 -12.238  -8.929 -0.38 -0.00    +0.000 A 
DOCKED: ATOM     22  N   UNL     1      25.470 -12.385  -8.947 -0.43 -0.00    +0.000 N 
DOCKED: ATOM     23  C   UNL     1      25.973 -11.221  -8.503 -0.36 -0.00    +0.000 A 
DOCKED: ATOM     24  C   UNL     1      24.971 -10.330  -8.208 -0.30 -0.00    +0.000 A 
DOCKED: ATOM     25  C   UNL     1      25.246  -9.057  -7.707 -0.25 -0.00    +0.000 A 
DOCKED: ATOM     26  C   UNL     1      26.593  -8.702  -7.517 -0.28 -0.00    +0.000 A 
DOCKED: ATOM     27  C   UNL     1      27.625  -9.617  -7.825 -0.38 -0.00    +0.000 A 
DOCKED: ATOM     28  C   UNL     1      27.318 -10.896  -8.323 -0.33 -0.00    +0.000 A 
DOCKED: ATOM     29  C   UNL     1      23.168 -13.311  -9.343 -0.36 -0.00    +0.000 C 
DOCKED: ATOM     30  H   UNL     1      25.976 -13.182  -9.226 -0.57 -0.00    +0.000 HD
DOCKED: ENDBRANCH  19  20
DOCKED: ENDBRANCH  18  19
DOCKED: ENDBRANCH   1  18
DOCKED: TORSDOF 7
DOCKED: TER
DOCKED: ENDMDL
________________________________________________________________________________


	BEGINNING GENETIC ALGORITHM DOCKING 42 of 100
Run: 42 Seed: 636570306 1115800585 [ Run 42 of 100 GA/GALS ]
Beginning LAMARCKIAN GENETIC ALGORITHM (LGA), with a maximum of 2500000 energy evaluations.

Final-Value: -13.379


	FINAL GENETIC ALGORITHM DOCKED STATE
	_______________________________________________


Detailed state:  trans 21.191 -9.977 -6.425 quatxyzw 0.646477 -0.203691 0.690518 -0.252513 center 0.576 -0.005 0.140 ntor 7 -139.6517 -176.4341 173.8346 -97.3810 -14.3299 51.4538 -24.8139
State:	 21.191  -9.977  -6.425   0.668 -0.211  0.714 -150.748   -139.65 -176.43  173.83  -97.38  -14.33   51.45  -24.81

DOCKED: MODEL       42
DOCKED: USER    Run = 42
DOCKED: USER    DPF = ligand_dock.biased.dpf
DOCKED: USER  
DOCKED: USER    Estimated Free Energy of Binding    =  -10.21 kcal/mol  [=(1)+(2)+(3)-(4)]
DOCKED: USER    Estimated Inhibition Constant, Ki   =   33.08 nM (nanomolar)  [Temperature = 298.15 K]
DOCKED: USER    
DOCKED: USER    (1) Final Intermolecular Energy     =  -12.29 kcal/mol
DOCKED: USER        vdW + Hbond + desolv Energy     =  -12.29 kcal/mol
DOCKED: USER        Electrostatic Energy            =   +0.00 kcal/mol
DOCKED: USER    (2) Final Total Internal Energy     =   -1.09 kcal/mol
DOCKED: USER    (3) Torsional Free Energy           =   +2.09 kcal/mol
DOCKED: USER    (4) Unbound System's Energy  [=(2)] =   -1.09 kcal/mol
DOCKED: USER    
DOCKED: USER    
DOCKED: USER    NEWDPF move ligand.pdbqt
DOCKED: USER    NEWDPF about 0.576000 -0.005000 0.140000
DOCKED: USER    NEWDPF tran0 21.190649 -9.976620 -6.424818
DOCKED: USER    NEWDPF quaternion0 0.646477 -0.203691 0.690518 -0.252513
DOCKED: USER    NEWDPF axisangle0 0.668129 -0.210513 0.713644 -150.747512
DOCKED: USER    NEWDPF quat0 0.668129 -0.210513 0.713644 -150.747512
DOCKED: USER    NEWDPF dihe0 -139.65 -176.43 173.83 -97.38 -14.33 51.45 -24.81 
DOCKED: USER  keepresnum = 1 
DOCKED: USER  
DOCKED: REMARK  Name = 
DOCKED: REMARK  8 active torsions:
DOCKED: REMARK  status: ('A' for Active; 'I' for Inactive)
DOCKED: REMARK    1  A    between atoms: C_2  and  C_3
DOCKED: REMARK    2  A    between atoms: C_4  and  C_5
DOCKED: REMARK    3  A    between atoms: C_8  and  C_9
DOCKED: REMARK    4  A    between atoms: C_9  and  N_10
DOCKED: REMARK    5  A    between atoms: N_10  and  C_11
DOCKED: REMARK    6  A    between atoms: C_11  and  C_12
DOCKED: REMARK    7  A    between atoms: C_12  and  C_13
DOCKED: REMARK    8  A    between atoms: C_14  and  C_22
DOCKED: REMARK                            x       y       z     vdW  Elec       q    Type
DOCKED: REMARK                         _______ _______ _______ _____ _____    ______ ____
DOCKED: USER                              x       y       z     vdW  Elec       q    Type
DOCKED: USER                           _______ _______ _______ _____ _____    ______ ____
DOCKED: ROOT
DOCKED: ATOM      1  N   UNL     1      21.384 -10.319  -7.100 -0.26 -0.00    +0.000 N 
DOCKED: ATOM      2  H   UNL     1      21.390 -11.179  -6.552 -0.12 -0.00    +0.000 HD
DOCKED: ATOM      3  H   UNL     1      22.296  -9.861  -7.087 -0.00 -0.00    +0.000 HD
DOCKED: ENDROOT
DOCKED: BRANCH   1   4
DOCKED: ATOM      4  C   UNL     1      20.409  -9.391  -6.513 -0.20 -0.00    +0.000 C 
DOCKED: BRANCH   4   8
DOCKED: ATOM      5  C   UNL     1      19.718 -10.557  -2.405 -0.41 -0.00    +0.000 A 
DOCKED: ATOM      6  C   UNL     1      18.791 -10.894  -3.412 -0.26 -0.00    +0.000 A 
DOCKED: ATOM      7  C   UNL     1      19.011 -10.505  -4.737 -0.32 -0.00    +0.000 A 
DOCKED: ATOM      8  C   UNL     1      20.156  -9.773  -5.081 -0.27 -0.00    +0.000 A 
DOCKED: ATOM      9  C   UNL     1      21.098  -9.465  -4.088 -0.37 -0.00    +0.000 A 
DOCKED: ATOM     10  C   UNL     1      20.880  -9.854  -2.764 -0.47 -0.00    +0.000 A 
DOCKED: BRANCH   5  12
DOCKED: ATOM     11  C   UNL     1      20.540 -10.986  -0.091 -0.61 -0.00    +0.000 C 
DOCKED: ATOM     12  C   UNL     1      19.540 -10.955  -0.987 -0.50 -0.00    +0.000 C 
DOCKED: BRANCH  11  14
DOCKED: ATOM     13  O   UNL     1      19.871 -12.521   1.564 -1.66 -0.00    +0.000 OA
DOCKED: ATOM     14  C   UNL     1      20.356 -11.384   1.319 -0.75 -0.00    +0.000 C 
DOCKED: ATOM     15  N   UNL     1      20.685 -10.515   2.411 -0.55 -0.00    +0.000 N 
DOCKED: ATOM     16  O   UNL     1      20.598 -10.965   3.684 -1.19 -0.00    +0.000 OA
DOCKED: ATOM     17  H   UNL     1      20.974  -9.592   2.233 -0.56 -0.00    +0.000 HD
DOCKED: ENDBRANCH  11  14
DOCKED: ENDBRANCH   5  12
DOCKED: ENDBRANCH   4   8
DOCKED: ENDBRANCH   1   4
DOCKED: BRANCH   1  18
DOCKED: ATOM     18  C   UNL     1      21.069 -10.650  -8.498 -0.24 -0.00    +0.000 C 
DOCKED: BRANCH  18  19
DOCKED: ATOM     19  C   UNL     1      22.236 -10.351  -9.453 -0.19 -0.00    +0.000 C 
DOCKED: BRANCH  19  20
DOCKED: ATOM     20  C   UNL     1      23.275 -11.431  -9.365 -0.25 -0.00    +0.000 A 
DOCKED: ATOM     21  C   UNL     1      24.436 -11.430  -8.589 -0.36 -0.00    +0.000 A 
DOCKED: ATOM     22  N   UNL     1      25.166 -12.546  -8.820 -0.44 -0.00    +0.000 N 
DOCKED: ATOM     23  C   UNL     1      24.490 -13.243  -9.750 -0.32 -0.00    +0.000 A 
DOCKED: ATOM     24  C   UNL     1      23.336 -12.593 -10.112 -0.29 -0.00    +0.000 A 
DOCKED: ATOM     25  C   UNL     1      22.477 -13.110 -11.082 -0.24 -0.00    +0.000 A 
DOCKED: ATOM     26  C   UNL     1      22.823 -14.335 -11.680 -0.32 +0.00    +0.000 A 
DOCKED: ATOM     27  C   UNL     1      24.007 -15.007 -11.303 -0.34 +0.00    +0.000 A 
DOCKED: ATOM     28  C   UNL     1      24.858 -14.458 -10.327 -0.29 -0.00    +0.000 A 
DOCKED: ATOM     29  C   UNL     1      24.835 -10.365  -7.619 -0.35 -0.00    +0.000 C 
DOCKED: ATOM     30  H   UNL     1      26.019 -12.796  -8.395 -0.18 -0.00    +0.000 HD
DOCKED: ENDBRANCH  19  20
DOCKED: ENDBRANCH  18  19
DOCKED: ENDBRANCH   1  18
DOCKED: TORSDOF 7
DOCKED: TER
DOCKED: ENDMDL
________________________________________________________________________________


	BEGINNING GENETIC ALGORITHM DOCKING 43 of 100
Run: 43 Seed: 403477350 337528787 [ Run 43 of 100 GA/GALS ]
Beginning LAMARCKIAN GENETIC ALGORITHM (LGA), with a maximum of 2500000 energy evaluations.

Final-Value: -14.193


	FINAL GENETIC ALGORITHM DOCKED STATE
	_______________________________________________


Detailed state:  trans 22.447 -9.943 -5.592 quatxyzw -0.559377 0.335459 -0.689533 0.314815 center 0.576 -0.005 0.140 ntor 7 -58.7123 -147.5871 123.7627 76.8400 -119.1377 125.6132 -11.6548
State:	 22.447  -9.943  -5.592  -0.589  0.353 -0.726 143.301    -58.71 -147.59  123.76   76.84 -119.14  125.61  -11.65

DOCKED: MODEL       43
DOCKED: USER    Run = 43
DOCKED: USER    DPF = ligand_dock.biased.dpf
DOCKED: USER  
DOCKED: USER    Estimated Free Energy of Binding    =  -11.18 kcal/mol  [=(1)+(2)+(3)-(4)]
DOCKED: USER    Estimated Inhibition Constant, Ki   =    6.40 nM (nanomolar)  [Temperature = 298.15 K]
DOCKED: USER    
DOCKED: USER    (1) Final Intermolecular Energy     =  -13.27 kcal/mol
DOCKED: USER        vdW + Hbond + desolv Energy     =  -13.27 kcal/mol
DOCKED: USER        Electrostatic Energy            =   +0.00 kcal/mol
DOCKED: USER    (2) Final Total Internal Energy     =   -0.93 kcal/mol
DOCKED: USER    (3) Torsional Free Energy           =   +2.09 kcal/mol
DOCKED: USER    (4) Unbound System's Energy  [=(2)] =   -0.93 kcal/mol
DOCKED: USER    
DOCKED: USER    
DOCKED: USER    NEWDPF move ligand.pdbqt
DOCKED: USER    NEWDPF about 0.576000 -0.005000 0.140000
DOCKED: USER    NEWDPF tran0 22.447257 -9.943175 -5.591724
DOCKED: USER    NEWDPF quaternion0 -0.559377 0.335459 -0.689533 0.314815
DOCKED: USER    NEWDPF axisangle0 -0.589344 0.353429 -0.726472 143.300700
DOCKED: USER    NEWDPF quat0 -0.589344 0.353429 -0.726472 143.300700
DOCKED: USER    NEWDPF dihe0 -58.71 -147.59 123.76 76.84 -119.14 125.61 -11.65 
DOCKED: USER  keepresnum = 1 
DOCKED: USER  
DOCKED: REMARK  Name = 
DOCKED: REMARK  8 active torsions:
DOCKED: REMARK  status: ('A' for Active; 'I' for Inactive)
DOCKED: REMARK    1  A    between atoms: C_2  and  C_3
DOCKED: REMARK    2  A    between atoms: C_4  and  C_5
DOCKED: REMARK    3  A    between atoms: C_8  and  C_9
DOCKED: REMARK    4  A    between atoms: C_9  and  N_10
DOCKED: REMARK    5  A    between atoms: N_10  and  C_11
DOCKED: REMARK    6  A    between atoms: C_11  and  C_12
DOCKED: REMARK    7  A    between atoms: C_12  and  C_13
DOCKED: REMARK    8  A    between atoms: C_14  and  C_22
DOCKED: REMARK                            x       y       z     vdW  Elec       q    Type
DOCKED: REMARK                         _______ _______ _______ _____ _____    ______ ____
DOCKED: USER                              x       y       z     vdW  Elec       q    Type
DOCKED: USER                           _______ _______ _______ _____ _____    ______ ____
DOCKED: ROOT
DOCKED: ATOM      1  N   UNL     1      22.646 -10.304  -6.256 -0.32 -0.00    +0.000 N 
DOCKED: ATOM      2  H   UNL     1      22.316 -11.146  -5.784 -0.03 -0.00    +0.000 HD
DOCKED: ATOM      3  H   UNL     1      23.634 -10.134  -6.070 +0.00 -0.00    +0.000 HD
DOCKED: ENDROOT
DOCKED: BRANCH   1   4
DOCKED: ATOM      4  C   UNL     1      21.890  -9.152  -5.748 -0.29 -0.00    +0.000 C 
DOCKED: BRANCH   4   8
DOCKED: ATOM      5  C   UNL     1      20.921  -9.750  -1.575 -0.55 -0.00    +0.000 A 
DOCKED: ATOM      6  C   UNL     1      21.026  -8.449  -2.107 -0.44 -0.00    +0.000 A 
DOCKED: ATOM      7  C   UNL     1      21.352  -8.259  -3.454 -0.35 -0.00    +0.000 A 
DOCKED: ATOM      8  C   UNL     1      21.580  -9.360  -4.292 -0.33 -0.00    +0.000 A 
DOCKED: ATOM      9  C   UNL     1      21.443 -10.657  -3.774 -0.45 -0.00    +0.000 A 
DOCKED: ATOM     10  C   UNL     1      21.117 -10.849  -2.430 -0.33 -0.00    +0.000 A 
DOCKED: BRANCH   5  12
DOCKED: ATOM     11  C   UNL     1      20.641 -11.220   0.419 -0.66 -0.00    +0.000 C 
DOCKED: ATOM     12  C   UNL     1      20.566 -10.010  -0.158 -0.64 -0.00    +0.000 C 
DOCKED: BRANCH  11  14
DOCKED: ATOM     13  O   UNL     1      19.625 -12.509   2.107 -1.61 -0.00    +0.000 OA
DOCKED: ATOM     14  C   UNL     1      20.285 -11.472   1.829 -0.77 -0.00    +0.000 C 
DOCKED: ATOM     15  N   UNL     1      20.639 -10.567   2.884 -0.63 -0.00    +0.000 N 
DOCKED: ATOM     16  O   UNL     1      20.383 -10.894   4.172 -1.03 -0.00    +0.000 OA
DOCKED: ATOM     17  H   UNL     1      21.069  -9.708   2.670 -0.59 -0.00    +0.000 HD
DOCKED: ENDBRANCH  11  14
DOCKED: ENDBRANCH   5  12
DOCKED: ENDBRANCH   4   8
DOCKED: ENDBRANCH   1   4
DOCKED: BRANCH   1  18
DOCKED: ATOM     18  C   UNL     1      22.486 -10.482  -7.707 -0.31 -0.00    +0.000 C 
DOCKED: BRANCH  18  19
DOCKED: ATOM     19  C   UNL     1      22.871 -11.895  -8.174 -0.40 -0.00    +0.000 C 
DOCKED: BRANCH  19  20
DOCKED: ATOM     20  C   UNL     1      24.173 -11.863  -8.920 -0.35 -0.00    +0.000 A 
DOCKED: ATOM     21  C   UNL     1      24.550 -12.659 -10.003 -0.31 -0.00    +0.000 A 
DOCKED: ATOM     22  N   UNL     1      25.826 -12.394 -10.372 -0.15 -0.00    +0.000 N 
DOCKED: ATOM     23  C   UNL     1      26.267 -11.453  -9.519 -0.26 -0.00    +0.000 A 
DOCKED: ATOM     24  C   UNL     1      25.291 -11.109  -8.616 -0.35 -0.00    +0.000 A 
DOCKED: ATOM     25  C   UNL     1      25.521 -10.167  -7.613 -0.31 -0.00    +0.000 A 
DOCKED: ATOM     26  C   UNL     1      26.790  -9.564  -7.556 -0.36 -0.00    +0.000 A 
DOCKED: ATOM     27  C   UNL     1      27.792  -9.915  -8.489 -0.34 -0.00    +0.000 A 
DOCKED: ATOM     28  C   UNL     1      27.534 -10.873  -9.485 -0.27 -0.00    +0.000 A 
DOCKED: ATOM     29  C   UNL     1      23.682 -13.664 -10.691 -0.37 -0.00    +0.000 C 
DOCKED: ATOM     30  H   UNL     1      26.327 -12.806 -11.112 -0.44 -0.00    +0.000 HD
DOCKED: ENDBRANCH  19  20
DOCKED: ENDBRANCH  18  19
DOCKED: ENDBRANCH   1  18
DOCKED: TORSDOF 7
DOCKED: TER
DOCKED: ENDMDL
________________________________________________________________________________


	BEGINNING GENETIC ALGORITHM DOCKING 44 of 100
Run: 44 Seed: 2036831572 224398290 [ Run 44 of 100 GA/GALS ]
Beginning LAMARCKIAN GENETIC ALGORITHM (LGA), with a maximum of 2500000 energy evaluations.

Final-Value: -14.240


	FINAL GENETIC ALGORITHM DOCKED STATE
	_______________________________________________


Detailed state:  trans 20.627 -9.616 -6.180 quatxyzw -0.506099 -0.490558 -0.692353 -0.154478 center 0.576 -0.005 0.140 ntor 7 -14.9219 -88.1179 -178.1375 29.6754 54.6620 -155.4564 -42.4057
State:	 20.627  -9.616  -6.180  -0.512 -0.497 -0.701 -162.227    -14.92  -88.12 -178.14   29.68   54.66 -155.46  -42.41

DOCKED: MODEL       44
DOCKED: USER    Run = 44
DOCKED: USER    DPF = ligand_dock.biased.dpf
DOCKED: USER  
DOCKED: USER    Estimated Free Energy of Binding    =  -11.13 kcal/mol  [=(1)+(2)+(3)-(4)]
DOCKED: USER    Estimated Inhibition Constant, Ki   =    6.89 nM (nanomolar)  [Temperature = 298.15 K]
DOCKED: USER    
DOCKED: USER    (1) Final Intermolecular Energy     =  -13.22 kcal/mol
DOCKED: USER        vdW + Hbond + desolv Energy     =  -13.22 kcal/mol
DOCKED: USER        Electrostatic Energy            =   +0.00 kcal/mol
DOCKED: USER    (2) Final Total Internal Energy     =   -1.02 kcal/mol
DOCKED: USER    (3) Torsional Free Energy           =   +2.09 kcal/mol
DOCKED: USER    (4) Unbound System's Energy  [=(2)] =   -1.02 kcal/mol
DOCKED: USER    
DOCKED: USER    
DOCKED: USER    NEWDPF move ligand.pdbqt
DOCKED: USER    NEWDPF about 0.576000 -0.005000 0.140000
DOCKED: USER    NEWDPF tran0 20.626753 -9.616448 -6.180421
DOCKED: USER    NEWDPF quaternion0 -0.506099 -0.490558 -0.692353 -0.154478
DOCKED: USER    NEWDPF axisangle0 -0.512248 -0.496518 -0.700765 -162.227010
DOCKED: USER    NEWDPF quat0 -0.512248 -0.496518 -0.700765 -162.227010
DOCKED: USER    NEWDPF dihe0 -14.92 -88.12 -178.14 29.68 54.66 -155.46 -42.41 
DOCKED: USER  keepresnum = 1 
DOCKED: USER  
DOCKED: REMARK  Name = 
DOCKED: REMARK  8 active torsions:
DOCKED: REMARK  status: ('A' for Active; 'I' for Inactive)
DOCKED: REMARK    1  A    between atoms: C_2  and  C_3
DOCKED: REMARK    2  A    between atoms: C_4  and  C_5
DOCKED: REMARK    3  A    between atoms: C_8  and  C_9
DOCKED: REMARK    4  A    between atoms: C_9  and  N_10
DOCKED: REMARK    5  A    between atoms: N_10  and  C_11
DOCKED: REMARK    6  A    between atoms: C_11  and  C_12
DOCKED: REMARK    7  A    between atoms: C_12  and  C_13
DOCKED: REMARK    8  A    between atoms: C_14  and  C_22
DOCKED: REMARK                            x       y       z     vdW  Elec       q    Type
DOCKED: REMARK                         _______ _______ _______ _____ _____    ______ ____
DOCKED: USER                              x       y       z     vdW  Elec       q    Type
DOCKED: USER                           _______ _______ _______ _____ _____    ______ ____
DOCKED: ROOT
DOCKED: ATOM      1  N   UNL     1      21.193  -9.618  -6.720 -0.21 -0.00    +0.000 N 
DOCKED: ATOM      2  H   UNL     1      21.797  -9.336  -5.947 -0.00 -0.00    +0.000 HD
DOCKED: ATOM      3  H   UNL     1      20.775  -8.810  -7.181 +0.01 -0.00    +0.000 HD
DOCKED: ENDROOT
DOCKED: BRANCH   1   4
DOCKED: ATOM      4  C   UNL     1      20.101 -10.444  -6.188 -0.33 -0.00    +0.000 C 
DOCKED: BRANCH   4   8
DOCKED: ATOM      5  C   UNL     1      20.399 -10.546  -1.874 -0.47 -0.00    +0.000 A 
DOCKED: ATOM      6  C   UNL     1      21.558 -10.462  -2.671 -0.41 -0.00    +0.000 A 
DOCKED: ATOM      7  C   UNL     1      21.459 -10.441  -4.065 -0.45 -0.00    +0.000 A 
DOCKED: ATOM      8  C   UNL     1      20.205 -10.507  -4.690 -0.38 -0.00    +0.000 A 
DOCKED: ATOM      9  C   UNL     1      19.047 -10.556  -3.900 -0.34 -0.00    +0.000 A 
DOCKED: ATOM     10  C   UNL     1      19.144 -10.575  -2.506 -0.37 -0.00    +0.000 A 
DOCKED: BRANCH   5  12
DOCKED: ATOM     11  C   UNL     1      20.139 -11.633   0.354 -0.51 -0.00    +0.000 C 
DOCKED: ATOM     12  C   UNL     1      20.445 -10.559  -0.391 -0.64 -0.00    +0.000 C 
DOCKED: BRANCH  11  14
DOCKED: ATOM     13  O   UNL     1      19.911 -12.709   2.435 -1.56 -0.00    +0.000 OA
DOCKED: ATOM     14  C   UNL     1      20.185 -11.639   1.830 -0.78 -0.00    +0.000 C 
DOCKED: ATOM     15  N   UNL     1      20.503 -10.468   2.593 -0.57 -0.00    +0.000 N 
DOCKED: ATOM     16  O   UNL     1      20.635 -10.550   3.937 -1.08 -0.00    +0.000 OA
DOCKED: ATOM     17  H   UNL     1      20.625  -9.604   2.138 -0.53 -0.00    +0.000 HD
DOCKED: ENDBRANCH  11  14
DOCKED: ENDBRANCH   5  12
DOCKED: ENDBRANCH   4   8
DOCKED: ENDBRANCH   1   4
DOCKED: BRANCH   1  18
DOCKED: ATOM     18  C   UNL     1      22.002 -10.335  -7.716 -0.29 -0.00    +0.000 C 
DOCKED: BRANCH  18  19
DOCKED: ATOM     19  C   UNL     1      23.067 -11.238  -7.071 -0.45 -0.00    +0.000 C 
DOCKED: BRANCH  19  20
DOCKED: ATOM     20  C   UNL     1      24.215 -11.450  -8.015 -0.40 -0.00    +0.000 A 
DOCKED: ATOM     21  C   UNL     1      24.337 -12.438  -8.994 -0.39 -0.00    +0.000 A 
DOCKED: ATOM     22  N   UNL     1      25.542 -12.359  -9.606 -0.35 -0.00    +0.000 N 
DOCKED: ATOM     23  C   UNL     1      26.192 -11.345  -9.010 -0.33 -0.00    +0.000 A 
DOCKED: ATOM     24  C   UNL     1      25.419 -10.770  -8.031 -0.35 -0.00    +0.000 A 
DOCKED: ATOM     25  C   UNL     1      25.888  -9.710  -7.255 -0.27 -0.00    +0.000 A 
DOCKED: ATOM     26  C   UNL     1      27.187  -9.233  -7.510 -0.35 -0.00    +0.000 A 
DOCKED: ATOM     27  C   UNL     1      27.979  -9.821  -8.521 -0.33 -0.00    +0.000 A 
DOCKED: ATOM     28  C   UNL     1      27.482 -10.893  -9.283 -0.30 -0.00    +0.000 A 
DOCKED: ATOM     29  C   UNL     1      23.293 -13.448  -9.348 -0.32 -0.00    +0.000 C 
DOCKED: ATOM     30  H   UNL     1      25.874 -12.929 -10.338 -0.47 -0.00    +0.000 HD
DOCKED: ENDBRANCH  19  20
DOCKED: ENDBRANCH  18  19
DOCKED: ENDBRANCH   1  18
DOCKED: TORSDOF 7
DOCKED: TER
DOCKED: ENDMDL
________________________________________________________________________________


	BEGINNING GENETIC ALGORITHM DOCKING 45 of 100
Run: 45 Seed: 500850848 1787830428 [ Run 45 of 100 GA/GALS ]
Beginning LAMARCKIAN GENETIC ALGORITHM (LGA), with a maximum of 2500000 energy evaluations.

Final-Value: -13.576


	FINAL GENETIC ALGORITHM DOCKED STATE
	_______________________________________________


Detailed state:  trans 22.511 -8.477 -5.503 quatxyzw -0.626172 0.065423 -0.774527 -0.061118 center 0.576 -0.005 0.140 ntor 7 0.9796 165.6425 163.9606 -122.7059 -176.1430 63.6663 -7.2049
State:	 22.511  -8.477  -5.503  -0.627  0.066 -0.776 -172.992      0.98  165.64  163.96 -122.71 -176.14   63.67   -7.20

DOCKED: MODEL       45
DOCKED: USER    Run = 45
DOCKED: USER    DPF = ligand_dock.biased.dpf
DOCKED: USER  
DOCKED: USER    Estimated Free Energy of Binding    =  -10.27 kcal/mol  [=(1)+(2)+(3)-(4)]
DOCKED: USER    Estimated Inhibition Constant, Ki   =   29.48 nM (nanomolar)  [Temperature = 298.15 K]
DOCKED: USER    
DOCKED: USER    (1) Final Intermolecular Energy     =  -12.36 kcal/mol
DOCKED: USER        vdW + Hbond + desolv Energy     =  -12.36 kcal/mol
DOCKED: USER        Electrostatic Energy            =   +0.00 kcal/mol
DOCKED: USER    (2) Final Total Internal Energy     =   -1.21 kcal/mol
DOCKED: USER    (3) Torsional Free Energy           =   +2.09 kcal/mol
DOCKED: USER    (4) Unbound System's Energy  [=(2)] =   -1.21 kcal/mol
DOCKED: USER    
DOCKED: USER    
DOCKED: USER    NEWDPF move ligand.pdbqt
DOCKED: USER    NEWDPF about 0.576000 -0.005000 0.140000
DOCKED: USER    NEWDPF tran0 22.510524 -8.477295 -5.503060
DOCKED: USER    NEWDPF quaternion0 -0.626172 0.065423 -0.774527 -0.061118
DOCKED: USER    NEWDPF axisangle0 -0.627345 0.065546 -0.775978 -172.992081
DOCKED: USER    NEWDPF quat0 -0.627345 0.065546 -0.775978 -172.992081
DOCKED: USER    NEWDPF dihe0 0.98 165.64 163.96 -122.71 -176.14 63.67 -7.20 
DOCKED: USER  keepresnum = 1 
DOCKED: USER  
DOCKED: REMARK  Name = 
DOCKED: REMARK  8 active torsions:
DOCKED: REMARK  status: ('A' for Active; 'I' for Inactive)
DOCKED: REMARK    1  A    between atoms: C_2  and  C_3
DOCKED: REMARK    2  A    between atoms: C_4  and  C_5
DOCKED: REMARK    3  A    between atoms: C_8  and  C_9
DOCKED: REMARK    4  A    between atoms: C_9  and  N_10
DOCKED: REMARK    5  A    between atoms: N_10  and  C_11
DOCKED: REMARK    6  A    between atoms: C_11  and  C_12
DOCKED: REMARK    7  A    between atoms: C_12  and  C_13
DOCKED: REMARK    8  A    between atoms: C_14  and  C_22
DOCKED: REMARK                            x       y       z     vdW  Elec       q    Type
DOCKED: REMARK                         _______ _______ _______ _____ _____    ______ ____
DOCKED: USER                              x       y       z     vdW  Elec       q    Type
DOCKED: USER                           _______ _______ _______ _____ _____    ______ ____
DOCKED: ROOT
DOCKED: ATOM      1  N   UNL     1      22.959  -8.479  -6.143 -0.20 -0.00    +0.000 N 
DOCKED: ATOM      2  H   UNL     1      23.429  -9.265  -5.695 -0.02 -0.00    +0.000 HD
DOCKED: ATOM      3  H   UNL     1      23.377  -7.589  -5.870 -0.02 -0.00    +0.000 HD
DOCKED: ENDROOT
DOCKED: BRANCH   1   4
DOCKED: ATOM      4  C   UNL     1      21.554  -8.463  -5.717 -0.24 -0.00    +0.000 C 
DOCKED: BRANCH   4   8
DOCKED: ATOM      5  C   UNL     1      21.230  -9.520  -1.535 -0.54 -0.00    +0.000 A 
DOCKED: ATOM      6  C   UNL     1      21.246  -8.168  -1.934 -0.43 -0.00    +0.000 A 
DOCKED: ATOM      7  C   UNL     1      21.362  -7.830  -3.285 -0.36 -0.00    +0.000 A 
DOCKED: ATOM      8  C   UNL     1      21.469  -8.831  -4.262 -0.31 -0.00    +0.000 A 
DOCKED: ATOM      9  C   UNL     1      21.420 -10.177  -3.872 -0.44 -0.00    +0.000 A 
DOCKED: ATOM     10  C   UNL     1      21.302 -10.517  -2.522 -0.49 -0.00    +0.000 A 
DOCKED: BRANCH   5  12
DOCKED: ATOM     11  C   UNL     1      20.398 -11.010   0.281 -0.66 -0.00    +0.000 C 
DOCKED: ATOM     12  C   UNL     1      21.096  -9.935  -0.117 -0.69 -0.00    +0.000 C 
DOCKED: BRANCH  11  14
DOCKED: ATOM     13  O   UNL     1      19.893 -12.593   1.949 -1.69 -0.00    +0.000 OA
DOCKED: ATOM     14  C   UNL     1      20.266 -11.417   1.695 -0.77 -0.00    +0.000 C 
DOCKED: ATOM     15  N   UNL     1      20.521 -10.516   2.780 -0.63 -0.00    +0.000 N 
DOCKED: ATOM     16  O   UNL     1      20.489 -10.965   4.056 -1.07 -0.00    +0.000 OA
DOCKED: ATOM     17  H   UNL     1      20.719  -9.569   2.596 -0.54 -0.00    +0.000 HD
DOCKED: ENDBRANCH  11  14
DOCKED: ENDBRANCH   5  12
DOCKED: ENDBRANCH   4   8
DOCKED: ENDBRANCH   1   4
DOCKED: BRANCH   1  18
DOCKED: ATOM     18  C   UNL     1      23.100  -8.612  -7.601 -0.18 -0.00    +0.000 C 
DOCKED: BRANCH  18  19
DOCKED: ATOM     19  C   UNL     1      24.168  -7.669  -8.178 -0.12 -0.00    +0.000 C 
DOCKED: BRANCH  19  20
DOCKED: ATOM     20  C   UNL     1      25.469  -7.843  -7.450 -0.18 -0.00    +0.000 A 
DOCKED: ATOM     21  C   UNL     1      26.040  -6.978  -6.514 -0.14 -0.00    +0.000 A 
DOCKED: ATOM     22  N   UNL     1      27.253  -7.432  -6.120 -0.31 -0.00    +0.000 N 
DOCKED: ATOM     23  C   UNL     1      27.465  -8.564  -6.813 -0.38 -0.00    +0.000 A 
DOCKED: ATOM     24  C   UNL     1      26.404  -8.844  -7.639 -0.27 -0.00    +0.000 A 
DOCKED: ATOM     25  C   UNL     1      26.403  -9.959  -8.478 -0.30 -0.00    +0.000 A 
DOCKED: ATOM     26  C   UNL     1      27.526 -10.804  -8.450 -0.36 -0.00    +0.000 A 
DOCKED: ATOM     27  C   UNL     1      28.615 -10.519  -7.596 -0.44 -0.00    +0.000 A 
DOCKED: ATOM     28  C   UNL     1      28.592  -9.384  -6.766 -0.44 -0.00    +0.000 A 
DOCKED: ATOM     29  C   UNL     1      25.415  -5.725  -5.990 -0.13 -0.00    +0.000 C 
DOCKED: ATOM     30  H   UNL     1      27.857  -7.018  -5.461 -0.03 -0.00    +0.000 HD
DOCKED: ENDBRANCH  19  20
DOCKED: ENDBRANCH  18  19
DOCKED: ENDBRANCH   1  18
DOCKED: TORSDOF 7
DOCKED: TER
DOCKED: ENDMDL
________________________________________________________________________________


	BEGINNING GENETIC ALGORITHM DOCKING 46 of 100
Run: 46 Seed: 2094068896 1482312536 [ Run 46 of 100 GA/GALS ]
Beginning LAMARCKIAN GENETIC ALGORITHM (LGA), with a maximum of 2500000 energy evaluations.

Final-Value: -12.891


	FINAL GENETIC ALGORITHM DOCKED STATE
	_______________________________________________


Detailed state:  trans 18.492 -11.410 1.676 quatxyzw 0.685546 -0.361481 -0.475088 -0.416713 center 0.576 -0.005 0.140 ntor 7 152.6352 150.7060 -1.8143 -137.5948 -139.7414 80.9830 82.8884
State:	 18.492 -11.410   1.676   0.754 -0.398 -0.523 -130.745    152.64  150.71   -1.81 -137.59 -139.74   80.98   82.89

DOCKED: MODEL       46
DOCKED: USER    Run = 46
DOCKED: USER    DPF = ligand_dock.biased.dpf
DOCKED: USER  
DOCKED: USER    Estimated Free Energy of Binding    =   -9.20 kcal/mol  [=(1)+(2)+(3)-(4)]
DOCKED: USER    Estimated Inhibition Constant, Ki   =  180.25 nM (nanomolar)  [Temperature = 298.15 K]
DOCKED: USER    
DOCKED: USER    (1) Final Intermolecular Energy     =  -11.29 kcal/mol
DOCKED: USER        vdW + Hbond + desolv Energy     =  -11.29 kcal/mol
DOCKED: USER        Electrostatic Energy            =   +0.00 kcal/mol
DOCKED: USER    (2) Final Total Internal Energy     =   -1.60 kcal/mol
DOCKED: USER    (3) Torsional Free Energy           =   +2.09 kcal/mol
DOCKED: USER    (4) Unbound System's Energy  [=(2)] =   -1.60 kcal/mol
DOCKED: USER    
DOCKED: USER    
DOCKED: USER    NEWDPF move ligand.pdbqt
DOCKED: USER    NEWDPF about 0.576000 -0.005000 0.140000
DOCKED: USER    NEWDPF tran0 18.492153 -11.409874 1.676077
DOCKED: USER    NEWDPF quaternion0 0.685546 -0.361481 -0.475088 -0.416713
DOCKED: USER    NEWDPF axisangle0 0.754144 -0.397652 -0.522627 -130.745476
DOCKED: USER    NEWDPF quat0 0.754144 -0.397652 -0.522627 -130.745476
DOCKED: USER    NEWDPF dihe0 152.64 150.71 -1.81 -137.59 -139.74 80.98 82.89 
DOCKED: USER  keepresnum = 1 
DOCKED: USER  
DOCKED: REMARK  Name = 
DOCKED: REMARK  8 active torsions:
DOCKED: REMARK  status: ('A' for Active; 'I' for Inactive)
DOCKED: REMARK    1  A    between atoms: C_2  and  C_3
DOCKED: REMARK    2  A    between atoms: C_4  and  C_5
DOCKED: REMARK    3  A    between atoms: C_8  and  C_9
DOCKED: REMARK    4  A    between atoms: C_9  and  N_10
DOCKED: REMARK    5  A    between atoms: N_10  and  C_11
DOCKED: REMARK    6  A    between atoms: C_11  and  C_12
DOCKED: REMARK    7  A    between atoms: C_12  and  C_13
DOCKED: REMARK    8  A    between atoms: C_14  and  C_22
DOCKED: REMARK                            x       y       z     vdW  Elec       q    Type
DOCKED: REMARK                         _______ _______ _______ _____ _____    ______ ____
DOCKED: USER                              x       y       z     vdW  Elec       q    Type
DOCKED: USER                           _______ _______ _______ _____ _____    ______ ____
DOCKED: ROOT
DOCKED: ATOM      1  N   UNL     1      17.985 -10.895   1.973 -0.45 -0.00    +0.000 N 
DOCKED: ATOM      2  H   UNL     1      17.506 -11.720   2.333 -0.01 +0.00    +0.000 HD
DOCKED: ATOM      3  H   UNL     1      17.660 -10.653   1.037 -0.00 -0.00    +0.000 HD
DOCKED: ENDROOT
DOCKED: BRANCH   1   4
DOCKED: ATOM      4  C   UNL     1      19.422 -11.183   1.887 -0.68 -0.00    +0.000 C 
DOCKED: BRANCH   4   8
DOCKED: ATOM      5  C   UNL     1      20.904 -10.230  -2.063 -0.51 -0.00    +0.000 A 
DOCKED: ATOM      6  C   UNL     1      21.604  -9.809  -0.914 -0.48 -0.00    +0.000 A 
DOCKED: ATOM      7  C   UNL     1      21.115 -10.109   0.361 -0.58 -0.00    +0.000 A 
DOCKED: ATOM      8  C   UNL     1      19.922 -10.829   0.514 -0.57 -0.00    +0.000 A 
DOCKED: ATOM      9  C   UNL     1      19.241 -11.279  -0.626 -0.44 -0.00    +0.000 A 
DOCKED: ATOM     10  C   UNL     1      19.727 -10.981  -1.901 -0.32 -0.00    +0.000 A 
DOCKED: BRANCH   5  12
DOCKED: ATOM     11  C   UNL     1      21.526 -10.894  -4.383 -0.53 -0.00    +0.000 C 
DOCKED: ATOM     12  C   UNL     1      21.382  -9.951  -3.440 -0.50 -0.00    +0.000 C 
DOCKED: BRANCH  11  14
DOCKED: ATOM     13  O   UNL     1      22.100  -9.408  -6.117 -0.30 -0.00    +0.000 OA
DOCKED: ATOM     14  C   UNL     1      22.005 -10.610  -5.751 -0.44 -0.00    +0.000 C 
DOCKED: ATOM     15  N   UNL     1      22.337 -11.651  -6.680 -0.43 -0.00    +0.000 N 
DOCKED: ATOM     16  O   UNL     1      22.870 -11.340  -7.884 -0.39 -0.00    +0.000 OA
DOCKED: ATOM     17  H   UNL     1      22.176 -12.592  -6.440 -0.56 -0.00    +0.000 HD
DOCKED: ENDBRANCH  11  14
DOCKED: ENDBRANCH   5  12
DOCKED: ENDBRANCH   4   8
DOCKED: ENDBRANCH   1   4
DOCKED: BRANCH   1  18
DOCKED: ATOM     18  C   UNL     1      17.695  -9.756   2.857 -0.45 -0.00    +0.000 C 
DOCKED: BRANCH  18  19
DOCKED: ATOM     19  C   UNL     1      16.380  -9.047   2.493 -0.27 +0.00    +0.000 C 
DOCKED: BRANCH  19  20
DOCKED: ATOM     20  C   UNL     1      15.343 -10.049   2.076 -0.31 +0.00    +0.000 A 
DOCKED: ATOM     21  C   UNL     1      14.436 -10.723   2.896 -0.37 +0.00    +0.000 A 
DOCKED: ATOM     22  N   UNL     1      13.700 -11.601   2.174 -0.44 +0.00    +0.000 N 
DOCKED: ATOM     23  C   UNL     1      14.147 -11.506   0.911 -0.37 +0.00    +0.000 A 
DOCKED: ATOM     24  C   UNL     1      15.153 -10.576   0.812 -0.27 +0.00    +0.000 A 
DOCKED: ATOM     25  C   UNL     1      15.794 -10.316  -0.400 -0.26 +0.00    +0.000 A 
DOCKED: ATOM     26  C   UNL     1      15.372 -11.034  -1.534 -0.28 -0.00    +0.000 A 
DOCKED: ATOM     27  C   UNL     1      14.334 -11.986  -1.432 -0.36 +0.00    +0.000 A 
DOCKED: ATOM     28  C   UNL     1      13.710 -12.232  -0.196 -0.25 +0.00    +0.000 A 
DOCKED: ATOM     29  C   UNL     1      14.267 -10.513   4.367 -0.14 +0.00    +0.000 C 
DOCKED: ATOM     30  H   UNL     1      12.984 -12.190   2.508 -0.33 +0.00    +0.000 HD
DOCKED: ENDBRANCH  19  20
DOCKED: ENDBRANCH  18  19
DOCKED: ENDBRANCH   1  18
DOCKED: TORSDOF 7
DOCKED: TER
DOCKED: ENDMDL
________________________________________________________________________________


	BEGINNING GENETIC ALGORITHM DOCKING 47 of 100
Run: 47 Seed: 1886297894 1110020413 [ Run 47 of 100 GA/GALS ]
Beginning LAMARCKIAN GENETIC ALGORITHM (LGA), with a maximum of 2500000 energy evaluations.

Final-Value: -14.248


	FINAL GENETIC ALGORITHM DOCKED STATE
	_______________________________________________


Detailed state:  trans 20.328 -10.715 -6.767 quatxyzw 0.002018 0.867722 -0.490453 -0.080684 center 0.576 -0.005 0.140 ntor 7 -8.9185 -166.5068 -176.1553 75.6299 -156.3131 171.7188 112.7765
State:	 20.328 -10.715  -6.767   0.002  0.871 -0.492 -170.744     -8.92 -166.51 -176.16   75.63 -156.31  171.72  112.78

DOCKED: MODEL       47
DOCKED: USER    Run = 47
DOCKED: USER    DPF = ligand_dock.biased.dpf
DOCKED: USER  
DOCKED: USER    Estimated Free Energy of Binding    =  -11.10 kcal/mol  [=(1)+(2)+(3)-(4)]
DOCKED: USER    Estimated Inhibition Constant, Ki   =    7.35 nM (nanomolar)  [Temperature = 298.15 K]
DOCKED: USER    
DOCKED: USER    (1) Final Intermolecular Energy     =  -13.18 kcal/mol
DOCKED: USER        vdW + Hbond + desolv Energy     =  -13.18 kcal/mol
DOCKED: USER        Electrostatic Energy            =   +0.00 kcal/mol
DOCKED: USER    (2) Final Total Internal Energy     =   -1.06 kcal/mol
DOCKED: USER    (3) Torsional Free Energy           =   +2.09 kcal/mol
DOCKED: USER    (4) Unbound System's Energy  [=(2)] =   -1.06 kcal/mol
DOCKED: USER    
DOCKED: USER    
DOCKED: USER    NEWDPF move ligand.pdbqt
DOCKED: USER    NEWDPF about 0.576000 -0.005000 0.140000
DOCKED: USER    NEWDPF tran0 20.327683 -10.714910 -6.766993
DOCKED: USER    NEWDPF quaternion0 0.002018 0.867722 -0.490453 -0.080684
DOCKED: USER    NEWDPF axisangle0 0.002024 0.870561 -0.492057 -170.744277
DOCKED: USER    NEWDPF quat0 0.002024 0.870561 -0.492057 -170.744277
DOCKED: USER    NEWDPF dihe0 -8.92 -166.51 -176.16 75.63 -156.31 171.72 112.78 
DOCKED: USER  keepresnum = 1 
DOCKED: USER  
DOCKED: REMARK  Name = 
DOCKED: REMARK  8 active torsions:
DOCKED: REMARK  status: ('A' for Active; 'I' for Inactive)
DOCKED: REMARK    1  A    between atoms: C_2  and  C_3
DOCKED: REMARK    2  A    between atoms: C_4  and  C_5
DOCKED: REMARK    3  A    between atoms: C_8  and  C_9
DOCKED: REMARK    4  A    between atoms: C_9  and  N_10
DOCKED: REMARK    5  A    between atoms: N_10  and  C_11
DOCKED: REMARK    6  A    between atoms: C_11  and  C_12
DOCKED: REMARK    7  A    between atoms: C_12  and  C_13
DOCKED: REMARK    8  A    between atoms: C_14  and  C_22
DOCKED: REMARK                            x       y       z     vdW  Elec       q    Type
DOCKED: REMARK                         _______ _______ _______ _____ _____    ______ ____
DOCKED: USER                              x       y       z     vdW  Elec       q    Type
DOCKED: USER                           _______ _______ _______ _____ _____    ______ ____
DOCKED: ROOT
DOCKED: ATOM      1  N   UNL     1      21.080 -10.859  -6.924 -0.31 -0.00    +0.000 N 
DOCKED: ATOM      2  H   UNL     1      20.751 -11.019  -7.876 -0.11 -0.00    +0.000 HD
DOCKED: ATOM      3  H   UNL     1      21.046 -11.715  -6.369 -0.40 -0.00    +0.000 HD
DOCKED: ENDROOT
DOCKED: BRANCH   1   4
DOCKED: ATOM      4  C   UNL     1      20.202  -9.874  -6.280 -0.26 -0.00    +0.000 C 
DOCKED: BRANCH   4   8
DOCKED: ATOM      5  C   UNL     1      20.474 -10.200  -1.976 -0.49 -0.00    +0.000 A 
DOCKED: ATOM      6  C   UNL     1      20.879  -9.020  -2.632 -0.43 -0.00    +0.000 A 
DOCKED: ATOM      7  C   UNL     1      20.801  -8.922  -4.025 -0.33 -0.00    +0.000 A 
DOCKED: ATOM      8  C   UNL     1      20.322  -9.998  -4.787 -0.32 -0.00    +0.000 A 
DOCKED: ATOM      9  C   UNL     1      19.887 -11.161  -4.135 -0.44 -0.00    +0.000 A 
DOCKED: ATOM     10  C   UNL     1      19.963 -11.260  -2.743 -0.14 -0.00    +0.000 A 
DOCKED: BRANCH   5  12
DOCKED: ATOM     11  C   UNL     1      19.982 -11.389   0.159 -0.57 -0.00    +0.000 C 
DOCKED: ATOM     12  C   UNL     1      20.524 -10.353  -0.500 -0.64 -0.00    +0.000 C 
DOCKED: BRANCH  11  14
DOCKED: ATOM     13  O   UNL     1      19.627 -12.612   2.139 -1.56 -0.00    +0.000 OA
DOCKED: ATOM     14  C   UNL     1      20.033 -11.535   1.628 -0.75 -0.00    +0.000 C 
DOCKED: ATOM     15  N   UNL     1      20.502 -10.488   2.487 -0.58 -0.00    +0.000 N 
DOCKED: ATOM     16  O   UNL     1      20.628 -10.707   3.817 -1.12 -0.00    +0.000 OA
DOCKED: ATOM     17  H   UNL     1      20.731  -9.608   2.109 -0.54 -0.00    +0.000 HD
DOCKED: ENDBRANCH  11  14
DOCKED: ENDBRANCH   5  12
DOCKED: ENDBRANCH   4   8
DOCKED: ENDBRANCH   1   4
DOCKED: BRANCH   1  18
DOCKED: ATOM     18  C   UNL     1      22.480 -10.412  -6.976 -0.36 -0.00    +0.000 C 
DOCKED: BRANCH  18  19
DOCKED: ATOM     19  C   UNL     1      22.977 -10.198  -8.415 -0.23 -0.00    +0.000 C 
DOCKED: BRANCH  19  20
DOCKED: ATOM     20  C   UNL     1      23.954 -11.272  -8.797 -0.30 -0.00    +0.000 A 
DOCKED: ATOM     21  C   UNL     1      25.329 -11.292  -8.557 -0.37 -0.00    +0.000 A 
DOCKED: ATOM     22  N   UNL     1      25.895 -12.392  -9.107 -0.31 -0.00    +0.000 N 
DOCKED: ATOM     23  C   UNL     1      24.895 -13.058  -9.710 -0.32 -0.00    +0.000 A 
DOCKED: ATOM     24  C   UNL     1      23.699 -12.403  -9.549 -0.33 -0.00    +0.000 A 
DOCKED: ATOM     25  C   UNL     1      22.516 -12.890 -10.108 -0.24 -0.00    +0.000 A 
DOCKED: ATOM     26  C   UNL     1      22.581 -14.088 -10.842 -0.30 +0.00    +0.000 A 
DOCKED: ATOM     27  C   UNL     1      23.811 -14.764 -11.002 -0.38 +0.00    +0.000 A 
DOCKED: ATOM     28  C   UNL     1      24.988 -14.246 -10.433 -0.28 -0.00    +0.000 A 
DOCKED: ATOM     29  C   UNL     1      26.096 -10.261  -7.791 -0.38 -0.00    +0.000 C 
DOCKED: ATOM     30  H   UNL     1      26.845 -12.651  -9.072 -0.40 -0.00    +0.000 HD
DOCKED: ENDBRANCH  19  20
DOCKED: ENDBRANCH  18  19
DOCKED: ENDBRANCH   1  18
DOCKED: TORSDOF 7
DOCKED: TER
DOCKED: ENDMDL
________________________________________________________________________________


	BEGINNING GENETIC ALGORITHM DOCKING 48 of 100
Run: 48 Seed: 1686944273 44472525 [ Run 48 of 100 GA/GALS ]
Beginning LAMARCKIAN GENETIC ALGORITHM (LGA), with a maximum of 2500000 energy evaluations.

Final-Value: -14.112


	FINAL GENETIC ALGORITHM DOCKED STATE
	_______________________________________________


Detailed state:  trans 22.216 -7.987 -5.300 quatxyzw 0.582303 -0.450855 0.675830 0.030112 center 0.576 -0.005 0.140 ntor 7 143.7189 -138.9063 27.5077 132.9410 27.0771 -161.0144 3.5966
State:	 22.216  -7.987  -5.300   0.583 -0.451  0.676 176.549    143.72 -138.91   27.51  132.94   27.08 -161.01    3.60

DOCKED: MODEL       48
DOCKED: USER    Run = 48
DOCKED: USER    DPF = ligand_dock.biased.dpf
DOCKED: USER  
DOCKED: USER    Estimated Free Energy of Binding    =  -10.52 kcal/mol  [=(1)+(2)+(3)-(4)]
DOCKED: USER    Estimated Inhibition Constant, Ki   =   19.43 nM (nanomolar)  [Temperature = 298.15 K]
DOCKED: USER    
DOCKED: USER    (1) Final Intermolecular Energy     =  -12.61 kcal/mol
DOCKED: USER        vdW + Hbond + desolv Energy     =  -12.61 kcal/mol
DOCKED: USER        Electrostatic Energy            =   +0.00 kcal/mol
DOCKED: USER    (2) Final Total Internal Energy     =   -1.50 kcal/mol
DOCKED: USER    (3) Torsional Free Energy           =   +2.09 kcal/mol
DOCKED: USER    (4) Unbound System's Energy  [=(2)] =   -1.50 kcal/mol
DOCKED: USER    
DOCKED: USER    
DOCKED: USER    NEWDPF move ligand.pdbqt
DOCKED: USER    NEWDPF about 0.576000 -0.005000 0.140000
DOCKED: USER    NEWDPF tran0 22.216360 -7.987005 -5.300024
DOCKED: USER    NEWDPF quaternion0 0.582303 -0.450855 0.675830 0.030112
DOCKED: USER    NEWDPF axisangle0 0.582567 -0.451059 0.676137 176.548865
DOCKED: USER    NEWDPF quat0 0.582567 -0.451059 0.676137 176.548865
DOCKED: USER    NEWDPF dihe0 143.72 -138.91 27.51 132.94 27.08 -161.01 3.60 
DOCKED: USER  keepresnum = 1 
DOCKED: USER  
DOCKED: REMARK  Name = 
DOCKED: REMARK  8 active torsions:
DOCKED: REMARK  status: ('A' for Active; 'I' for Inactive)
DOCKED: REMARK    1  A    between atoms: C_2  and  C_3
DOCKED: REMARK    2  A    between atoms: C_4  and  C_5
DOCKED: REMARK    3  A    between atoms: C_8  and  C_9
DOCKED: REMARK    4  A    between atoms: C_9  and  N_10
DOCKED: REMARK    5  A    between atoms: N_10  and  C_11
DOCKED: REMARK    6  A    between atoms: C_11  and  C_12
DOCKED: REMARK    7  A    between atoms: C_12  and  C_13
DOCKED: REMARK    8  A    between atoms: C_14  and  C_22
DOCKED: REMARK                            x       y       z     vdW  Elec       q    Type
DOCKED: REMARK                         _______ _______ _______ _____ _____    ______ ____
DOCKED: USER                              x       y       z     vdW  Elec       q    Type
DOCKED: USER                           _______ _______ _______ _____ _____    ______ ____
DOCKED: ROOT
DOCKED: ATOM      1  N   UNL     1      22.634  -7.833  -5.943 -0.19 -0.00    +0.000 N 
DOCKED: ATOM      2  H   UNL     1      22.609  -8.843  -6.084 -0.02 -0.00    +0.000 HD
DOCKED: ATOM      3  H   UNL     1      23.434  -7.555  -5.374 +0.01 -0.00    +0.000 HD
DOCKED: ENDROOT
DOCKED: BRANCH   1   4
DOCKED: ATOM      4  C   UNL     1      21.415  -7.426  -5.232 -0.22 -0.00    +0.000 C 
DOCKED: BRANCH   4   8
DOCKED: ATOM      5  C   UNL     1      20.940  -9.961  -1.759 -0.54 -0.00    +0.000 A 
DOCKED: ATOM      6  C   UNL     1      20.962 -10.516  -3.054 -0.48 -0.00    +0.000 A 
DOCKED: ATOM      7  C   UNL     1      21.104  -9.693  -4.175 -0.38 -0.00    +0.000 A 
DOCKED: ATOM      8  C   UNL     1      21.223  -8.304  -4.026 -0.31 -0.00    +0.000 A 
DOCKED: ATOM      9  C   UNL     1      21.235  -7.751  -2.737 -0.39 -0.00    +0.000 A 
DOCKED: ATOM     10  C   UNL     1      21.095  -8.572  -1.616 -0.46 -0.00    +0.000 A 
DOCKED: BRANCH   5  12
DOCKED: ATOM     11  C   UNL     1      20.430 -10.299   0.657 -0.65 -0.00    +0.000 C 
DOCKED: ATOM     12  C   UNL     1      20.805 -10.789  -0.535 -0.61 -0.00    +0.000 C 
DOCKED: BRANCH  11  14
DOCKED: ATOM     13  O   UNL     1      20.178 -12.374   1.739 -1.80 -0.00    +0.000 OA
DOCKED: ATOM     14  C   UNL     1      20.298 -11.127   1.872 -0.75 -0.00    +0.000 C 
DOCKED: ATOM     15  N   UNL     1      20.276 -10.561   3.189 -0.69 -0.00    +0.000 N 
DOCKED: ATOM     16  O   UNL     1      20.260 -11.368   4.275 -1.07 -0.00    +0.000 OA
DOCKED: ATOM     17  H   UNL     1      20.273  -9.583   3.302 -0.57 -0.00    +0.000 HD
DOCKED: ENDBRANCH  11  14
DOCKED: ENDBRANCH   5  12
DOCKED: ENDBRANCH   4   8
DOCKED: ENDBRANCH   1   4
DOCKED: BRANCH   1  18
DOCKED: ATOM     18  C   UNL     1      22.763  -7.176  -7.252 -0.12 -0.00    +0.000 C 
DOCKED: BRANCH  18  19
DOCKED: ATOM     19  C   UNL     1      22.062  -7.956  -8.375 -0.07 -0.00    +0.000 C 
DOCKED: BRANCH  19  20
DOCKED: ATOM     20  C   UNL     1      22.499  -9.393  -8.367 -0.13 -0.00    +0.000 A 
DOCKED: ATOM     21  C   UNL     1      21.704 -10.521  -8.158 -0.24 -0.00    +0.000 A 
DOCKED: ATOM     22  N   UNL     1      22.459 -11.645  -8.155 -0.34 -0.00    +0.000 N 
DOCKED: ATOM     23  C   UNL     1      23.726 -11.237  -8.338 -0.34 -0.00    +0.000 A 
DOCKED: ATOM     24  C   UNL     1      23.792  -9.871  -8.465 -0.19 -0.00    +0.000 A 
DOCKED: ATOM     25  C   UNL     1      25.009  -9.210  -8.640 -0.16 -0.00    +0.000 A 
DOCKED: ATOM     26  C   UNL     1      26.178  -9.988  -8.693 -0.27 -0.00    +0.000 A 
DOCKED: ATOM     27  C   UNL     1      26.109 -11.394  -8.568 -0.31 -0.00    +0.000 A 
DOCKED: ATOM     28  C   UNL     1      24.870 -12.033  -8.385 -0.43 -0.00    +0.000 A 
DOCKED: ATOM     29  C   UNL     1      20.220 -10.520  -7.975 -0.27 -0.00    +0.000 C 
DOCKED: ATOM     30  H   UNL     1      22.143 -12.571  -8.041 -0.62 -0.00    +0.000 HD
DOCKED: ENDBRANCH  19  20
DOCKED: ENDBRANCH  18  19
DOCKED: ENDBRANCH   1  18
DOCKED: TORSDOF 7
DOCKED: TER
DOCKED: ENDMDL
________________________________________________________________________________


	BEGINNING GENETIC ALGORITHM DOCKING 49 of 100
Run: 49 Seed: 1628229072 1647558475 [ Run 49 of 100 GA/GALS ]
Beginning LAMARCKIAN GENETIC ALGORITHM (LGA), with a maximum of 2500000 energy evaluations.

Final-Value: -13.019


	FINAL GENETIC ALGORITHM DOCKED STATE
	_______________________________________________


Detailed state:  trans 22.684 -8.442 -5.679 quatxyzw 0.525261 -0.060399 0.835319 0.150648 center 0.576 -0.005 0.140 ntor 7 -177.2937 -19.2315 164.7954 -82.7332 169.4708 -180.0000 -9.6345
State:	 22.684  -8.442  -5.679   0.531 -0.061  0.845 162.671   -177.29  -19.23  164.80  -82.73  169.47 -180.00   -9.63

DOCKED: MODEL       49
DOCKED: USER    Run = 49
DOCKED: USER    DPF = ligand_dock.biased.dpf
DOCKED: USER  
DOCKED: USER    Estimated Free Energy of Binding    =   -9.54 kcal/mol  [=(1)+(2)+(3)-(4)]
DOCKED: USER    Estimated Inhibition Constant, Ki   =  101.67 nM (nanomolar)  [Temperature = 298.15 K]
DOCKED: USER    
DOCKED: USER    (1) Final Intermolecular Energy     =  -11.63 kcal/mol
DOCKED: USER        vdW + Hbond + desolv Energy     =  -11.63 kcal/mol
DOCKED: USER        Electrostatic Energy            =   +0.00 kcal/mol
DOCKED: USER    (2) Final Total Internal Energy     =   -1.39 kcal/mol
DOCKED: USER    (3) Torsional Free Energy           =   +2.09 kcal/mol
DOCKED: USER    (4) Unbound System's Energy  [=(2)] =   -1.39 kcal/mol
DOCKED: USER    
DOCKED: USER    
DOCKED: USER    NEWDPF move ligand.pdbqt
DOCKED: USER    NEWDPF about 0.576000 -0.005000 0.140000
DOCKED: USER    NEWDPF tran0 22.683988 -8.441825 -5.678734
DOCKED: USER    NEWDPF quaternion0 0.525261 -0.060399 0.835319 0.150648
DOCKED: USER    NEWDPF axisangle0 0.531325 -0.061096 0.844962 162.671070
DOCKED: USER    NEWDPF quat0 0.531325 -0.061096 0.844962 162.671070
DOCKED: USER    NEWDPF dihe0 -177.29 -19.23 164.80 -82.73 169.47 -180.00 -9.63 
DOCKED: USER  keepresnum = 1 
DOCKED: USER  
DOCKED: REMARK  Name = 
DOCKED: REMARK  8 active torsions:
DOCKED: REMARK  status: ('A' for Active; 'I' for Inactive)
DOCKED: REMARK    1  A    between atoms: C_2  and  C_3
DOCKED: REMARK    2  A    between atoms: C_4  and  C_5
DOCKED: REMARK    3  A    between atoms: C_8  and  C_9
DOCKED: REMARK    4  A    between atoms: C_9  and  N_10
DOCKED: REMARK    5  A    between atoms: N_10  and  C_11
DOCKED: REMARK    6  A    between atoms: C_11  and  C_12
DOCKED: REMARK    7  A    between atoms: C_12  and  C_13
DOCKED: REMARK    8  A    between atoms: C_14  and  C_22
DOCKED: REMARK                            x       y       z     vdW  Elec       q    Type
DOCKED: REMARK                         _______ _______ _______ _____ _____    ______ ____
DOCKED: USER                              x       y       z     vdW  Elec       q    Type
DOCKED: USER                           _______ _______ _______ _____ _____    ______ ____
DOCKED: ROOT
DOCKED: ATOM      1  N   UNL     1      23.266  -8.315  -6.184 -0.13 -0.00    +0.000 N 
DOCKED: ATOM      2  H   UNL     1      23.720  -9.095  -5.708 +0.01 -0.00    +0.000 HD
DOCKED: ATOM      3  H   UNL     1      23.483  -7.425  -5.735 -0.02 -0.00    +0.000 HD
DOCKED: ENDROOT
DOCKED: BRANCH   1   4
DOCKED: ATOM      4  C   UNL     1      21.812  -8.507  -6.122 -0.23 -0.00    +0.000 C 
DOCKED: BRANCH   4   8
DOCKED: ATOM      5  C   UNL     1      20.677 -10.238  -2.324 -0.49 -0.00    +0.000 A 
DOCKED: ATOM      6  C   UNL     1      20.896  -8.851  -2.442 -0.43 -0.00    +0.000 A 
DOCKED: ATOM      7  C   UNL     1      21.274  -8.296  -3.669 -0.34 -0.00    +0.000 A 
DOCKED: ATOM      8  C   UNL     1      21.444  -9.113  -4.796 -0.30 -0.00    +0.000 A 
DOCKED: ATOM      9  C   UNL     1      21.194 -10.489  -4.690 -0.43 -0.00    +0.000 A 
DOCKED: ATOM     10  C   UNL     1      20.815 -11.044  -3.466 -0.28 -0.00    +0.000 A 
DOCKED: BRANCH   5  12
DOCKED: ATOM     11  C   UNL     1      20.776 -10.554   0.146 -0.69 -0.00    +0.000 C 
DOCKED: ATOM     12  C   UNL     1      20.262 -10.877  -1.051 -0.51 -0.00    +0.000 C 
DOCKED: BRANCH  11  14
DOCKED: ATOM     13  O   UNL     1      19.780 -12.312   1.354 -1.59 -0.00    +0.000 OA
DOCKED: ATOM     14  C   UNL     1      20.361 -11.196   1.410 -0.74 -0.00    +0.000 C 
DOCKED: ATOM     15  N   UNL     1      20.571 -10.581   2.688 -0.63 -0.00    +0.000 N 
DOCKED: ATOM     16  O   UNL     1      20.268 -11.255   3.822 -1.25 -0.00    +0.000 OA
DOCKED: ATOM     17  H   UNL     1      20.936  -9.669   2.740 -0.59 -0.00    +0.000 HD
DOCKED: ENDBRANCH  11  14
DOCKED: ENDBRANCH   5  12
DOCKED: ENDBRANCH   4   8
DOCKED: ENDBRANCH   1   4
DOCKED: BRANCH   1  18
DOCKED: ATOM     18  C   UNL     1      23.763  -8.252  -7.567 -0.18 -0.00    +0.000 C 
DOCKED: BRANCH  18  19
DOCKED: ATOM     19  C   UNL     1      24.526  -9.523  -7.978 -0.26 -0.00    +0.000 C 
DOCKED: BRANCH  19  20
DOCKED: ATOM     20  C   UNL     1      23.597 -10.499  -8.641 -0.22 -0.00    +0.000 A 
DOCKED: ATOM     21  C   UNL     1      23.069 -11.671  -8.096 -0.38 -0.00    +0.000 A 
DOCKED: ATOM     22  N   UNL     1      22.325 -12.332  -9.013 -0.28 -0.00    +0.000 N 
DOCKED: ATOM     23  C   UNL     1      22.394 -11.601 -10.139 -0.21 -0.00    +0.000 A 
DOCKED: ATOM     24  C   UNL     1      23.166 -10.481  -9.954 -0.12 -0.00    +0.000 A 
DOCKED: ATOM     25  C   UNL     1      23.406  -9.577 -10.989 -0.04 -0.00    +0.000 A 
DOCKED: ATOM     26  C   UNL     1      22.822  -9.841 -12.241 -0.03 -0.00    +0.000 A 
DOCKED: ATOM     27  C   UNL     1      22.023 -10.991 -12.429 -0.08 -0.00    +0.000 A 
DOCKED: ATOM     28  C   UNL     1      21.804 -11.889 -11.369 -0.10 -0.00    +0.000 A 
DOCKED: ATOM     29  C   UNL     1      23.269 -12.148  -6.693 -0.52 -0.00    +0.000 C 
DOCKED: ATOM     30  H   UNL     1      21.833 -13.175  -8.882 -0.57 -0.00    +0.000 HD
DOCKED: ENDBRANCH  19  20
DOCKED: ENDBRANCH  18  19
DOCKED: ENDBRANCH   1  18
DOCKED: TORSDOF 7
DOCKED: TER
DOCKED: ENDMDL
________________________________________________________________________________


	BEGINNING GENETIC ALGORITHM DOCKING 50 of 100
Run: 50 Seed: 194285895 1305779016 [ Run 50 of 100 GA/GALS ]
Beginning LAMARCKIAN GENETIC ALGORITHM (LGA), with a maximum of 2500000 energy evaluations.

Final-Value: -13.549


	FINAL GENETIC ALGORITHM DOCKED STATE
	_______________________________________________


Detailed state:  trans 22.554 -8.424 -5.594 quatxyzw -0.540461 0.136598 -0.825047 -0.092415 center 0.576 -0.005 0.140 ntor 7 -136.2690 -58.9552 99.6679 -75.0466 -176.7148 120.3095 -5.9784
State:	 22.554  -8.424  -5.594  -0.543  0.137 -0.829 -169.395   -136.27  -58.96   99.67  -75.05 -176.71  120.31   -5.98

DOCKED: MODEL       50
DOCKED: USER    Run = 50
DOCKED: USER    DPF = ligand_dock.biased.dpf
DOCKED: USER  
DOCKED: USER    Estimated Free Energy of Binding    =  -10.63 kcal/mol  [=(1)+(2)+(3)-(4)]
DOCKED: USER    Estimated Inhibition Constant, Ki   =   16.10 nM (nanomolar)  [Temperature = 298.15 K]
DOCKED: USER    
DOCKED: USER    (1) Final Intermolecular Energy     =  -12.72 kcal/mol
DOCKED: USER        vdW + Hbond + desolv Energy     =  -12.72 kcal/mol
DOCKED: USER        Electrostatic Energy            =   +0.00 kcal/mol
DOCKED: USER    (2) Final Total Internal Energy     =   -0.83 kcal/mol
DOCKED: USER    (3) Torsional Free Energy           =   +2.09 kcal/mol
DOCKED: USER    (4) Unbound System's Energy  [=(2)] =   -0.83 kcal/mol
DOCKED: USER    
DOCKED: USER    
DOCKED: USER    NEWDPF move ligand.pdbqt
DOCKED: USER    NEWDPF about 0.576000 -0.005000 0.140000
DOCKED: USER    NEWDPF tran0 22.554228 -8.424351 -5.594484
DOCKED: USER    NEWDPF quaternion0 -0.540461 0.136598 -0.825047 -0.092415
DOCKED: USER    NEWDPF axisangle0 -0.542784 0.137185 -0.828593 -169.394915
DOCKED: USER    NEWDPF quat0 -0.542784 0.137185 -0.828593 -169.394915
DOCKED: USER    NEWDPF dihe0 -136.27 -58.96 99.67 -75.05 -176.71 120.31 -5.98 
DOCKED: USER  keepresnum = 1 
DOCKED: USER  
DOCKED: REMARK  Name = 
DOCKED: REMARK  8 active torsions:
DOCKED: REMARK  status: ('A' for Active; 'I' for Inactive)
DOCKED: REMARK    1  A    between atoms: C_2  and  C_3
DOCKED: REMARK    2  A    between atoms: C_4  and  C_5
DOCKED: REMARK    3  A    between atoms: C_8  and  C_9
DOCKED: REMARK    4  A    between atoms: C_9  and  N_10
DOCKED: REMARK    5  A    between atoms: N_10  and  C_11
DOCKED: REMARK    6  A    between atoms: C_11  and  C_12
DOCKED: REMARK    7  A    between atoms: C_12  and  C_13
DOCKED: REMARK    8  A    between atoms: C_14  and  C_22
DOCKED: REMARK                            x       y       z     vdW  Elec       q    Type
DOCKED: REMARK                         _______ _______ _______ _____ _____    ______ ____
DOCKED: USER                              x       y       z     vdW  Elec       q    Type
DOCKED: USER                           _______ _______ _______ _____ _____    ______ ____
DOCKED: ROOT
DOCKED: ATOM      1  N   UNL     1      23.118  -8.364  -6.132 -0.15 -0.00    +0.000 N 
DOCKED: ATOM      2  H   UNL     1      23.458  -9.240  -5.735 -0.02 -0.00    +0.000 HD
DOCKED: ATOM      3  H   UNL     1      23.512  -7.557  -5.649 -0.01 -0.00    +0.000 HD
DOCKED: ENDROOT
DOCKED: BRANCH   1   4
DOCKED: ATOM      4  C   UNL     1      21.659  -8.310  -5.977 -0.22 -0.00    +0.000 C 
DOCKED: BRANCH   4   8
DOCKED: ATOM      5  C   UNL     1      20.490  -9.862  -2.113 -0.47 -0.00    +0.000 A 
DOCKED: ATOM      6  C   UNL     1      20.649  -8.475  -2.310 -0.32 -0.00    +0.000 A 
DOCKED: ATOM      7  C   UNL     1      21.039  -7.978  -3.557 -0.34 -0.00    +0.000 A 
DOCKED: ATOM      8  C   UNL     1      21.279  -8.852  -4.627 -0.30 -0.00    +0.000 A 
DOCKED: ATOM      9  C   UNL     1      21.089 -10.229  -4.444 -0.41 -0.00    +0.000 A 
DOCKED: ATOM     10  C   UNL     1      20.699 -10.728  -3.199 -0.43 -0.00    +0.000 A 
DOCKED: BRANCH   5  12
DOCKED: ATOM     11  C   UNL     1      20.905 -10.663   0.211 -0.70 -0.00    +0.000 C 
DOCKED: ATOM     12  C   UNL     1      20.067 -10.443  -0.814 -0.57 -0.00    +0.000 C 
DOCKED: BRANCH  11  14
DOCKED: ATOM     13  O   UNL     1      19.972 -12.397   1.501 -1.70 -0.00    +0.000 OA
DOCKED: ATOM     14  C   UNL     1      20.478 -11.243   1.500 -0.75 -0.00    +0.000 C 
DOCKED: ATOM     15  N   UNL     1      20.595 -10.531   2.738 -0.62 -0.00    +0.000 N 
DOCKED: ATOM     16  O   UNL     1      20.288 -11.144   3.905 -1.20 -0.00    +0.000 OA
DOCKED: ATOM     17  H   UNL     1      20.899  -9.595   2.739 -0.58 -0.00    +0.000 HD
DOCKED: ENDBRANCH  11  14
DOCKED: ENDBRANCH   5  12
DOCKED: ENDBRANCH   4   8
DOCKED: ENDBRANCH   1   4
DOCKED: BRANCH   1  18
DOCKED: ATOM     18  C   UNL     1      23.534  -8.292  -7.541 -0.18 -0.00    +0.000 C 
DOCKED: BRANCH  18  19
DOCKED: ATOM     19  C   UNL     1      25.010  -8.673  -7.740 -0.24 -0.00    +0.000 C 
DOCKED: BRANCH  19  20
DOCKED: ATOM     20  C   UNL     1      25.124 -10.085  -8.239 -0.28 -0.00    +0.000 A 
DOCKED: ATOM     21  C   UNL     1      26.283 -10.853  -8.353 -0.37 -0.00    +0.000 A 
DOCKED: ATOM     22  N   UNL     1      26.007 -12.058  -8.907 -0.35 -0.00    +0.000 N 
DOCKED: ATOM     23  C   UNL     1      24.688 -12.050  -9.164 -0.36 -0.00    +0.000 A 
DOCKED: ATOM     24  C   UNL     1      24.116 -10.863  -8.777 -0.26 -0.00    +0.000 A 
DOCKED: ATOM     25  C   UNL     1      22.757 -10.609  -8.965 -0.20 -0.00    +0.000 A 
DOCKED: ATOM     26  C   UNL     1      21.976 -11.617  -9.559 -0.17 -0.00    +0.000 A 
DOCKED: ATOM     27  C   UNL     1      22.564 -12.840  -9.951 -0.25 -0.00    +0.000 A 
DOCKED: ATOM     28  C   UNL     1      23.938 -13.066  -9.756 -0.36 -0.00    +0.000 A 
DOCKED: ATOM     29  C   UNL     1      27.652 -10.436  -7.919 -0.45 -0.00    +0.000 C 
DOCKED: ATOM     30  H   UNL     1      26.642 -12.789  -9.085 -0.48 -0.00    +0.000 HD
DOCKED: ENDBRANCH  19  20
DOCKED: ENDBRANCH  18  19
DOCKED: ENDBRANCH   1  18
DOCKED: TORSDOF 7
DOCKED: TER
DOCKED: ENDMDL
________________________________________________________________________________


	BEGINNING GENETIC ALGORITHM DOCKING 51 of 100
Run: 51 Seed: 391113083 1715630473 [ Run 51 of 100 GA/GALS ]
Beginning LAMARCKIAN GENETIC ALGORITHM (LGA), with a maximum of 2500000 energy evaluations.

Final-Value: -12.699


	FINAL GENETIC ALGORITHM DOCKED STATE
	_______________________________________________


Detailed state:  trans 17.778 -11.001 1.266 quatxyzw 0.698319 -0.408080 -0.586746 0.039368 center 0.576 -0.005 0.140 ntor 7 138.3663 163.6383 167.8211 118.6948 -171.5567 -172.8062 55.8214
State:	 17.778 -11.001   1.266   0.699 -0.408 -0.587 175.488    138.37  163.64  167.82  118.69 -171.56 -172.81   55.82

DOCKED: MODEL       51
DOCKED: USER    Run = 51
DOCKED: USER    DPF = ligand_dock.biased.dpf
DOCKED: USER  
DOCKED: USER    Estimated Free Energy of Binding    =   -9.45 kcal/mol  [=(1)+(2)+(3)-(4)]
DOCKED: USER    Estimated Inhibition Constant, Ki   =  118.12 nM (nanomolar)  [Temperature = 298.15 K]
DOCKED: USER    
DOCKED: USER    (1) Final Intermolecular Energy     =  -11.54 kcal/mol
DOCKED: USER        vdW + Hbond + desolv Energy     =  -11.54 kcal/mol
DOCKED: USER        Electrostatic Energy            =   +0.00 kcal/mol
DOCKED: USER    (2) Final Total Internal Energy     =   -1.16 kcal/mol
DOCKED: USER    (3) Torsional Free Energy           =   +2.09 kcal/mol
DOCKED: USER    (4) Unbound System's Energy  [=(2)] =   -1.16 kcal/mol
DOCKED: USER    
DOCKED: USER    
DOCKED: USER    NEWDPF move ligand.pdbqt
DOCKED: USER    NEWDPF about 0.576000 -0.005000 0.140000
DOCKED: USER    NEWDPF tran0 17.777909 -11.000929 1.266231
DOCKED: USER    NEWDPF quaternion0 0.698319 -0.408080 -0.586746 0.039368
DOCKED: USER    NEWDPF axisangle0 0.698861 -0.408397 -0.587202 175.487579
DOCKED: USER    NEWDPF quat0 0.698861 -0.408397 -0.587202 175.487579
DOCKED: USER    NEWDPF dihe0 138.37 163.64 167.82 118.69 -171.56 -172.81 55.82 
DOCKED: USER  keepresnum = 1 
DOCKED: USER  
DOCKED: REMARK  Name = 
DOCKED: REMARK  8 active torsions:
DOCKED: REMARK  status: ('A' for Active; 'I' for Inactive)
DOCKED: REMARK    1  A    between atoms: C_2  and  C_3
DOCKED: REMARK    2  A    between atoms: C_4  and  C_5
DOCKED: REMARK    3  A    between atoms: C_8  and  C_9
DOCKED: REMARK    4  A    between atoms: C_9  and  N_10
DOCKED: REMARK    5  A    between atoms: N_10  and  C_11
DOCKED: REMARK    6  A    between atoms: C_11  and  C_12
DOCKED: REMARK    7  A    between atoms: C_12  and  C_13
DOCKED: REMARK    8  A    between atoms: C_14  and  C_22
DOCKED: REMARK                            x       y       z     vdW  Elec       q    Type
DOCKED: REMARK                         _______ _______ _______ _____ _____    ______ ____
DOCKED: USER                              x       y       z     vdW  Elec       q    Type
DOCKED: USER                           _______ _______ _______ _____ _____    ______ ____
DOCKED: ROOT
DOCKED: ATOM      1  N   UNL     1      17.478 -10.547   1.827 -0.42 +0.00    +0.000 N 
DOCKED: ATOM      2  H   UNL     1      16.586 -10.953   1.545 +0.00 +0.00    +0.000 HD
DOCKED: ATOM      3  H   UNL     1      17.695  -9.710   1.285 -0.01 -0.00    +0.000 HD
DOCKED: ENDROOT
DOCKED: BRANCH   1   4
DOCKED: ATOM      4  C   UNL     1      18.542 -11.527   1.581 -0.58 -0.00    +0.000 C 
DOCKED: BRANCH   4   8
DOCKED: ATOM      5  C   UNL     1      20.692 -10.550  -2.043 -0.47 -0.00    +0.000 A 
DOCKED: ATOM      6  C   UNL     1      21.236 -10.237  -0.781 -0.61 -0.00    +0.000 A 
DOCKED: ATOM      7  C   UNL     1      20.533 -10.544   0.389 -0.60 -0.00    +0.000 A 
DOCKED: ATOM      8  C   UNL     1      19.276 -11.163   0.321 -0.51 -0.00    +0.000 A 
DOCKED: ATOM      9  C   UNL     1      18.747 -11.506  -0.932 -0.40 -0.00    +0.000 A 
DOCKED: ATOM     10  C   UNL     1      19.448 -11.202  -2.101 -0.27 -0.00    +0.000 A 
DOCKED: BRANCH   5  12
DOCKED: ATOM     11  C   UNL     1      21.398 -11.084  -4.373 -0.50 -0.00    +0.000 C 
DOCKED: ATOM     12  C   UNL     1      21.399 -10.259  -3.314 -0.53 -0.00    +0.000 C 
DOCKED: BRANCH  11  14
DOCKED: ATOM     13  O   UNL     1      22.331  -9.585  -5.931 -0.34 -0.00    +0.000 OA
DOCKED: ATOM     14  C   UNL     1      22.107 -10.789  -5.635 -0.44 -0.00    +0.000 C 
DOCKED: ATOM     15  N   UNL     1      22.520 -11.819  -6.541 -0.50 -0.00    +0.000 N 
DOCKED: ATOM     16  O   UNL     1      23.257 -11.507  -7.632 -0.48 -0.00    +0.000 OA
DOCKED: ATOM     17  H   UNL     1      22.267 -12.755  -6.370 -0.55 -0.00    +0.000 HD
DOCKED: ENDBRANCH  11  14
DOCKED: ENDBRANCH   5  12
DOCKED: ENDBRANCH   4   8
DOCKED: ENDBRANCH   1   4
DOCKED: BRANCH   1  18
DOCKED: ATOM     18  C   UNL     1      17.393 -10.155   3.242 -0.34 +0.00    +0.000 C 
DOCKED: BRANCH  18  19
DOCKED: ATOM     19  C   UNL     1      16.271 -10.892   3.991 -0.50 +0.00    +0.000 C 
DOCKED: BRANCH  19  20
DOCKED: ATOM     20  C   UNL     1      14.929 -10.489   3.451 -0.42 +0.00    +0.000 A 
DOCKED: ATOM     21  C   UNL     1      14.022  -9.591   4.016 -0.33 +0.00    +0.000 A 
DOCKED: ATOM     22  N   UNL     1      12.887  -9.531   3.281 -0.24 +0.00    +0.000 N 
DOCKED: ATOM     23  C   UNL     1      13.058 -10.398   2.269 -0.25 +0.00    +0.000 A 
DOCKED: ATOM     24  C   UNL     1      14.287 -11.007   2.342 -0.38 +0.00    +0.000 A 
DOCKED: ATOM     25  C   UNL     1      14.685 -11.967   1.411 -0.43 +0.00    +0.000 A 
DOCKED: ATOM     26  C   UNL     1      13.789 -12.293   0.378 -0.34 +0.00    +0.000 A 
DOCKED: ATOM     27  C   UNL     1      12.527 -11.663   0.300 -0.34 +0.00    +0.000 A 
DOCKED: ATOM     28  C   UNL     1      12.149 -10.703   1.256 -0.29 +0.00    +0.000 A 
DOCKED: ATOM     29  C   UNL     1      14.251  -8.782   5.253 -0.46 +0.00    +0.000 C 
DOCKED: ATOM     30  H   UNL     1      12.098  -8.968   3.453 -0.00 +0.00    +0.000 HD
DOCKED: ENDBRANCH  19  20
DOCKED: ENDBRANCH  18  19
DOCKED: ENDBRANCH   1  18
DOCKED: TORSDOF 7
DOCKED: TER
DOCKED: ENDMDL
________________________________________________________________________________


	BEGINNING GENETIC ALGORITHM DOCKING 52 of 100
Run: 52 Seed: 1864216669 1296850804 [ Run 52 of 100 GA/GALS ]
Beginning LAMARCKIAN GENETIC ALGORITHM (LGA), with a maximum of 2500000 energy evaluations.

Final-Value: -13.070


	FINAL GENETIC ALGORITHM DOCKED STATE
	_______________________________________________


Detailed state:  trans 21.068 -10.693 -7.478 quatxyzw 0.749387 -0.218245 0.135087 -0.610361 center 0.576 -0.005 0.140 ntor 7 -166.5013 173.8309 45.4503 66.2563 -71.4522 -113.1802 -69.2872
State:	 21.068 -10.693  -7.478   0.946 -0.276  0.171 -104.769   -166.50  173.83   45.45   66.26  -71.45 -113.18  -69.29

DOCKED: MODEL       52
DOCKED: USER    Run = 52
DOCKED: USER    DPF = ligand_dock.biased.dpf
DOCKED: USER  
DOCKED: USER    Estimated Free Energy of Binding    =   -9.40 kcal/mol  [=(1)+(2)+(3)-(4)]
DOCKED: USER    Estimated Inhibition Constant, Ki   =  129.61 nM (nanomolar)  [Temperature = 298.15 K]
DOCKED: USER    
DOCKED: USER    (1) Final Intermolecular Energy     =  -11.48 kcal/mol
DOCKED: USER        vdW + Hbond + desolv Energy     =  -11.48 kcal/mol
DOCKED: USER        Electrostatic Energy            =   +0.00 kcal/mol
DOCKED: USER    (2) Final Total Internal Energy     =   -1.59 kcal/mol
DOCKED: USER    (3) Torsional Free Energy           =   +2.09 kcal/mol
DOCKED: USER    (4) Unbound System's Energy  [=(2)] =   -1.59 kcal/mol
DOCKED: USER    
DOCKED: USER    
DOCKED: USER    NEWDPF move ligand.pdbqt
DOCKED: USER    NEWDPF about 0.576000 -0.005000 0.140000
DOCKED: USER    NEWDPF tran0 21.067632 -10.693193 -7.477514
DOCKED: USER    NEWDPF quaternion0 0.749387 -0.218245 0.135087 -0.610361
DOCKED: USER    NEWDPF axisangle0 0.946048 -0.275519 0.170538 -104.768845
DOCKED: USER    NEWDPF quat0 0.946048 -0.275519 0.170538 -104.768845
DOCKED: USER    NEWDPF dihe0 -166.50 173.83 45.45 66.26 -71.45 -113.18 -69.29 
DOCKED: USER  keepresnum = 1 
DOCKED: USER  
DOCKED: REMARK  Name = 
DOCKED: REMARK  8 active torsions:
DOCKED: REMARK  status: ('A' for Active; 'I' for Inactive)
DOCKED: REMARK    1  A    between atoms: C_2  and  C_3
DOCKED: REMARK    2  A    between atoms: C_4  and  C_5
DOCKED: REMARK    3  A    between atoms: C_8  and  C_9
DOCKED: REMARK    4  A    between atoms: C_9  and  N_10
DOCKED: REMARK    5  A    between atoms: N_10  and  C_11
DOCKED: REMARK    6  A    between atoms: C_11  and  C_12
DOCKED: REMARK    7  A    between atoms: C_12  and  C_13
DOCKED: REMARK    8  A    between atoms: C_14  and  C_22
DOCKED: REMARK                            x       y       z     vdW  Elec       q    Type
DOCKED: REMARK                         _______ _______ _______ _____ _____    ______ ____
DOCKED: USER                              x       y       z     vdW  Elec       q    Type
DOCKED: USER                           _______ _______ _______ _____ _____    ______ ____
DOCKED: ROOT
DOCKED: ATOM      1  N   UNL     1      20.373 -10.895  -7.773 -0.27 -0.00    +0.000 N 
DOCKED: ATOM      2  H   UNL     1      20.402 -11.641  -7.078 -0.28 -0.00    +0.000 HD
DOCKED: ATOM      3  H   UNL     1      20.813 -11.183  -8.648 -0.10 -0.00    +0.000 HD
DOCKED: ENDROOT
DOCKED: BRANCH   1   4
DOCKED: ATOM      4  C   UNL     1      21.117  -9.739  -7.257 -0.23 -0.00    +0.000 C 
DOCKED: BRANCH   4   8
DOCKED: ATOM      5  C   UNL     1      21.181  -9.914  -2.936 -0.47 -0.00    +0.000 A 
DOCKED: ATOM      6  C   UNL     1      21.387  -8.692  -3.607 -0.36 -0.00    +0.000 A 
DOCKED: ATOM      7  C   UNL     1      21.377  -8.641  -5.004 -0.26 -0.00    +0.000 A 
DOCKED: ATOM      8  C   UNL     1      21.166  -9.806  -5.756 -0.28 -0.00    +0.000 A 
DOCKED: ATOM      9  C   UNL     1      20.927 -11.017  -5.092 -0.45 -0.00    +0.000 A 
DOCKED: ATOM     10  C   UNL     1      20.935 -11.070  -3.696 -0.30 -0.00    +0.000 A 
DOCKED: BRANCH   5  12
DOCKED: ATOM     11  C   UNL     1      20.466 -10.947  -0.784 -0.49 -0.00    +0.000 C 
DOCKED: ATOM     12  C   UNL     1      21.169 -10.023  -1.456 -0.63 -0.00    +0.000 C 
DOCKED: BRANCH  11  14
DOCKED: ATOM     13  O   UNL     1      20.613  -9.998   1.366 -0.57 -0.00    +0.000 OA
DOCKED: ATOM     14  C   UNL     1      20.456 -11.049   0.690 -0.70 -0.00    +0.000 C 
DOCKED: ATOM     15  N   UNL     1      20.302 -12.301   1.371 -0.69 -0.00    +0.000 N 
DOCKED: ATOM     16  O   UNL     1      20.194 -12.330   2.720 -1.82 -0.00    +0.000 OA
DOCKED: ATOM     17  H   UNL     1      20.274 -13.140   0.857 -0.54 -0.00    +0.000 HD
DOCKED: ENDBRANCH  11  14
DOCKED: ENDBRANCH   5  12
DOCKED: ENDBRANCH   4   8
DOCKED: ENDBRANCH   1   4
DOCKED: BRANCH   1  18
DOCKED: ATOM     18  C   UNL     1      18.968 -10.573  -8.063 -0.24 -0.00    +0.000 C 
DOCKED: BRANCH  18  19
DOCKED: ATOM     19  C   UNL     1      18.343  -9.655  -7.000 -0.19 -0.00    +0.000 C 
DOCKED: BRANCH  19  20
DOCKED: ATOM     20  C   UNL     1      17.194 -10.346  -6.322 -0.22 -0.00    +0.000 A 
DOCKED: ATOM     21  C   UNL     1      16.910 -10.377  -4.956 -0.22 -0.00    +0.000 A 
DOCKED: ATOM     22  N   UNL     1      15.830 -11.156  -4.709 -0.20 -0.00    +0.000 N 
DOCKED: ATOM     23  C   UNL     1      15.442 -11.635  -5.903 -0.27 -0.00    +0.000 A 
DOCKED: ATOM     24  C   UNL     1      16.252 -11.170  -6.909 -0.28 -0.00    +0.000 A 
DOCKED: ATOM     25  C   UNL     1      16.061 -11.549  -8.238 -0.24 -0.00    +0.000 A 
DOCKED: ATOM     26  C   UNL     1      14.998 -12.424  -8.526 -0.30 -0.00    +0.000 A 
DOCKED: ATOM     27  C   UNL     1      14.162 -12.898  -7.491 -0.35 -0.00    +0.000 A 
DOCKED: ATOM     28  C   UNL     1      14.382 -12.504  -6.159 -0.26 -0.00    +0.000 A 
DOCKED: ATOM     29  C   UNL     1      17.667  -9.649  -3.891 -0.26 -0.00    +0.000 C 
DOCKED: ATOM     30  H   UNL     1      15.416 -11.335  -3.834 -0.02 -0.00    +0.000 HD
DOCKED: ENDBRANCH  19  20
DOCKED: ENDBRANCH  18  19
DOCKED: ENDBRANCH   1  18
DOCKED: TORSDOF 7
DOCKED: TER
DOCKED: ENDMDL
________________________________________________________________________________


	BEGINNING GENETIC ALGORITHM DOCKING 53 of 100
Run: 53 Seed: 1160369518 1323574983 [ Run 53 of 100 GA/GALS ]
Beginning LAMARCKIAN GENETIC ALGORITHM (LGA), with a maximum of 2500000 energy evaluations.

Final-Value: -14.372


	FINAL GENETIC ALGORITHM DOCKED STATE
	_______________________________________________


Detailed state:  trans 22.757 -8.086 -5.429 quatxyzw 0.590544 -0.369683 0.688387 -0.201782 center 0.576 -0.005 0.140 ntor 7 -56.7579 -148.9182 172.5485 -168.7243 -120.9114 -179.8986 -12.0603
State:	 22.757  -8.086  -5.429   0.603 -0.377  0.703 -156.718    -56.76 -148.92  172.55 -168.72 -120.91 -179.90  -12.06

DOCKED: MODEL       53
DOCKED: USER    Run = 53
DOCKED: USER    DPF = ligand_dock.biased.dpf
DOCKED: USER  
DOCKED: USER    Estimated Free Energy of Binding    =  -10.21 kcal/mol  [=(1)+(2)+(3)-(4)]
DOCKED: USER    Estimated Inhibition Constant, Ki   =   32.79 nM (nanomolar)  [Temperature = 298.15 K]
DOCKED: USER    
DOCKED: USER    (1) Final Intermolecular Energy     =  -12.30 kcal/mol
DOCKED: USER        vdW + Hbond + desolv Energy     =  -12.30 kcal/mol
DOCKED: USER        Electrostatic Energy            =   +0.00 kcal/mol
DOCKED: USER    (2) Final Total Internal Energy     =   -2.07 kcal/mol
DOCKED: USER    (3) Torsional Free Energy           =   +2.09 kcal/mol
DOCKED: USER    (4) Unbound System's Energy  [=(2)] =   -2.07 kcal/mol
DOCKED: USER    
DOCKED: USER    
DOCKED: USER    NEWDPF move ligand.pdbqt
DOCKED: USER    NEWDPF about 0.576000 -0.005000 0.140000
DOCKED: USER    NEWDPF tran0 22.757402 -8.086274 -5.429481
DOCKED: USER    NEWDPF quaternion0 0.590544 -0.369683 0.688387 -0.201782
DOCKED: USER    NEWDPF axisangle0 0.602946 -0.377447 0.702844 -156.717651
DOCKED: USER    NEWDPF quat0 0.602946 -0.377447 0.702844 -156.717651
DOCKED: USER    NEWDPF dihe0 -56.76 -148.92 172.55 -168.72 -120.91 -179.90 -12.06 
DOCKED: USER  keepresnum = 1 
DOCKED: USER  
DOCKED: REMARK  Name = 
DOCKED: REMARK  8 active torsions:
DOCKED: REMARK  status: ('A' for Active; 'I' for Inactive)
DOCKED: REMARK    1  A    between atoms: C_2  and  C_3
DOCKED: REMARK    2  A    between atoms: C_4  and  C_5
DOCKED: REMARK    3  A    between atoms: C_8  and  C_9
DOCKED: REMARK    4  A    between atoms: C_9  and  N_10
DOCKED: REMARK    5  A    between atoms: N_10  and  C_11
DOCKED: REMARK    6  A    between atoms: C_11  and  C_12
DOCKED: REMARK    7  A    between atoms: C_12  and  C_13
DOCKED: REMARK    8  A    between atoms: C_14  and  C_22
DOCKED: REMARK                            x       y       z     vdW  Elec       q    Type
DOCKED: REMARK                         _______ _______ _______ _____ _____    ______ ____
DOCKED: USER                              x       y       z     vdW  Elec       q    Type
DOCKED: USER                           _______ _______ _______ _____ _____    ______ ____
DOCKED: ROOT
DOCKED: ATOM      1  N   UNL     1      23.031  -8.280  -6.136 -0.17 -0.00    +0.000 N 
DOCKED: ATOM      2  H   UNL     1      22.806  -9.234  -5.854 -0.02 -0.00    +0.000 HD
DOCKED: ATOM      3  H   UNL     1      23.977  -8.022  -5.856 +0.03 -0.00    +0.000 HD
DOCKED: ENDROOT
DOCKED: BRANCH   1   4
DOCKED: ATOM      4  C   UNL     1      22.100  -7.360  -5.470 -0.20 -0.00    +0.000 C 
DOCKED: BRANCH   4   8
DOCKED: ATOM      5  C   UNL     1      21.039  -8.900  -1.570 -0.50 -0.00    +0.000 A 
DOCKED: ATOM      6  C   UNL     1      21.022  -7.513  -1.822 -0.36 -0.00    +0.000 A 
DOCKED: ATOM      7  C   UNL     1      21.377  -7.018  -3.080 -0.36 -0.00    +0.000 A 
DOCKED: ATOM      8  C   UNL     1      21.758  -7.894  -4.107 -0.24 -0.00    +0.000 A 
DOCKED: ATOM      9  C   UNL     1      21.744  -9.277  -3.870 -0.29 -0.00    +0.000 A 
DOCKED: ATOM     10  C   UNL     1      21.389  -9.773  -2.614 -0.48 -0.00    +0.000 A 
DOCKED: BRANCH   5  12
DOCKED: ATOM     11  C   UNL     1      20.821 -10.775   0.058 -0.68 -0.00    +0.000 C 
DOCKED: ATOM     12  C   UNL     1      20.661  -9.480  -0.257 -0.57 -0.00    +0.000 C 
DOCKED: BRANCH  11  14
DOCKED: ATOM     13  O   UNL     1      19.900 -12.484   1.389 -1.61 -0.00    +0.000 OA
DOCKED: ATOM     14  C   UNL     1      20.440 -11.347   1.366 -0.75 -0.00    +0.000 C 
DOCKED: ATOM     15  N   UNL     1      20.639 -10.643   2.598 -0.63 -0.00    +0.000 N 
DOCKED: ATOM     16  O   UNL     1      20.371 -11.251   3.777 -1.23 -0.00    +0.000 OA
DOCKED: ATOM     17  H   UNL     1      20.971  -9.716   2.587 -0.59 -0.00    +0.000 HD
DOCKED: ENDBRANCH  11  14
DOCKED: ENDBRANCH   5  12
DOCKED: ENDBRANCH   4   8
DOCKED: ENDBRANCH   1   4
DOCKED: BRANCH   1  18
DOCKED: ATOM     18  C   UNL     1      22.955  -8.189  -7.601 -0.15 -0.00    +0.000 C 
DOCKED: BRANCH  18  19
DOCKED: ATOM     19  C   UNL     1      22.257  -9.405  -8.232 -0.17 -0.00    +0.000 C 
DOCKED: BRANCH  19  20
DOCKED: ATOM     20  C   UNL     1      21.684 -10.292  -7.165 -0.27 -0.00    +0.000 A 
DOCKED: ATOM     21  C   UNL     1      22.258 -11.440  -6.617 -0.35 -0.00    +0.000 A 
DOCKED: ATOM     22  N   UNL     1      21.417 -12.017  -5.726 -0.32 -0.00    +0.000 N 
DOCKED: ATOM     23  C   UNL     1      20.309 -11.257  -5.720 -0.38 -0.00    +0.000 A 
DOCKED: ATOM     24  C   UNL     1      20.430 -10.201  -6.589 -0.26 -0.00    +0.000 A 
DOCKED: ATOM     25  C   UNL     1      19.395  -9.283  -6.775 -0.14 -0.00    +0.000 A 
DOCKED: ATOM     26  C   UNL     1      18.214  -9.465  -6.034 -0.16 -0.00    +0.000 A 
DOCKED: ATOM     27  C   UNL     1      18.092 -10.549  -5.136 -0.28 -0.00    +0.000 A 
DOCKED: ATOM     28  C   UNL     1      19.149 -11.463  -4.974 -0.37 -0.00    +0.000 A 
DOCKED: ATOM     29  C   UNL     1      23.616 -11.975  -6.940 -0.48 -0.00    +0.000 C 
DOCKED: ATOM     30  H   UNL     1      21.584 -12.828  -5.192 -0.33 -0.00    +0.000 HD
DOCKED: ENDBRANCH  19  20
DOCKED: ENDBRANCH  18  19
DOCKED: ENDBRANCH   1  18
DOCKED: TORSDOF 7
DOCKED: TER
DOCKED: ENDMDL
________________________________________________________________________________


	BEGINNING GENETIC ALGORITHM DOCKING 54 of 100
Run: 54 Seed: 60341422 1620857723 [ Run 54 of 100 GA/GALS ]
Beginning LAMARCKIAN GENETIC ALGORITHM (LGA), with a maximum of 2500000 energy evaluations.

Final-Value: -14.176


	FINAL GENETIC ALGORITHM DOCKED STATE
	_______________________________________________


Detailed state:  trans 21.189 -11.011 -6.514 quatxyzw -0.067373 -0.809632 0.566730 -0.137021 center 0.576 -0.005 0.140 ntor 7 -135.9151 166.5005 160.9044 -64.4188 24.3139 -134.0406 68.8364
State:	 21.189 -11.011  -6.514  -0.068 -0.817  0.572 -164.249   -135.92  166.50  160.90  -64.42   24.31 -134.04   68.84

DOCKED: MODEL       54
DOCKED: USER    Run = 54
DOCKED: USER    DPF = ligand_dock.biased.dpf
DOCKED: USER  
DOCKED: USER    Estimated Free Energy of Binding    =  -10.84 kcal/mol  [=(1)+(2)+(3)-(4)]
DOCKED: USER    Estimated Inhibition Constant, Ki   =   11.25 nM (nanomolar)  [Temperature = 298.15 K]
DOCKED: USER    
DOCKED: USER    (1) Final Intermolecular Energy     =  -12.93 kcal/mol
DOCKED: USER        vdW + Hbond + desolv Energy     =  -12.93 kcal/mol
DOCKED: USER        Electrostatic Energy            =   +0.00 kcal/mol
DOCKED: USER    (2) Final Total Internal Energy     =   -1.24 kcal/mol
DOCKED: USER    (3) Torsional Free Energy           =   +2.09 kcal/mol
DOCKED: USER    (4) Unbound System's Energy  [=(2)] =   -1.24 kcal/mol
DOCKED: USER    
DOCKED: USER    
DOCKED: USER    NEWDPF move ligand.pdbqt
DOCKED: USER    NEWDPF about 0.576000 -0.005000 0.140000
DOCKED: USER    NEWDPF tran0 21.188681 -11.010634 -6.514282
DOCKED: USER    NEWDPF quaternion0 -0.067373 -0.809632 0.566730 -0.137021
DOCKED: USER    NEWDPF axisangle0 -0.068015 -0.817341 0.572126 -164.249009
DOCKED: USER    NEWDPF quat0 -0.068015 -0.817341 0.572126 -164.249009
DOCKED: USER    NEWDPF dihe0 -135.92 166.50 160.90 -64.42 24.31 -134.04 68.84 
DOCKED: USER  keepresnum = 1 
DOCKED: USER  
DOCKED: REMARK  Name = 
DOCKED: REMARK  8 active torsions:
DOCKED: REMARK  status: ('A' for Active; 'I' for Inactive)
DOCKED: REMARK    1  A    between atoms: C_2  and  C_3
DOCKED: REMARK    2  A    between atoms: C_4  and  C_5
DOCKED: REMARK    3  A    between atoms: C_8  and  C_9
DOCKED: REMARK    4  A    between atoms: C_9  and  N_10
DOCKED: REMARK    5  A    between atoms: N_10  and  C_11
DOCKED: REMARK    6  A    between atoms: C_11  and  C_12
DOCKED: REMARK    7  A    between atoms: C_12  and  C_13
DOCKED: REMARK    8  A    between atoms: C_14  and  C_22
DOCKED: REMARK                            x       y       z     vdW  Elec       q    Type
DOCKED: REMARK                         _______ _______ _______ _____ _____    ______ ____
DOCKED: USER                              x       y       z     vdW  Elec       q    Type
DOCKED: USER                           _______ _______ _______ _____ _____    ______ ____
DOCKED: ROOT
DOCKED: ATOM      1  N   UNL     1      21.768 -11.431  -6.829 -0.23 -0.00    +0.000 N 
DOCKED: ATOM      2  H   UNL     1      21.115 -11.577  -7.598 -0.39 -0.00    +0.000 HD
DOCKED: ATOM      3  H   UNL     1      21.660 -12.145  -6.107 -0.49 -0.00    +0.000 HD
DOCKED: ENDROOT
DOCKED: BRANCH   1   4
DOCKED: ATOM      4  C   UNL     1      21.489 -10.128  -6.213 -0.34 -0.00    +0.000 C 
DOCKED: BRANCH   4   8
DOCKED: ATOM      5  C   UNL     1      20.147 -10.786  -2.154 -0.38 -0.00    +0.000 A 
DOCKED: ATOM      6  C   UNL     1      19.400 -11.277  -3.244 -0.31 -0.00    +0.000 A 
DOCKED: ATOM      7  C   UNL     1      19.831 -11.052  -4.556 -0.42 -0.00    +0.000 A 
DOCKED: ATOM      8  C   UNL     1      21.009 -10.333  -4.803 -0.40 -0.00    +0.000 A 
DOCKED: ATOM      9  C   UNL     1      21.772  -9.872  -3.720 -0.31 -0.00    +0.000 A 
DOCKED: ATOM     10  C   UNL     1      21.344 -10.097  -2.410 -0.50 -0.00    +0.000 A 
DOCKED: BRANCH   5  12
DOCKED: ATOM     11  C   UNL     1      20.614 -11.219   0.255 -0.63 -0.00    +0.000 C 
DOCKED: ATOM     12  C   UNL     1      19.743 -11.006  -0.743 -0.51 -0.00    +0.000 C 
DOCKED: BRANCH  11  14
DOCKED: ATOM     13  O   UNL     1      19.475 -12.431   1.922 -1.57 -0.00    +0.000 OA
DOCKED: ATOM     14  C   UNL     1      20.206 -11.439   1.657 -0.76 -0.00    +0.000 C 
DOCKED: ATOM     15  N   UNL     1      20.589 -10.553   2.717 -0.62 -0.00    +0.000 N 
DOCKED: ATOM     16  O   UNL     1      20.278 -10.854   3.999 -1.11 -0.00    +0.000 OA
DOCKED: ATOM     17  H   UNL     1      21.078  -9.724   2.511 -0.58 -0.00    +0.000 HD
DOCKED: ENDBRANCH  11  14
DOCKED: ENDBRANCH   5  12
DOCKED: ENDBRANCH   4   8
DOCKED: ENDBRANCH   1   4
DOCKED: BRANCH   1  18
DOCKED: ATOM     18  C   UNL     1      23.140 -11.522  -7.349 -0.49 -0.00    +0.000 C 
DOCKED: BRANCH  18  19
DOCKED: ATOM     19  C   UNL     1      23.426 -10.480  -8.443 -0.27 -0.00    +0.000 C 
DOCKED: BRANCH  19  20
DOCKED: ATOM     20  C   UNL     1      24.402  -9.453  -7.946 -0.22 -0.00    +0.000 A 
DOCKED: ATOM     21  C   UNL     1      24.142  -8.120  -7.626 -0.16 -0.00    +0.000 A 
DOCKED: ATOM     22  N   UNL     1      25.283  -7.480  -7.277 -0.17 -0.00    +0.000 N 
DOCKED: ATOM     23  C   UNL     1      26.265  -8.390  -7.392 -0.25 -0.00    +0.000 A 
DOCKED: ATOM     24  C   UNL     1      25.770  -9.602  -7.804 -0.30 -0.00    +0.000 A 
DOCKED: ATOM     25  C   UNL     1      26.604 -10.700  -8.019 -0.32 -0.00    +0.000 A 
DOCKED: ATOM     26  C   UNL     1      27.981 -10.533  -7.792 -0.38 -0.00    +0.000 A 
DOCKED: ATOM     27  C   UNL     1      28.490  -9.287  -7.363 -0.41 -0.00    +0.000 A 
DOCKED: ATOM     28  C   UNL     1      27.627  -8.196  -7.160 -0.29 -0.00    +0.000 A 
DOCKED: ATOM     29  C   UNL     1      22.798  -7.465  -7.644 -0.11 -0.00    +0.000 C 
DOCKED: ATOM     30  H   UNL     1      25.374  -6.540  -6.996 -0.01 -0.00    +0.000 HD
DOCKED: ENDBRANCH  19  20
DOCKED: ENDBRANCH  18  19
DOCKED: ENDBRANCH   1  18
DOCKED: TORSDOF 7
DOCKED: TER
DOCKED: ENDMDL
________________________________________________________________________________


	BEGINNING GENETIC ALGORITHM DOCKING 55 of 100
Run: 55 Seed: 1321784064 1234737677 [ Run 55 of 100 GA/GALS ]
Beginning LAMARCKIAN GENETIC ALGORITHM (LGA), with a maximum of 2500000 energy evaluations.

Final-Value: -14.677


	FINAL GENETIC ALGORITHM DOCKED STATE
	_______________________________________________


Detailed state:  trans 15.059 -12.412 -0.278 quatxyzw 0.177681 0.793485 -0.399025 -0.423780 center 0.576 -0.005 0.140 ntor 7 139.9536 19.0999 -1.1375 -51.5530 179.8799 123.5489 -175.3772
State:	 15.059 -12.412  -0.278   0.196  0.876 -0.441 -129.853    139.95   19.10   -1.14  -51.55  179.88  123.55 -175.38

DOCKED: MODEL       55
DOCKED: USER    Run = 55
DOCKED: USER    DPF = ligand_dock.biased.dpf
DOCKED: USER  
DOCKED: USER    Estimated Free Energy of Binding    =  -11.24 kcal/mol  [=(1)+(2)+(3)-(4)]
DOCKED: USER    Estimated Inhibition Constant, Ki   =    5.82 nM (nanomolar)  [Temperature = 298.15 K]
DOCKED: USER    
DOCKED: USER    (1) Final Intermolecular Energy     =  -13.32 kcal/mol
DOCKED: USER        vdW + Hbond + desolv Energy     =  -13.32 kcal/mol
DOCKED: USER        Electrostatic Energy            =   +0.00 kcal/mol
DOCKED: USER    (2) Final Total Internal Energy     =   -1.35 kcal/mol
DOCKED: USER    (3) Torsional Free Energy           =   +2.09 kcal/mol
DOCKED: USER    (4) Unbound System's Energy  [=(2)] =   -1.35 kcal/mol
DOCKED: USER    
DOCKED: USER    
DOCKED: USER    NEWDPF move ligand.pdbqt
DOCKED: USER    NEWDPF about 0.576000 -0.005000 0.140000
DOCKED: USER    NEWDPF tran0 15.058716 -12.411684 -0.278115
DOCKED: USER    NEWDPF quaternion0 0.177681 0.793485 -0.399025 -0.423780
DOCKED: USER    NEWDPF axisangle0 0.196167 0.876039 -0.440539 -129.853090
DOCKED: USER    NEWDPF quat0 0.196167 0.876039 -0.440539 -129.853090
DOCKED: USER    NEWDPF dihe0 139.95 19.10 -1.14 -51.55 179.88 123.55 -175.38 
DOCKED: USER  keepresnum = 1 
DOCKED: USER  
DOCKED: REMARK  Name = 
DOCKED: REMARK  8 active torsions:
DOCKED: REMARK  status: ('A' for Active; 'I' for Inactive)
DOCKED: REMARK    1  A    between atoms: C_2  and  C_3
DOCKED: REMARK    2  A    between atoms: C_4  and  C_5
DOCKED: REMARK    3  A    between atoms: C_8  and  C_9
DOCKED: REMARK    4  A    between atoms: C_9  and  N_10
DOCKED: REMARK    5  A    between atoms: N_10  and  C_11
DOCKED: REMARK    6  A    between atoms: C_11  and  C_12
DOCKED: REMARK    7  A    between atoms: C_12  and  C_13
DOCKED: REMARK    8  A    between atoms: C_14  and  C_22
DOCKED: REMARK                            x       y       z     vdW  Elec       q    Type
DOCKED: REMARK                         _______ _______ _______ _____ _____    ______ ____
DOCKED: USER                              x       y       z     vdW  Elec       q    Type
DOCKED: USER                           _______ _______ _______ _____ _____    ______ ____
DOCKED: ROOT
DOCKED: ATOM      1  N   UNL     1      15.706 -12.537   0.142 -0.49 +0.00    +0.000 N 
DOCKED: ATOM      2  H   UNL     1      16.171 -12.579  -0.764 -0.01 +0.00    +0.000 HD
DOCKED: ATOM      3  H   UNL     1      15.360 -13.453   0.427 -0.04 +0.00    +0.000 HD
DOCKED: ENDROOT
DOCKED: BRANCH   1   4
DOCKED: ATOM      4  C   UNL     1      14.551 -11.636   0.039 -0.42 +0.00    +0.000 C 
DOCKED: BRANCH   4   8
DOCKED: ATOM      5  C   UNL     1      14.628  -8.708   3.223 -0.29 +0.00    +0.000 A 
DOCKED: ATOM      6  C   UNL     1      15.212  -8.422   1.972 -0.24 +0.00    +0.000 A 
DOCKED: ATOM      7  C   UNL     1      15.195  -9.375   0.949 -0.25 +0.00    +0.000 A 
DOCKED: ATOM      8  C   UNL     1      14.602 -10.629   1.155 -0.27 +0.00    +0.000 A 
DOCKED: ATOM      9  C   UNL     1      13.991 -10.904   2.387 -0.36 +0.00    +0.000 A 
DOCKED: ATOM     10  C   UNL     1      14.005  -9.953   3.410 -0.31 +0.00    +0.000 A 
DOCKED: BRANCH   5  12
DOCKED: ATOM     11  C   UNL     1      15.195  -6.525   4.283 -0.41 +0.00    +0.000 C 
DOCKED: ATOM     12  C   UNL     1      14.607  -7.730   4.338 -0.39 +0.00    +0.000 C 
DOCKED: BRANCH  11  14
DOCKED: ATOM     13  O   UNL     1      14.247  -5.642   6.249 -1.08 +0.00    +0.000 OA
DOCKED: ATOM     14  C   UNL     1      15.172  -5.556   5.398 -0.43 +0.00    +0.000 C 
DOCKED: ATOM     15  N   UNL     1      16.145  -4.512   5.527 -0.49 -0.00    +0.000 N 
DOCKED: ATOM     16  O   UNL     1      16.143  -3.715   6.621 -0.69 +0.00    +0.000 OA
DOCKED: ATOM     17  H   UNL     1      16.815  -4.375   4.819 -0.46 -0.00    +0.000 HD
DOCKED: ENDBRANCH  11  14
DOCKED: ENDBRANCH   5  12
DOCKED: ENDBRANCH   4   8
DOCKED: ENDBRANCH   1   4
DOCKED: BRANCH   1  18
DOCKED: ATOM     18  C   UNL     1      16.677 -12.089   1.151 -0.47 +0.00    +0.000 C 
DOCKED: BRANCH  18  19
DOCKED: ATOM     19  C   UNL     1      18.047 -12.767   0.992 -0.35 +0.00    +0.000 C 
DOCKED: BRANCH  19  20
DOCKED: ATOM     20  C   UNL     1      19.129 -11.735   0.849 -0.55 -0.00    +0.000 A 
DOCKED: ATOM     21  C   UNL     1      19.864 -11.130   1.869 -0.64 -0.00    +0.000 A 
DOCKED: ATOM     22  N   UNL     1      20.705 -10.196   1.364 -0.54 -0.00    +0.000 N 
DOCKED: ATOM     23  C   UNL     1      20.494 -10.191   0.037 -0.58 -0.00    +0.000 A 
DOCKED: ATOM     24  C   UNL     1      19.535 -11.109  -0.315 -0.48 -0.00    +0.000 A 
DOCKED: ATOM     25  C   UNL     1      19.126 -11.271  -1.639 -0.34 -0.00    +0.000 A 
DOCKED: ATOM     26  C   UNL     1      19.734 -10.465  -2.618 -0.40 -0.00    +0.000 A 
DOCKED: ATOM     27  C   UNL     1      20.724  -9.524  -2.256 -0.47 -0.00    +0.000 A 
DOCKED: ATOM     28  C   UNL     1      21.112  -9.378  -0.913 -0.57 -0.00    +0.000 A 
DOCKED: ATOM     29  C   UNL     1      19.768 -11.456   3.325 -0.71 -0.00    +0.000 C 
DOCKED: ATOM     30  H   UNL     1      21.341  -9.637   1.866 -0.57 -0.00    +0.000 HD
DOCKED: ENDBRANCH  19  20
DOCKED: ENDBRANCH  18  19
DOCKED: ENDBRANCH   1  18
DOCKED: TORSDOF 7
DOCKED: TER
DOCKED: ENDMDL
________________________________________________________________________________


	BEGINNING GENETIC ALGORITHM DOCKING 56 of 100
Run: 56 Seed: 361804139 1827948859 [ Run 56 of 100 GA/GALS ]
Beginning LAMARCKIAN GENETIC ALGORITHM (LGA), with a maximum of 2500000 energy evaluations.

Final-Value: -13.466


	FINAL GENETIC ALGORITHM DOCKED STATE
	_______________________________________________


Detailed state:  trans 15.944 -12.875 1.485 quatxyzw 0.625703 -0.393995 0.654656 0.157130 center 0.576 -0.005 0.140 ntor 7 175.9147 -121.9232 -179.8611 -100.9662 -145.6788 33.0315 116.2359
State:	 15.944 -12.875   1.485   0.634 -0.399  0.663 161.919    175.91 -121.92 -179.86 -100.97 -145.68   33.03  116.24

DOCKED: MODEL       56
DOCKED: USER    Run = 56
DOCKED: USER    DPF = ligand_dock.biased.dpf
DOCKED: USER  
DOCKED: USER    Estimated Free Energy of Binding    =   -9.92 kcal/mol  [=(1)+(2)+(3)-(4)]
DOCKED: USER    Estimated Inhibition Constant, Ki   =   53.47 nM (nanomolar)  [Temperature = 298.15 K]
DOCKED: USER    
DOCKED: USER    (1) Final Intermolecular Energy     =  -12.01 kcal/mol
DOCKED: USER        vdW + Hbond + desolv Energy     =  -12.01 kcal/mol
DOCKED: USER        Electrostatic Energy            =   +0.00 kcal/mol
DOCKED: USER    (2) Final Total Internal Energy     =   -1.46 kcal/mol
DOCKED: USER    (3) Torsional Free Energy           =   +2.09 kcal/mol
DOCKED: USER    (4) Unbound System's Energy  [=(2)] =   -1.46 kcal/mol
DOCKED: USER    
DOCKED: USER    
DOCKED: USER    NEWDPF move ligand.pdbqt
DOCKED: USER    NEWDPF about 0.576000 -0.005000 0.140000
DOCKED: USER    NEWDPF tran0 15.944264 -12.875297 1.484839
DOCKED: USER    NEWDPF quaternion0 0.625703 -0.393995 0.654656 0.157130
DOCKED: USER    NEWDPF axisangle0 0.633573 -0.398951 0.662890 161.919352
DOCKED: USER    NEWDPF quat0 0.633573 -0.398951 0.662890 161.919352
DOCKED: USER    NEWDPF dihe0 175.91 -121.92 -179.86 -100.97 -145.68 33.03 116.24 
DOCKED: USER  keepresnum = 1 
DOCKED: USER  
DOCKED: REMARK  Name = 
DOCKED: REMARK  8 active torsions:
DOCKED: REMARK  status: ('A' for Active; 'I' for Inactive)
DOCKED: REMARK    1  A    between atoms: C_2  and  C_3
DOCKED: REMARK    2  A    between atoms: C_4  and  C_5
DOCKED: REMARK    3  A    between atoms: C_8  and  C_9
DOCKED: REMARK    4  A    between atoms: C_9  and  N_10
DOCKED: REMARK    5  A    between atoms: N_10  and  C_11
DOCKED: REMARK    6  A    between atoms: C_11  and  C_12
DOCKED: REMARK    7  A    between atoms: C_12  and  C_13
DOCKED: REMARK    8  A    between atoms: C_14  and  C_22
DOCKED: REMARK                            x       y       z     vdW  Elec       q    Type
DOCKED: REMARK                         _______ _______ _______ _____ _____    ______ ____
DOCKED: USER                              x       y       z     vdW  Elec       q    Type
DOCKED: USER                           _______ _______ _______ _____ _____    ______ ____
DOCKED: ROOT
DOCKED: ATOM      1  N   UNL     1      16.317 -12.555   0.877 -0.44 +0.00    +0.000 N 
DOCKED: ATOM      2  H   UNL     1      16.576 -13.516   0.653 -0.04 +0.00    +0.000 HD
DOCKED: ATOM      3  H   UNL     1      16.996 -12.121   1.504 -0.01 +0.00    +0.000 HD
DOCKED: ENDROOT
DOCKED: BRANCH   1   4
DOCKED: ATOM      4  C   UNL     1      15.018 -12.564   1.562 -0.17 +0.00    +0.000 C 
DOCKED: BRANCH   4   8
DOCKED: ATOM      5  C   UNL     1      14.407  -8.835   3.666 -0.30 +0.00    +0.000 A 
DOCKED: ATOM      6  C   UNL     1      13.435  -9.318   2.767 -0.22 +0.00    +0.000 A 
DOCKED: ATOM      7  C   UNL     1      13.641 -10.518   2.080 -0.29 +0.00    +0.000 A 
DOCKED: ATOM      8  C   UNL     1      14.819 -11.254   2.273 -0.42 +0.00    +0.000 A 
DOCKED: ATOM      9  C   UNL     1      15.773 -10.794   3.192 -0.45 +0.00    +0.000 A 
DOCKED: ATOM     10  C   UNL     1      15.569  -9.596   3.880 -0.35 +0.00    +0.000 A 
DOCKED: BRANCH   5  12
DOCKED: ATOM     11  C   UNL     1      15.243  -6.738   4.724 -0.47 +0.00    +0.000 C 
DOCKED: ATOM     12  C   UNL     1      14.235  -7.575   4.431 -0.37 +0.00    +0.000 C 
DOCKED: BRANCH  11  14
DOCKED: ATOM     13  O   UNL     1      13.975  -5.300   6.090 -1.04 +0.00    +0.000 OA
DOCKED: ATOM     14  C   UNL     1      15.065  -5.487   5.487 -0.45 +0.00    +0.000 C 
DOCKED: ATOM     15  N   UNL     1      16.076  -4.472   5.543 -0.50 -0.00    +0.000 N 
DOCKED: ATOM     16  O   UNL     1      15.909  -3.391   6.340 -0.63 +0.00    +0.000 OA
DOCKED: ATOM     17  H   UNL     1      16.892  -4.562   5.001 -0.55 -0.00    +0.000 HD
DOCKED: ENDBRANCH  11  14
DOCKED: ENDBRANCH   5  12
DOCKED: ENDBRANCH   4   8
DOCKED: ENDBRANCH   1   4
DOCKED: BRANCH   1  18
DOCKED: ATOM     18  C   UNL     1      16.288 -11.771  -0.366 -0.42 +0.00    +0.000 C 
DOCKED: BRANCH  18  19
DOCKED: ATOM     19  C   UNL     1      17.015 -10.423  -0.230 -0.23 -0.00    +0.000 C 
DOCKED: BRANCH  19  20
DOCKED: ATOM     20  C   UNL     1      18.503 -10.628  -0.226 -0.30 -0.00    +0.000 A 
DOCKED: ATOM     21  C   UNL     1      19.324 -10.858   0.879 -0.52 -0.00    +0.000 A 
DOCKED: ATOM     22  N   UNL     1      20.623 -10.926   0.504 -0.63 -0.00    +0.000 N 
DOCKED: ATOM     23  C   UNL     1      20.634 -10.721  -0.824 -0.51 -0.00    +0.000 A 
DOCKED: ATOM     24  C   UNL     1      19.362 -10.529  -1.304 -0.40 -0.00    +0.000 A 
DOCKED: ATOM     25  C   UNL     1      19.119 -10.273  -2.654 -0.33 -0.00    +0.000 A 
DOCKED: ATOM     26  C   UNL     1      20.224 -10.225  -3.523 -0.40 -0.00    +0.000 A 
DOCKED: ATOM     27  C   UNL     1      21.532 -10.428  -3.029 -0.43 -0.00    +0.000 A 
DOCKED: ATOM     28  C   UNL     1      21.747 -10.678  -1.662 -0.29 -0.00    +0.000 A 
DOCKED: ATOM     29  C   UNL     1      18.860 -11.023   2.291 -0.62 -0.00    +0.000 C 
DOCKED: ATOM     30  H   UNL     1      21.401 -11.092   1.085 -0.23 -0.00    +0.000 HD
DOCKED: ENDBRANCH  19  20
DOCKED: ENDBRANCH  18  19
DOCKED: ENDBRANCH   1  18
DOCKED: TORSDOF 7
DOCKED: TER
DOCKED: ENDMDL
________________________________________________________________________________


	BEGINNING GENETIC ALGORITHM DOCKING 57 of 100
Run: 57 Seed: 1791366663 1681355980 [ Run 57 of 100 GA/GALS ]
Beginning LAMARCKIAN GENETIC ALGORITHM (LGA), with a maximum of 2500000 energy evaluations.

Final-Value: -14.048


	FINAL GENETIC ALGORITHM DOCKED STATE
	_______________________________________________


Detailed state:  trans 21.213 -7.415 -5.280 quatxyzw -0.549585 -0.347294 -0.744765 -0.150559 center 0.576 -0.005 0.140 ntor 7 56.9141 160.1270 -176.4084 -49.8480 126.7152 -176.1748 -46.8319
State:	 21.213  -7.415  -5.280  -0.556 -0.351 -0.753 -162.681     56.91  160.13 -176.41  -49.85  126.72 -176.17  -46.83

DOCKED: MODEL       57
DOCKED: USER    Run = 57
DOCKED: USER    DPF = ligand_dock.biased.dpf
DOCKED: USER  
DOCKED: USER    Estimated Free Energy of Binding    =  -10.79 kcal/mol  [=(1)+(2)+(3)-(4)]
DOCKED: USER    Estimated Inhibition Constant, Ki   =   12.32 nM (nanomolar)  [Temperature = 298.15 K]
DOCKED: USER    
DOCKED: USER    (1) Final Intermolecular Energy     =  -12.88 kcal/mol
DOCKED: USER        vdW + Hbond + desolv Energy     =  -12.88 kcal/mol
DOCKED: USER        Electrostatic Energy            =   +0.00 kcal/mol
DOCKED: USER    (2) Final Total Internal Energy     =   -1.17 kcal/mol
DOCKED: USER    (3) Torsional Free Energy           =   +2.09 kcal/mol
DOCKED: USER    (4) Unbound System's Energy  [=(2)] =   -1.17 kcal/mol
DOCKED: USER    
DOCKED: USER    
DOCKED: USER    NEWDPF move ligand.pdbqt
DOCKED: USER    NEWDPF about 0.576000 -0.005000 0.140000
DOCKED: USER    NEWDPF tran0 21.212710 -7.414745 -5.280097
DOCKED: USER    NEWDPF quaternion0 -0.549585 -0.347294 -0.744765 -0.150559
DOCKED: USER    NEWDPF axisangle0 -0.555922 -0.351298 -0.753352 -162.681317
DOCKED: USER    NEWDPF quat0 -0.555922 -0.351298 -0.753352 -162.681317
DOCKED: USER    NEWDPF dihe0 56.91 160.13 -176.41 -49.85 126.72 -176.17 -46.83 
DOCKED: USER  keepresnum = 1 
DOCKED: USER  
DOCKED: REMARK  Name = 
DOCKED: REMARK  8 active torsions:
DOCKED: REMARK  status: ('A' for Active; 'I' for Inactive)
DOCKED: REMARK    1  A    between atoms: C_2  and  C_3
DOCKED: REMARK    2  A    between atoms: C_4  and  C_5
DOCKED: REMARK    3  A    between atoms: C_8  and  C_9
DOCKED: REMARK    4  A    between atoms: C_9  and  N_10
DOCKED: REMARK    5  A    between atoms: N_10  and  C_11
DOCKED: REMARK    6  A    between atoms: C_11  and  C_12
DOCKED: REMARK    7  A    between atoms: C_12  and  C_13
DOCKED: REMARK    8  A    between atoms: C_14  and  C_22
DOCKED: REMARK                            x       y       z     vdW  Elec       q    Type
DOCKED: REMARK                         _______ _______ _______ _____ _____    ______ ____
DOCKED: USER                              x       y       z     vdW  Elec       q    Type
DOCKED: USER                           _______ _______ _______ _____ _____    ______ ____
DOCKED: ROOT
DOCKED: ATOM      1  N   UNL     1      21.753  -7.404  -5.845 -0.16 -0.00    +0.000 N 
DOCKED: ATOM      2  H   UNL     1      22.420  -7.438  -5.074 -0.02 -0.00    +0.000 HD
DOCKED: ATOM      3  H   UNL     1      21.506  -6.443  -6.082 +0.00 -0.00    +0.000 HD
DOCKED: ENDROOT
DOCKED: BRANCH   1   4
DOCKED: ATOM      4  C   UNL     1      20.523  -8.094  -5.436 -0.19 -0.00    +0.000 C 
DOCKED: BRANCH   4   8
DOCKED: ATOM      5  C   UNL     1      20.926  -9.575  -1.392 -0.55 -0.00    +0.000 A 
DOCKED: ATOM      6  C   UNL     1      21.447  -8.315  -1.749 -0.40 -0.00    +0.000 A 
DOCKED: ATOM      7  C   UNL     1      21.326  -7.844  -3.060 -0.37 -0.00    +0.000 A 
DOCKED: ATOM      8  C   UNL     1      20.687  -8.621  -4.037 -0.31 -0.00    +0.000 A 
DOCKED: ATOM      9  C   UNL     1      20.138  -9.860  -3.678 -0.36 -0.00    +0.000 A 
DOCKED: ATOM     10  C   UNL     1      20.257 -10.332  -2.368 -0.45 -0.00    +0.000 A 
DOCKED: BRANCH   5  12
DOCKED: ATOM     11  C   UNL     1      20.006 -10.747   0.606 -0.65 -0.00    +0.000 C 
DOCKED: ATOM     12  C   UNL     1      21.016 -10.117  -0.013 -0.70 -0.00    +0.000 C 
DOCKED: BRANCH  11  14
DOCKED: ATOM     13  O   UNL     1      20.187 -12.531   2.132 -1.74 -0.00    +0.000 OA
DOCKED: ATOM     14  C   UNL     1      20.101 -11.283   1.979 -0.75 -0.00    +0.000 C 
DOCKED: ATOM     15  N   UNL     1      20.072 -10.438   3.136 -0.66 -0.00    +0.000 N 
DOCKED: ATOM     16  O   UNL     1      20.268 -10.966   4.367 -0.95 -0.00    +0.000 OA
DOCKED: ATOM     17  H   UNL     1      19.910  -9.472   3.035 -0.56 -0.00    +0.000 HD
DOCKED: ENDBRANCH  11  14
DOCKED: ENDBRANCH   5  12
DOCKED: ENDBRANCH   4   8
DOCKED: ENDBRANCH   1   4
DOCKED: BRANCH   1  18
DOCKED: ATOM     18  C   UNL     1      22.369  -8.015  -7.032 -0.16 -0.00    +0.000 C 
DOCKED: BRANCH  18  19
DOCKED: ATOM     19  C   UNL     1      23.594  -8.877  -6.682 -0.15 -0.00    +0.000 C 
DOCKED: BRANCH  19  20
DOCKED: ATOM     20  C   UNL     1      23.436 -10.261  -7.242 -0.29 -0.00    +0.000 A 
DOCKED: ATOM     21  C   UNL     1      22.784 -11.346  -6.653 -0.40 -0.00    +0.000 A 
DOCKED: ATOM     22  N   UNL     1      22.905 -12.453  -7.423 -0.40 -0.00    +0.000 N 
DOCKED: ATOM     23  C   UNL     1      23.645 -12.085  -8.482 -0.40 -0.00    +0.000 A 
DOCKED: ATOM     24  C   UNL     1      23.994 -10.759  -8.405 -0.28 -0.00    +0.000 A 
DOCKED: ATOM     25  C   UNL     1      24.784 -10.152  -9.381 -0.16 -0.00    +0.000 A 
DOCKED: ATOM     26  C   UNL     1      25.213 -10.940 -10.464 -0.15 -0.00    +0.000 A 
DOCKED: ATOM     27  C   UNL     1      24.850 -12.302 -10.546 -0.23 -0.00    +0.000 A 
DOCKED: ATOM     28  C   UNL     1      24.057 -12.890  -9.544 -0.36 -0.00    +0.000 A 
DOCKED: ATOM     29  C   UNL     1      22.035 -11.315  -5.359 -0.52 -0.00    +0.000 C 
DOCKED: ATOM     30  H   UNL     1      22.528 -13.345  -7.242 -0.56 -0.00    +0.000 HD
DOCKED: ENDBRANCH  19  20
DOCKED: ENDBRANCH  18  19
DOCKED: ENDBRANCH   1  18
DOCKED: TORSDOF 7
DOCKED: TER
DOCKED: ENDMDL
________________________________________________________________________________


	BEGINNING GENETIC ALGORITHM DOCKING 58 of 100
Run: 58 Seed: 2083688872 1932900643 [ Run 58 of 100 GA/GALS ]
Beginning LAMARCKIAN GENETIC ALGORITHM (LGA), with a maximum of 2500000 energy evaluations.

Final-Value: -13.525


	FINAL GENETIC ALGORITHM DOCKED STATE
	_______________________________________________


Detailed state:  trans 21.049 -8.810 -6.595 quatxyzw 0.955244 0.016311 -0.236759 -0.176600 center 0.576 -0.005 0.140 ntor 7 10.3279 153.3838 -158.4520 37.4566 -21.8220 171.0924 -144.3773
State:	 21.049  -8.810  -6.595   0.970  0.017 -0.241 -159.656     10.33  153.38 -158.45   37.46  -21.82  171.09 -144.38

DOCKED: MODEL       58
DOCKED: USER    Run = 58
DOCKED: USER    DPF = ligand_dock.biased.dpf
DOCKED: USER  
DOCKED: USER    Estimated Free Energy of Binding    =  -10.06 kcal/mol  [=(1)+(2)+(3)-(4)]
DOCKED: USER    Estimated Inhibition Constant, Ki   =   42.04 nM (nanomolar)  [Temperature = 298.15 K]
DOCKED: USER    
DOCKED: USER    (1) Final Intermolecular Energy     =  -12.15 kcal/mol
DOCKED: USER        vdW + Hbond + desolv Energy     =  -12.15 kcal/mol
DOCKED: USER        Electrostatic Energy            =   +0.00 kcal/mol
DOCKED: USER    (2) Final Total Internal Energy     =   -1.37 kcal/mol
DOCKED: USER    (3) Torsional Free Energy           =   +2.09 kcal/mol
DOCKED: USER    (4) Unbound System's Energy  [=(2)] =   -1.37 kcal/mol
DOCKED: USER    
DOCKED: USER    
DOCKED: USER    NEWDPF move ligand.pdbqt
DOCKED: USER    NEWDPF about 0.576000 -0.005000 0.140000
DOCKED: USER    NEWDPF tran0 21.048840 -8.810008 -6.594965
DOCKED: USER    NEWDPF quaternion0 0.955244 0.016311 -0.236759 -0.176600
DOCKED: USER    NEWDPF axisangle0 0.970498 0.016571 -0.240540 -159.656474
DOCKED: USER    NEWDPF quat0 0.970498 0.016571 -0.240540 -159.656474
DOCKED: USER    NEWDPF dihe0 10.33 153.38 -158.45 37.46 -21.82 171.09 -144.38 
DOCKED: USER  keepresnum = 1 
DOCKED: USER  
DOCKED: REMARK  Name = 
DOCKED: REMARK  8 active torsions:
DOCKED: REMARK  status: ('A' for Active; 'I' for Inactive)
DOCKED: REMARK    1  A    between atoms: C_2  and  C_3
DOCKED: REMARK    2  A    between atoms: C_4  and  C_5
DOCKED: REMARK    3  A    between atoms: C_8  and  C_9
DOCKED: REMARK    4  A    between atoms: C_9  and  N_10
DOCKED: REMARK    5  A    between atoms: N_10  and  C_11
DOCKED: REMARK    6  A    between atoms: C_11  and  C_12
DOCKED: REMARK    7  A    between atoms: C_12  and  C_13
DOCKED: REMARK    8  A    between atoms: C_14  and  C_22
DOCKED: REMARK                            x       y       z     vdW  Elec       q    Type
DOCKED: REMARK                         _______ _______ _______ _____ _____    ______ ____
DOCKED: USER                              x       y       z     vdW  Elec       q    Type
DOCKED: USER                           _______ _______ _______ _____ _____    ______ ____
DOCKED: ROOT
DOCKED: ATOM      1  N   UNL     1      20.297  -8.992  -6.483 -0.14 -0.00    +0.000 N 
DOCKED: ATOM      2  H   UNL     1      20.541  -9.870  -6.941 +0.00 -0.00    +0.000 HD
DOCKED: ATOM      3  H   UNL     1      20.010  -8.284  -7.160 +0.01 -0.00    +0.000 HD
DOCKED: ENDROOT
DOCKED: BRANCH   1   4
DOCKED: ATOM      4  C   UNL     1      21.480  -8.483  -5.778 -0.24 -0.00    +0.000 C 
DOCKED: BRANCH   4   8
DOCKED: ATOM      5  C   UNL     1      21.155  -9.561  -1.602 -0.54 -0.00    +0.000 A 
DOCKED: ATOM      6  C   UNL     1      21.000  -8.221  -2.010 -0.41 -0.00    +0.000 A 
DOCKED: ATOM      7  C   UNL     1      21.117  -7.874  -3.359 -0.35 -0.00    +0.000 A 
DOCKED: ATOM      8  C   UNL     1      21.394  -8.854  -4.323 -0.32 -0.00    +0.000 A 
DOCKED: ATOM      9  C   UNL     1      21.515 -10.193  -3.925 -0.42 -0.00    +0.000 A 
DOCKED: ATOM     10  C   UNL     1      21.397 -10.542  -2.578 -0.47 -0.00    +0.000 A 
DOCKED: BRANCH   5  12
DOCKED: ATOM     11  C   UNL     1      20.269 -11.018   0.216 -0.65 -0.00    +0.000 C 
DOCKED: ATOM     12  C   UNL     1      21.028  -9.987  -0.186 -0.69 -0.00    +0.000 C 
DOCKED: BRANCH  11  14
DOCKED: ATOM     13  O   UNL     1      19.873 -12.640   1.876 -1.66 -0.00    +0.000 OA
DOCKED: ATOM     14  C   UNL     1      20.145 -11.436   1.627 -0.75 -0.00    +0.000 C 
DOCKED: ATOM     15  N   UNL     1      20.297 -10.516   2.716 -0.65 -0.00    +0.000 N 
DOCKED: ATOM     16  O   UNL     1      20.279 -10.966   3.992 -1.15 -0.00    +0.000 OA
DOCKED: ATOM     17  H   UNL     1      20.415  -9.556   2.535 -0.53 -0.00    +0.000 HD
DOCKED: ENDBRANCH  11  14
DOCKED: ENDBRANCH   5  12
DOCKED: ENDBRANCH   4   8
DOCKED: ENDBRANCH   1   4
DOCKED: BRANCH   1  18
DOCKED: ATOM     18  C   UNL     1      19.164  -9.230  -5.576 -0.20 -0.00    +0.000 C 
DOCKED: BRANCH  18  19
DOCKED: ATOM     19  C   UNL     1      18.770 -10.714  -5.502 -0.36 -0.00    +0.000 C 
DOCKED: BRANCH  19  20
DOCKED: ATOM     20  C   UNL     1      17.289 -10.852  -5.298 -0.23 -0.00    +0.000 A 
DOCKED: ATOM     21  C   UNL     1      16.552 -10.503  -4.164 -0.16 -0.00    +0.000 A 
DOCKED: ATOM     22  N   UNL     1      15.249 -10.836  -4.319 -0.25 -0.00    +0.000 N 
DOCKED: ATOM     23  C   UNL     1      15.158 -11.412  -5.530 -0.25 -0.00    +0.000 A 
DOCKED: ATOM     24  C   UNL     1      16.380 -11.446  -6.154 -0.27 -0.00    +0.000 A 
DOCKED: ATOM     25  C   UNL     1      16.543 -12.019  -7.416 -0.34 -0.00    +0.000 A 
DOCKED: ATOM     26  C   UNL     1      15.406 -12.559  -8.044 -0.36 -0.00    +0.000 A 
DOCKED: ATOM     27  C   UNL     1      14.148 -12.518  -7.404 -0.31 -0.00    +0.000 A 
DOCKED: ATOM     28  C   UNL     1      14.015 -11.941  -6.128 -0.28 -0.00    +0.000 A 
DOCKED: ATOM     29  C   UNL     1      17.098  -9.840  -2.940 -0.18 -0.00    +0.000 C 
DOCKED: ATOM     30  H   UNL     1      14.519 -10.688  -3.675 -0.01 -0.00    +0.000 HD
DOCKED: ENDBRANCH  19  20
DOCKED: ENDBRANCH  18  19
DOCKED: ENDBRANCH   1  18
DOCKED: TORSDOF 7
DOCKED: TER
DOCKED: ENDMDL
________________________________________________________________________________


	BEGINNING GENETIC ALGORITHM DOCKING 59 of 100
Run: 59 Seed: 620080615 1776896062 [ Run 59 of 100 GA/GALS ]
Beginning LAMARCKIAN GENETIC ALGORITHM (LGA), with a maximum of 2500000 energy evaluations.

Final-Value: -13.476


	FINAL GENETIC ALGORITHM DOCKED STATE
	_______________________________________________


Detailed state:  trans 21.063 -10.565 -6.709 quatxyzw -0.420616 -0.828318 0.360049 0.085653 center 0.576 -0.005 0.140 ntor 7 -148.8563 179.2393 154.8492 -128.2036 23.8067 148.3815 124.7827
State:	 21.063 -10.565  -6.709  -0.422 -0.831  0.361 170.173   -148.86  179.24  154.85 -128.20   23.81  148.38  124.78

DOCKED: MODEL       59
DOCKED: USER    Run = 59
DOCKED: USER    DPF = ligand_dock.biased.dpf
DOCKED: USER  
DOCKED: USER    Estimated Free Energy of Binding    =  -10.04 kcal/mol  [=(1)+(2)+(3)-(4)]
DOCKED: USER    Estimated Inhibition Constant, Ki   =   43.43 nM (nanomolar)  [Temperature = 298.15 K]
DOCKED: USER    
DOCKED: USER    (1) Final Intermolecular Energy     =  -12.13 kcal/mol
DOCKED: USER        vdW + Hbond + desolv Energy     =  -12.13 kcal/mol
DOCKED: USER        Electrostatic Energy            =   +0.00 kcal/mol
DOCKED: USER    (2) Final Total Internal Energy     =   -1.34 kcal/mol
DOCKED: USER    (3) Torsional Free Energy           =   +2.09 kcal/mol
DOCKED: USER    (4) Unbound System's Energy  [=(2)] =   -1.34 kcal/mol
DOCKED: USER    
DOCKED: USER    
DOCKED: USER    NEWDPF move ligand.pdbqt
DOCKED: USER    NEWDPF about 0.576000 -0.005000 0.140000
DOCKED: USER    NEWDPF tran0 21.063313 -10.565076 -6.709441
DOCKED: USER    NEWDPF quaternion0 -0.420616 -0.828318 0.360049 0.085653
DOCKED: USER    NEWDPF axisangle0 -0.422167 -0.831373 0.361377 170.172894
DOCKED: USER    NEWDPF quat0 -0.422167 -0.831373 0.361377 170.172894
DOCKED: USER    NEWDPF dihe0 -148.86 179.24 154.85 -128.20 23.81 148.38 124.78 
DOCKED: USER  keepresnum = 1 
DOCKED: USER  
DOCKED: REMARK  Name = 
DOCKED: REMARK  8 active torsions:
DOCKED: REMARK  status: ('A' for Active; 'I' for Inactive)
DOCKED: REMARK    1  A    between atoms: C_2  and  C_3
DOCKED: REMARK    2  A    between atoms: C_4  and  C_5
DOCKED: REMARK    3  A    between atoms: C_8  and  C_9
DOCKED: REMARK    4  A    between atoms: C_9  and  N_10
DOCKED: REMARK    5  A    between atoms: N_10  and  C_11
DOCKED: REMARK    6  A    between atoms: C_11  and  C_12
DOCKED: REMARK    7  A    between atoms: C_12  and  C_13
DOCKED: REMARK    8  A    between atoms: C_14  and  C_22
DOCKED: REMARK                            x       y       z     vdW  Elec       q    Type
DOCKED: REMARK                         _______ _______ _______ _____ _____    ______ ____
DOCKED: USER                              x       y       z     vdW  Elec       q    Type
DOCKED: USER                           _______ _______ _______ _____ _____    ______ ____
DOCKED: ROOT
DOCKED: ATOM      1  N   UNL     1      21.554 -11.173  -6.680 -0.33 -0.00    +0.000 N 
DOCKED: ATOM      2  H   UNL     1      21.694 -10.985  -7.672 -0.08 -0.00    +0.000 HD
DOCKED: ATOM      3  H   UNL     1      20.773 -11.813  -6.528 -0.42 -0.00    +0.000 HD
DOCKED: ENDROOT
DOCKED: BRANCH   1   4
DOCKED: ATOM      4  C   UNL     1      21.236  -9.911  -6.000 -0.32 -0.00    +0.000 C 
DOCKED: BRANCH   4   8
DOCKED: ATOM      5  C   UNL     1      20.048 -10.802  -1.938 -0.38 -0.00    +0.000 A 
DOCKED: ATOM      6  C   UNL     1      19.285 -11.270  -3.026 -0.28 -0.00    +0.000 A 
DOCKED: ATOM      7  C   UNL     1      19.666 -10.971  -4.338 -0.41 -0.00    +0.000 A 
DOCKED: ATOM      8  C   UNL     1      20.808 -10.197  -4.587 -0.38 -0.00    +0.000 A 
DOCKED: ATOM      9  C   UNL     1      21.588  -9.758  -3.508 -0.36 -0.00    +0.000 A 
DOCKED: ATOM     10  C   UNL     1      21.211 -10.057  -2.197 -0.51 -0.00    +0.000 A 
DOCKED: BRANCH   5  12
DOCKED: ATOM     11  C   UNL     1      20.584 -11.083   0.480 -0.69 -0.00    +0.000 C 
DOCKED: ATOM     12  C   UNL     1      19.697 -11.100  -0.527 -0.52 -0.00    +0.000 C 
DOCKED: BRANCH  11  14
DOCKED: ATOM     13  O   UNL     1      19.541 -12.410   2.121 -1.61 -0.00    +0.000 OA
DOCKED: ATOM     14  C   UNL     1      20.229 -11.383   1.882 -0.77 -0.00    +0.000 C 
DOCKED: ATOM     15  N   UNL     1      20.617 -10.534   2.970 -0.63 -0.00    +0.000 N 
DOCKED: ATOM     16  O   UNL     1      20.358 -10.906   4.245 -1.00 -0.00    +0.000 OA
DOCKED: ATOM     17  H   UNL     1      21.071  -9.680   2.789 -0.59 -0.00    +0.000 HD
DOCKED: ENDBRANCH  11  14
DOCKED: ENDBRANCH   5  12
DOCKED: ENDBRANCH   4   8
DOCKED: ENDBRANCH   1   4
DOCKED: BRANCH   1  18
DOCKED: ATOM     18  C   UNL     1      22.766 -11.808  -6.142 -0.44 -0.00    +0.000 C 
DOCKED: BRANCH  18  19
DOCKED: ATOM     19  C   UNL     1      23.662 -12.396  -7.245 -0.47 -0.00    +0.000 C 
DOCKED: BRANCH  19  20
DOCKED: ATOM     20  C   UNL     1      23.853 -11.398  -8.351 -0.36 -0.00    +0.000 A 
DOCKED: ATOM     21  C   UNL     1      23.413 -11.502  -9.672 -0.23 -0.00    +0.000 A 
DOCKED: ATOM     22  N   UNL     1      23.829 -10.439 -10.400 -0.09 -0.00    +0.000 N 
DOCKED: ATOM     23  C   UNL     1      24.546  -9.675  -9.558 -0.10 -0.00    +0.000 A 
DOCKED: ATOM     24  C   UNL     1      24.590 -10.230  -8.303 -0.26 -0.00    +0.000 A 
DOCKED: ATOM     25  C   UNL     1      25.297  -9.629  -7.261 -0.24 -0.00    +0.000 A 
DOCKED: ATOM     26  C   UNL     1      25.966  -8.422  -7.530 -0.23 -0.00    +0.000 A 
DOCKED: ATOM     27  C   UNL     1      25.916  -7.849  -8.821 -0.08 -0.00    +0.000 A 
DOCKED: ATOM     28  C   UNL     1      25.201  -8.480  -9.854 -0.05 -0.00    +0.000 A 
DOCKED: ATOM     29  C   UNL     1      22.583 -12.614 -10.230 -0.30 -0.00    +0.000 C 
DOCKED: ATOM     30  H   UNL     1      23.645 -10.263 -11.351 +0.00 -0.00    +0.000 HD
DOCKED: ENDBRANCH  19  20
DOCKED: ENDBRANCH  18  19
DOCKED: ENDBRANCH   1  18
DOCKED: TORSDOF 7
DOCKED: TER
DOCKED: ENDMDL
________________________________________________________________________________


	BEGINNING GENETIC ALGORITHM DOCKING 60 of 100
Run: 60 Seed: 143861752 191759145 [ Run 60 of 100 GA/GALS ]
Beginning LAMARCKIAN GENETIC ALGORITHM (LGA), with a maximum of 2500000 energy evaluations.

Final-Value: -13.669


	FINAL GENETIC ALGORITHM DOCKED STATE
	_______________________________________________


Detailed state:  trans 20.792 -8.449 -7.229 quatxyzw 0.438392 0.642170 0.628255 0.026940 center 0.576 -0.005 0.140 ntor 7 179.9176 165.9948 -146.2999 18.7653 148.6373 -170.3410 -74.4447
State:	 20.792  -8.449  -7.229   0.439  0.642  0.628 176.913    179.92  165.99 -146.30   18.77  148.64 -170.34  -74.44

DOCKED: MODEL       60
DOCKED: USER    Run = 60
DOCKED: USER    DPF = ligand_dock.biased.dpf
DOCKED: USER  
DOCKED: USER    Estimated Free Energy of Binding    =  -10.47 kcal/mol  [=(1)+(2)+(3)-(4)]
DOCKED: USER    Estimated Inhibition Constant, Ki   =   21.01 nM (nanomolar)  [Temperature = 298.15 K]
DOCKED: USER    
DOCKED: USER    (1) Final Intermolecular Energy     =  -12.56 kcal/mol
DOCKED: USER        vdW + Hbond + desolv Energy     =  -12.56 kcal/mol
DOCKED: USER        Electrostatic Energy            =   +0.00 kcal/mol
DOCKED: USER    (2) Final Total Internal Energy     =   -1.11 kcal/mol
DOCKED: USER    (3) Torsional Free Energy           =   +2.09 kcal/mol
DOCKED: USER    (4) Unbound System's Energy  [=(2)] =   -1.11 kcal/mol
DOCKED: USER    
DOCKED: USER    
DOCKED: USER    NEWDPF move ligand.pdbqt
DOCKED: USER    NEWDPF about 0.576000 -0.005000 0.140000
DOCKED: USER    NEWDPF tran0 20.791976 -8.448797 -7.228767
DOCKED: USER    NEWDPF quaternion0 0.438392 0.642170 0.628255 0.026940
DOCKED: USER    NEWDPF axisangle0 0.438551 0.642403 0.628483 176.912499
DOCKED: USER    NEWDPF quat0 0.438551 0.642403 0.628483 176.912499
DOCKED: USER    NEWDPF dihe0 179.92 165.99 -146.30 18.77 148.64 -170.34 -74.44 
DOCKED: USER  keepresnum = 1 
DOCKED: USER  
DOCKED: REMARK  Name = 
DOCKED: REMARK  8 active torsions:
DOCKED: REMARK  status: ('A' for Active; 'I' for Inactive)
DOCKED: REMARK    1  A    between atoms: C_2  and  C_3
DOCKED: REMARK    2  A    between atoms: C_4  and  C_5
DOCKED: REMARK    3  A    between atoms: C_8  and  C_9
DOCKED: REMARK    4  A    between atoms: C_9  and  N_10
DOCKED: REMARK    5  A    between atoms: N_10  and  C_11
DOCKED: REMARK    6  A    between atoms: C_11  and  C_12
DOCKED: REMARK    7  A    between atoms: C_12  and  C_13
DOCKED: REMARK    8  A    between atoms: C_14  and  C_22
DOCKED: REMARK                            x       y       z     vdW  Elec       q    Type
DOCKED: REMARK                         _______ _______ _______ _____ _____    ______ ____
DOCKED: USER                              x       y       z     vdW  Elec       q    Type
DOCKED: USER                           _______ _______ _______ _____ _____    ______ ____
DOCKED: ROOT
DOCKED: ATOM      1  N   UNL     1      21.458  -8.591  -7.613 -0.10 -0.00    +0.000 N 
DOCKED: ATOM      2  H   UNL     1      21.881  -7.988  -6.908 +0.00 -0.00    +0.000 HD
DOCKED: ATOM      3  H   UNL     1      21.126  -8.053  -8.414 +0.00 -0.00    +0.000 HD
DOCKED: ENDROOT
DOCKED: BRANCH   1   4
DOCKED: ATOM      4  C   UNL     1      20.299  -9.270  -7.020 -0.18 -0.00    +0.000 C 
DOCKED: BRANCH   4   8
DOCKED: ATOM      5  C   UNL     1      20.837  -9.709  -2.751 -0.46 -0.00    +0.000 A 
DOCKED: ATOM      6  C   UNL     1      20.793  -8.429  -3.339 -0.36 -0.00    +0.000 A 
DOCKED: ATOM      7  C   UNL     1      20.631  -8.291  -4.721 -0.23 -0.00    +0.000 A 
DOCKED: ATOM      8  C   UNL     1      20.513  -9.424  -5.539 -0.23 -0.00    +0.000 A 
DOCKED: ATOM      9  C   UNL     1      20.523 -10.698  -4.953 -0.41 -0.00    +0.000 A 
DOCKED: ATOM     10  C   UNL     1      20.683 -10.838  -3.573 -0.44 -0.00    +0.000 A 
DOCKED: BRANCH   5  12
DOCKED: ATOM     11  C   UNL     1      20.382 -10.891  -0.604 -0.58 -0.00    +0.000 C 
DOCKED: ATOM     12  C   UNL     1      20.995  -9.913  -1.289 -0.64 -0.00    +0.000 C 
DOCKED: BRANCH  11  14
DOCKED: ATOM     13  O   UNL     1      21.017 -10.143   1.537 -0.62 -0.00    +0.000 OA
DOCKED: ATOM     14  C   UNL     1      20.542 -11.087   0.851 -0.72 -0.00    +0.000 C 
DOCKED: ATOM     15  N   UNL     1      20.201 -12.319   1.501 -0.70 -0.00    +0.000 N 
DOCKED: ATOM     16  O   UNL     1      20.267 -12.415   2.849 -1.77 -0.00    +0.000 OA
DOCKED: ATOM     17  H   UNL     1      19.920 -13.095   0.965 -0.55 -0.00    +0.000 HD
DOCKED: ENDBRANCH  11  14
DOCKED: ENDBRANCH   5  12
DOCKED: ENDBRANCH   4   8
DOCKED: ENDBRANCH   1   4
DOCKED: BRANCH   1  18
DOCKED: ATOM     18  C   UNL     1      22.473  -9.538  -8.097 -0.19 -0.00    +0.000 C 
DOCKED: BRANCH  18  19
DOCKED: ATOM     19  C   UNL     1      23.611  -9.750  -7.085 -0.26 -0.00    +0.000 C 
DOCKED: BRANCH  19  20
DOCKED: ATOM     20  C   UNL     1      24.777 -10.429  -7.743 -0.31 -0.00    +0.000 A 
DOCKED: ATOM     21  C   UNL     1      24.774 -11.644  -8.430 -0.40 -0.00    +0.000 A 
DOCKED: ATOM     22  N   UNL     1      26.026 -11.972  -8.828 -0.37 -0.00    +0.000 N 
DOCKED: ATOM     23  C   UNL     1      26.824 -10.988  -8.380 -0.32 -0.00    +0.000 A 
DOCKED: ATOM     24  C   UNL     1      26.101 -10.033  -7.709 -0.34 -0.00    +0.000 A 
DOCKED: ATOM     25  C   UNL     1      26.716  -8.921  -7.130 -0.34 -0.00    +0.000 A 
DOCKED: ATOM     26  C   UNL     1      28.110  -8.798  -7.262 -0.35 -0.00    +0.000 A 
DOCKED: ATOM     27  C   UNL     1      28.853  -9.779  -7.958 -0.41 -0.00    +0.000 A 
DOCKED: ATOM     28  C   UNL     1      28.208 -10.892  -8.525 -0.32 -0.00    +0.000 A 
DOCKED: ATOM     29  C   UNL     1      23.568 -12.482  -8.715 -0.44 -0.00    +0.000 C 
DOCKED: ATOM     30  H   UNL     1      26.296 -12.769  -9.339 -0.52 -0.00    +0.000 HD
DOCKED: ENDBRANCH  19  20
DOCKED: ENDBRANCH  18  19
DOCKED: ENDBRANCH   1  18
DOCKED: TORSDOF 7
DOCKED: TER
DOCKED: ENDMDL
________________________________________________________________________________


	BEGINNING GENETIC ALGORITHM DOCKING 61 of 100
Run: 61 Seed: 95555867 80926821 [ Run 61 of 100 GA/GALS ]
Beginning LAMARCKIAN GENETIC ALGORITHM (LGA), with a maximum of 2500000 energy evaluations.

Final-Value: -13.806


	FINAL GENETIC ALGORITHM DOCKED STATE
	_______________________________________________


Detailed state:  trans 20.867 -7.425 -5.133 quatxyzw -0.023829 0.716064 0.103200 0.689952 center 0.576 -0.005 0.140 ntor 7 167.1136 -173.2587 -1.4277 152.8609 176.7629 28.8765 25.0006
State:	 20.867  -7.425  -5.133  -0.033  0.989  0.143 92.747    167.11 -173.26   -1.43  152.86  176.76   28.88   25.00

DOCKED: MODEL       61
DOCKED: USER    Run = 61
DOCKED: USER    DPF = ligand_dock.biased.dpf
DOCKED: USER  
DOCKED: USER    Estimated Free Energy of Binding    =   -9.81 kcal/mol  [=(1)+(2)+(3)-(4)]
DOCKED: USER    Estimated Inhibition Constant, Ki   =   64.78 nM (nanomolar)  [Temperature = 298.15 K]
DOCKED: USER    
DOCKED: USER    (1) Final Intermolecular Energy     =  -11.90 kcal/mol
DOCKED: USER        vdW + Hbond + desolv Energy     =  -11.90 kcal/mol
DOCKED: USER        Electrostatic Energy            =   +0.00 kcal/mol
DOCKED: USER    (2) Final Total Internal Energy     =   -1.91 kcal/mol
DOCKED: USER    (3) Torsional Free Energy           =   +2.09 kcal/mol
DOCKED: USER    (4) Unbound System's Energy  [=(2)] =   -1.91 kcal/mol
DOCKED: USER    
DOCKED: USER    
DOCKED: USER    NEWDPF move ligand.pdbqt
DOCKED: USER    NEWDPF about 0.576000 -0.005000 0.140000
DOCKED: USER    NEWDPF tran0 20.867221 -7.425365 -5.133400
DOCKED: USER    NEWDPF quaternion0 -0.023829 0.716064 0.103200 0.689952
DOCKED: USER    NEWDPF axisangle0 -0.032920 0.989237 0.142570 92.747324
DOCKED: USER    NEWDPF quat0 -0.032920 0.989237 0.142570 92.747324
DOCKED: USER    NEWDPF dihe0 167.11 -173.26 -1.43 152.86 176.76 28.88 25.00 
DOCKED: USER  keepresnum = 1 
DOCKED: USER  
DOCKED: REMARK  Name = 
DOCKED: REMARK  8 active torsions:
DOCKED: REMARK  status: ('A' for Active; 'I' for Inactive)
DOCKED: REMARK    1  A    between atoms: C_2  and  C_3
DOCKED: REMARK    2  A    between atoms: C_4  and  C_5
DOCKED: REMARK    3  A    between atoms: C_8  and  C_9
DOCKED: REMARK    4  A    between atoms: C_9  and  N_10
DOCKED: REMARK    5  A    between atoms: N_10  and  C_11
DOCKED: REMARK    6  A    between atoms: C_11  and  C_12
DOCKED: REMARK    7  A    between atoms: C_12  and  C_13
DOCKED: REMARK    8  A    between atoms: C_14  and  C_22
DOCKED: REMARK                            x       y       z     vdW  Elec       q    Type
DOCKED: REMARK                         _______ _______ _______ _____ _____    ______ ____
DOCKED: USER                              x       y       z     vdW  Elec       q    Type
DOCKED: USER                           _______ _______ _______ _____ _____    ______ ____
DOCKED: ROOT
DOCKED: ATOM      1  N   UNL     1      20.610  -7.147  -5.817 -0.11 -0.00    +0.000 N 
DOCKED: ATOM      2  H   UNL     1      20.095  -6.480  -5.241 +0.00 -0.00    +0.000 HD
DOCKED: ATOM      3  H   UNL     1      20.069  -7.998  -5.976 +0.01 -0.00    +0.000 HD
DOCKED: ENDROOT
DOCKED: BRANCH   1   4
DOCKED: ATOM      4  C   UNL     1      21.842  -7.525  -5.114 -0.23 -0.00    +0.000 C 
DOCKED: BRANCH   4   8
DOCKED: ATOM      5  C   UNL     1      20.933 -10.021  -1.701 -0.54 -0.00    +0.000 A 
DOCKED: ATOM      6  C   UNL     1      21.171 -10.596  -2.966 -0.45 -0.00    +0.000 A 
DOCKED: ATOM      7  C   UNL     1      21.453  -9.785  -4.070 -0.39 -0.00    +0.000 A 
DOCKED: ATOM      8  C   UNL     1      21.499  -8.390  -3.933 -0.30 -0.00    +0.000 A 
DOCKED: ATOM      9  C   UNL     1      21.296  -7.817  -2.669 -0.40 -0.00    +0.000 A 
DOCKED: ATOM     10  C   UNL     1      21.016  -8.625  -1.565 -0.47 -0.00    +0.000 A 
DOCKED: BRANCH   5  12
DOCKED: ATOM     11  C   UNL     1      20.717 -10.360   0.759 -0.65 -0.00    +0.000 C 
DOCKED: ATOM     12  C   UNL     1      20.642 -10.834  -0.494 -0.61 -0.00    +0.000 C 
DOCKED: BRANCH  11  14
DOCKED: ATOM     13  O   UNL     1      20.164 -12.397   1.802 -1.81 -0.00    +0.000 OA
DOCKED: ATOM     14  C   UNL     1      20.428 -11.174   1.956 -0.74 -0.00    +0.000 C 
DOCKED: ATOM     15  N   UNL     1      20.410 -10.618   3.277 -0.68 -0.00    +0.000 N 
DOCKED: ATOM     16  O   UNL     1      20.244 -11.426   4.351 -1.03 -0.00    +0.000 OA
DOCKED: ATOM     17  H   UNL     1      20.520  -9.648   3.403 -0.57 -0.00    +0.000 HD
DOCKED: ENDBRANCH  11  14
DOCKED: ENDBRANCH   5  12
DOCKED: ENDBRANCH   4   8
DOCKED: ENDBRANCH   1   4
DOCKED: BRANCH   1  18
DOCKED: ATOM     18  C   UNL     1      20.878  -6.533  -7.126 -0.06 -0.00    +0.000 C 
DOCKED: BRANCH  18  19
DOCKED: ATOM     19  C   UNL     1      20.653  -7.510  -8.292 -0.05 -0.00    +0.000 C 
DOCKED: BRANCH  19  20
DOCKED: ATOM     20  C   UNL     1      20.968  -8.915  -7.866 -0.11 -0.00    +0.000 A 
DOCKED: ATOM     21  C   UNL     1      20.098  -9.842  -7.288 -0.20 -0.00    +0.000 A 
DOCKED: ATOM     22  N   UNL     1      20.755 -10.984  -6.975 -0.25 -0.00    +0.000 N 
DOCKED: ATOM     23  C   UNL     1      22.036 -10.781  -7.329 -0.31 -0.00    +0.000 A 
DOCKED: ATOM     24  C   UNL     1      22.206  -9.530  -7.869 -0.17 -0.00    +0.000 A 
DOCKED: ATOM     25  C   UNL     1      23.458  -9.079  -8.291 -0.14 -0.00    +0.000 A 
DOCKED: ATOM     26  C   UNL     1      24.551  -9.952  -8.155 -0.25 -0.00    +0.000 A 
DOCKED: ATOM     27  C   UNL     1      24.374 -11.241  -7.605 -0.37 -0.00    +0.000 A 
DOCKED: ATOM     28  C   UNL     1      23.102 -11.667  -7.182 -0.45 -0.00    +0.000 A 
DOCKED: ATOM     29  C   UNL     1      18.637  -9.635  -7.049 -0.19 -0.00    +0.000 C 
DOCKED: ATOM     30  H   UNL     1      20.372 -11.796  -6.571 -0.36 -0.00    +0.000 HD
DOCKED: ENDBRANCH  19  20
DOCKED: ENDBRANCH  18  19
DOCKED: ENDBRANCH   1  18
DOCKED: TORSDOF 7
DOCKED: TER
DOCKED: ENDMDL
________________________________________________________________________________


	BEGINNING GENETIC ALGORITHM DOCKING 62 of 100
Run: 62 Seed: 1063258784 2044697725 [ Run 62 of 100 GA/GALS ]
Beginning LAMARCKIAN GENETIC ALGORITHM (LGA), with a maximum of 2500000 energy evaluations.

Final-Value: -12.943


	FINAL GENETIC ALGORITHM DOCKED STATE
	_______________________________________________


Detailed state:  trans 19.523 -9.434 -7.722 quatxyzw -0.883304 -0.284363 0.283586 -0.241849 center 0.576 -0.005 0.140 ntor 7 70.2949 133.6297 138.8484 54.8588 166.1995 88.7398 150.2995
State:	 19.523  -9.434  -7.722  -0.910 -0.293  0.292 -152.009     70.29  133.63  138.85   54.86  166.20   88.74  150.30

DOCKED: MODEL       62
DOCKED: USER    Run = 62
DOCKED: USER    DPF = ligand_dock.biased.dpf
DOCKED: USER  
DOCKED: USER    Estimated Free Energy of Binding    =   -9.08 kcal/mol  [=(1)+(2)+(3)-(4)]
DOCKED: USER    Estimated Inhibition Constant, Ki   =  221.16 nM (nanomolar)  [Temperature = 298.15 K]
DOCKED: USER    
DOCKED: USER    (1) Final Intermolecular Energy     =  -11.17 kcal/mol
DOCKED: USER        vdW + Hbond + desolv Energy     =  -11.17 kcal/mol
DOCKED: USER        Electrostatic Energy            =   +0.00 kcal/mol
DOCKED: USER    (2) Final Total Internal Energy     =   -1.78 kcal/mol
DOCKED: USER    (3) Torsional Free Energy           =   +2.09 kcal/mol
DOCKED: USER    (4) Unbound System's Energy  [=(2)] =   -1.78 kcal/mol
DOCKED: USER    
DOCKED: USER    
DOCKED: USER    NEWDPF move ligand.pdbqt
DOCKED: USER    NEWDPF about 0.576000 -0.005000 0.140000
DOCKED: USER    NEWDPF tran0 19.522706 -9.433733 -7.722384
DOCKED: USER    NEWDPF quaternion0 -0.883304 -0.284363 0.283586 -0.241849
DOCKED: USER    NEWDPF axisangle0 -0.910328 -0.293063 0.292262 -152.008661
DOCKED: USER    NEWDPF quat0 -0.910328 -0.293063 0.292262 -152.008661
DOCKED: USER    NEWDPF dihe0 70.29 133.63 138.85 54.86 166.20 88.74 150.30 
DOCKED: USER  keepresnum = 1 
DOCKED: USER  
DOCKED: REMARK  Name = 
DOCKED: REMARK  8 active torsions:
DOCKED: REMARK  status: ('A' for Active; 'I' for Inactive)
DOCKED: REMARK    1  A    between atoms: C_2  and  C_3
DOCKED: REMARK    2  A    between atoms: C_4  and  C_5
DOCKED: REMARK    3  A    between atoms: C_8  and  C_9
DOCKED: REMARK    4  A    between atoms: C_9  and  N_10
DOCKED: REMARK    5  A    between atoms: N_10  and  C_11
DOCKED: REMARK    6  A    between atoms: C_11  and  C_12
DOCKED: REMARK    7  A    between atoms: C_12  and  C_13
DOCKED: REMARK    8  A    between atoms: C_14  and  C_22
DOCKED: REMARK                            x       y       z     vdW  Elec       q    Type
DOCKED: REMARK                         _______ _______ _______ _____ _____    ______ ____
DOCKED: USER                              x       y       z     vdW  Elec       q    Type
DOCKED: USER                           _______ _______ _______ _____ _____    ______ ____
DOCKED: ROOT
DOCKED: ATOM      1  N   UNL     1      18.891  -9.893  -7.757 -0.19 -0.00    +0.000 N 
DOCKED: ATOM      2  H   UNL     1      19.101  -9.944  -8.754 -0.01 -0.00    +0.000 HD
DOCKED: ATOM      3  H   UNL     1      18.286  -9.100  -7.543 +0.00 -0.00    +0.000 HD
DOCKED: ENDROOT
DOCKED: BRANCH   1   4
DOCKED: ATOM      4  C   UNL     1      20.147  -9.709  -7.018 -0.22 -0.00    +0.000 C 
DOCKED: BRANCH   4   8
DOCKED: ATOM      5  C   UNL     1      19.587 -10.633  -2.830 -0.39 -0.00    +0.000 A 
DOCKED: ATOM      6  C   UNL     1      19.748 -11.665  -3.777 -0.23 -0.00    +0.000 A 
DOCKED: ATOM      7  C   UNL     1      19.917 -11.363  -5.131 -0.44 -0.00    +0.000 A 
DOCKED: ATOM      8  C   UNL     1      19.925 -10.030  -5.566 -0.26 -0.00    +0.000 A 
DOCKED: ATOM      9  C   UNL     1      19.798  -9.000  -4.624 -0.22 -0.00    +0.000 A 
DOCKED: ATOM     10  C   UNL     1      19.630  -9.299  -3.270 -0.25 -0.00    +0.000 A 
DOCKED: BRANCH   5  12
DOCKED: ATOM     11  C   UNL     1      20.341 -10.593  -0.455 -0.62 -0.00    +0.000 C 
DOCKED: ATOM     12  C   UNL     1      19.416 -10.896  -1.380 -0.47 -0.00    +0.000 C 
DOCKED: BRANCH  11  14
DOCKED: ATOM     13  O   UNL     1      19.691  -9.946   1.714 -0.58 -0.00    +0.000 OA
DOCKED: ATOM     14  C   UNL     1      20.166 -10.860   0.987 -0.68 -0.00    +0.000 C 
DOCKED: ATOM     15  N   UNL     1      20.542 -12.105   1.589 -0.72 -0.00    +0.000 N 
DOCKED: ATOM     16  O   UNL     1      20.266 -12.339   2.893 -1.76 -0.00    +0.000 OA
DOCKED: ATOM     17  H   UNL     1      21.002 -12.791   1.052 -0.38 -0.00    +0.000 HD
DOCKED: ENDBRANCH  11  14
DOCKED: ENDBRANCH   5  12
DOCKED: ENDBRANCH   4   8
DOCKED: ENDBRANCH   1   4
DOCKED: BRANCH   1  18
DOCKED: ATOM     18  C   UNL     1      18.183 -11.119  -7.360 -0.34 -0.00    +0.000 C 
DOCKED: BRANCH  18  19
DOCKED: ATOM     19  C   UNL     1      16.702 -11.104  -7.770 -0.31 -0.00    +0.000 C 
DOCKED: BRANCH  19  20
DOCKED: ATOM     20  C   UNL     1      15.830 -11.452  -6.598 -0.28 -0.00    +0.000 A 
DOCKED: ATOM     21  C   UNL     1      14.799 -12.393  -6.558 -0.30 -0.00    +0.000 A 
DOCKED: ATOM     22  N   UNL     1      14.190 -12.384  -5.349 -0.24 -0.00    +0.000 N 
DOCKED: ATOM     23  C   UNL     1      14.812 -11.432  -4.631 -0.22 -0.00    +0.000 A 
DOCKED: ATOM     24  C   UNL     1      15.812 -10.838  -5.360 -0.23 -0.00    +0.000 A 
DOCKED: ATOM     25  C   UNL     1      16.585  -9.802  -4.835 -0.19 -0.00    +0.000 A 
DOCKED: ATOM     26  C   UNL     1      16.316  -9.383  -3.519 -0.19 -0.00    +0.000 A 
DOCKED: ATOM     27  C   UNL     1      15.291  -9.999  -2.768 -0.23 -0.00    +0.000 A 
DOCKED: ATOM     28  C   UNL     1      14.523 -11.037  -3.326 -0.27 -0.00    +0.000 A 
DOCKED: ATOM     29  C   UNL     1      14.408 -13.307  -7.675 -0.44 -0.00    +0.000 C 
DOCKED: ATOM     30  H   UNL     1      13.445 -12.957  -5.056 -0.49 -0.00    +0.000 HD
DOCKED: ENDBRANCH  19  20
DOCKED: ENDBRANCH  18  19
DOCKED: ENDBRANCH   1  18
DOCKED: TORSDOF 7
DOCKED: TER
DOCKED: ENDMDL
________________________________________________________________________________


	BEGINNING GENETIC ALGORITHM DOCKING 63 of 100
Run: 63 Seed: 1033672150 1639680101 [ Run 63 of 100 GA/GALS ]
Beginning LAMARCKIAN GENETIC ALGORITHM (LGA), with a maximum of 2500000 energy evaluations.

Final-Value: -13.284


	FINAL GENETIC ALGORITHM DOCKED STATE
	_______________________________________________


Detailed state:  trans 18.174 -9.331 2.571 quatxyzw 0.578199 0.710099 0.300585 -0.266634 center 0.576 -0.005 0.140 ntor 7 53.5277 120.9840 -174.8197 162.7485 178.7260 74.5344 107.3282
State:	 18.174  -9.331   2.571   0.600  0.737  0.312 -149.072     53.53  120.98 -174.82  162.75  178.73   74.53  107.33

DOCKED: MODEL       63
DOCKED: USER    Run = 63
DOCKED: USER    DPF = ligand_dock.biased.dpf
DOCKED: USER  
DOCKED: USER    Estimated Free Energy of Binding    =   -9.29 kcal/mol  [=(1)+(2)+(3)-(4)]
DOCKED: USER    Estimated Inhibition Constant, Ki   =  154.69 nM (nanomolar)  [Temperature = 298.15 K]
DOCKED: USER    
DOCKED: USER    (1) Final Intermolecular Energy     =  -11.38 kcal/mol
DOCKED: USER        vdW + Hbond + desolv Energy     =  -11.38 kcal/mol
DOCKED: USER        Electrostatic Energy            =   +0.00 kcal/mol
DOCKED: USER    (2) Final Total Internal Energy     =   -1.90 kcal/mol
DOCKED: USER    (3) Torsional Free Energy           =   +2.09 kcal/mol
DOCKED: USER    (4) Unbound System's Energy  [=(2)] =   -1.90 kcal/mol
DOCKED: USER    
DOCKED: USER    
DOCKED: USER    NEWDPF move ligand.pdbqt
DOCKED: USER    NEWDPF about 0.576000 -0.005000 0.140000
DOCKED: USER    NEWDPF tran0 18.173888 -9.330598 2.570800
DOCKED: USER    NEWDPF quaternion0 0.578199 0.710099 0.300585 -0.266634
DOCKED: USER    NEWDPF axisangle0 0.599918 0.736772 0.311875 -149.071842
DOCKED: USER    NEWDPF quat0 0.599918 0.736772 0.311875 -149.071842
DOCKED: USER    NEWDPF dihe0 53.53 120.98 -174.82 162.75 178.73 74.53 107.33 
DOCKED: USER  keepresnum = 1 
DOCKED: USER  
DOCKED: REMARK  Name = 
DOCKED: REMARK  8 active torsions:
DOCKED: REMARK  status: ('A' for Active; 'I' for Inactive)
DOCKED: REMARK    1  A    between atoms: C_2  and  C_3
DOCKED: REMARK    2  A    between atoms: C_4  and  C_5
DOCKED: REMARK    3  A    between atoms: C_8  and  C_9
DOCKED: REMARK    4  A    between atoms: C_9  and  N_10
DOCKED: REMARK    5  A    between atoms: N_10  and  C_11
DOCKED: REMARK    6  A    between atoms: C_11  and  C_12
DOCKED: REMARK    7  A    between atoms: C_12  and  C_13
DOCKED: REMARK    8  A    between atoms: C_14  and  C_22
DOCKED: REMARK                            x       y       z     vdW  Elec       q    Type
DOCKED: REMARK                         _______ _______ _______ _____ _____    ______ ____
DOCKED: USER                              x       y       z     vdW  Elec       q    Type
DOCKED: USER                           _______ _______ _______ _____ _____    ______ ____
DOCKED: ROOT
DOCKED: ATOM      1  N   UNL     1      18.610  -9.972   2.475 -0.54 -0.00    +0.000 N 
DOCKED: ATOM      2  H   UNL     1      19.399  -9.335   2.587 -0.48 -0.00    +0.000 HD
DOCKED: ATOM      3  H   UNL     1      18.321 -10.039   1.498 -0.02 -0.00    +0.000 HD
DOCKED: ENDROOT
DOCKED: BRANCH   1   4
DOCKED: ATOM      4  C   UNL     1      17.472  -9.454   3.243 -0.06 +0.00    +0.000 C 
DOCKED: BRANCH   4   8
DOCKED: ATOM      5  C   UNL     1      13.742 -10.805   1.521 -0.30 +0.00    +0.000 A 
DOCKED: ATOM      6  C   UNL     1      14.372 -11.549   2.538 -0.42 +0.00    +0.000 A 
DOCKED: ATOM      7  C   UNL     1      15.584 -11.116   3.085 -0.47 +0.00    +0.000 A 
DOCKED: ATOM      8  C   UNL     1      16.189  -9.937   2.625 -0.38 +0.00    +0.000 A 
DOCKED: ATOM      9  C   UNL     1      15.548  -9.177   1.637 -0.26 +0.00    +0.000 A 
DOCKED: ATOM     10  C   UNL     1      14.337  -9.608   1.091 -0.21 +0.00    +0.000 A 
DOCKED: BRANCH   5  12
DOCKED: ATOM     11  C   UNL     1      11.263 -10.703   1.280 -0.31 +0.00    +0.000 C 
DOCKED: ATOM     12  C   UNL     1      12.449 -11.212   0.915 -0.40 +0.00    +0.000 C 
DOCKED: BRANCH  11  14
DOCKED: ATOM     13  O   UNL     1       9.376 -10.294  -0.067 -0.20 +0.00    +0.000 OA
DOCKED: ATOM     14  C   UNL     1       9.980 -11.114   0.674 -0.33 +0.00    +0.000 C 
DOCKED: ATOM     15  N   UNL     1       9.390 -12.396   0.922 -0.35 -0.00    +0.000 N 
DOCKED: ATOM     16  O   UNL     1       8.268 -12.765   0.262 -0.38 -0.00    +0.000 OA
DOCKED: ATOM     17  H   UNL     1       9.802 -13.008   1.574 -0.51 -0.00    +0.000 HD
DOCKED: ENDBRANCH  11  14
DOCKED: ENDBRANCH   5  12
DOCKED: ENDBRANCH   4   8
DOCKED: ENDBRANCH   1   4
DOCKED: BRANCH   1  18
DOCKED: ATOM     18  C   UNL     1      19.019 -11.314   2.916 -0.63 -0.00    +0.000 C 
DOCKED: BRANCH  18  19
DOCKED: ATOM     19  C   UNL     1      19.570 -12.171   1.764 -0.72 -0.00    +0.000 C 
DOCKED: BRANCH  19  20
DOCKED: ATOM     20  C   UNL     1      19.081 -11.649   0.443 -0.53 -0.00    +0.000 A 
DOCKED: ATOM     21  C   UNL     1      17.868 -11.933  -0.185 -0.44 -0.00    +0.000 A 
DOCKED: ATOM     22  N   UNL     1      17.805 -11.335  -1.398 -0.28 -0.00    +0.000 N 
DOCKED: ATOM     23  C   UNL     1      18.975 -10.692  -1.552 -0.37 -0.00    +0.000 A 
DOCKED: ATOM     24  C   UNL     1      19.782 -10.866  -0.455 -0.50 -0.00    +0.000 A 
DOCKED: ATOM     25  C   UNL     1      21.062 -10.312  -0.391 -0.62 -0.00    +0.000 A 
DOCKED: ATOM     26  C   UNL     1      21.505  -9.555  -1.490 -0.43 -0.00    +0.000 A 
DOCKED: ATOM     27  C   UNL     1      20.672  -9.372  -2.616 -0.44 -0.00    +0.000 A 
DOCKED: ATOM     28  C   UNL     1      19.390  -9.947  -2.656 -0.29 -0.00    +0.000 A 
DOCKED: ATOM     29  C   UNL     1      16.765 -12.768   0.385 -0.52 +0.00    +0.000 C 
DOCKED: ATOM     30  H   UNL     1      17.055 -11.364  -2.036 +0.00 -0.00    +0.000 HD
DOCKED: ENDBRANCH  19  20
DOCKED: ENDBRANCH  18  19
DOCKED: ENDBRANCH   1  18
DOCKED: TORSDOF 7
DOCKED: TER
DOCKED: ENDMDL
________________________________________________________________________________


	BEGINNING GENETIC ALGORITHM DOCKING 64 of 100
Run: 64 Seed: 1210790879 1930558686 [ Run 64 of 100 GA/GALS ]
Beginning LAMARCKIAN GENETIC ALGORITHM (LGA), with a maximum of 2500000 energy evaluations.

Final-Value: -14.287


	FINAL GENETIC ALGORITHM DOCKED STATE
	_______________________________________________


Detailed state:  trans 22.350 -8.771 -5.602 quatxyzw 0.560892 0.080302 0.823949 -0.007802 center 0.576 -0.005 0.140 ntor 7 -118.3305 -54.9740 156.6504 48.6109 157.8835 179.1616 -27.1831
State:	 22.350  -8.771  -5.602   0.561  0.080  0.824 -179.106   -118.33  -54.97  156.65   48.61  157.88  179.16  -27.18

DOCKED: MODEL       64
DOCKED: USER    Run = 64
DOCKED: USER    DPF = ligand_dock.biased.dpf
DOCKED: USER  
DOCKED: USER    Estimated Free Energy of Binding    =  -11.21 kcal/mol  [=(1)+(2)+(3)-(4)]
DOCKED: USER    Estimated Inhibition Constant, Ki   =    6.09 nM (nanomolar)  [Temperature = 298.15 K]
DOCKED: USER    
DOCKED: USER    (1) Final Intermolecular Energy     =  -13.30 kcal/mol
DOCKED: USER        vdW + Hbond + desolv Energy     =  -13.30 kcal/mol
DOCKED: USER        Electrostatic Energy            =   +0.00 kcal/mol
DOCKED: USER    (2) Final Total Internal Energy     =   -0.99 kcal/mol
DOCKED: USER    (3) Torsional Free Energy           =   +2.09 kcal/mol
DOCKED: USER    (4) Unbound System's Energy  [=(2)] =   -0.99 kcal/mol
DOCKED: USER    
DOCKED: USER    
DOCKED: USER    NEWDPF move ligand.pdbqt
DOCKED: USER    NEWDPF about 0.576000 -0.005000 0.140000
DOCKED: USER    NEWDPF tran0 22.350423 -8.770847 -5.602290
DOCKED: USER    NEWDPF quaternion0 0.560892 0.080302 0.823949 -0.007802
DOCKED: USER    NEWDPF axisangle0 0.560909 0.080304 0.823974 -179.105891
DOCKED: USER    NEWDPF quat0 0.560909 0.080304 0.823974 -179.105891
DOCKED: USER    NEWDPF dihe0 -118.33 -54.97 156.65 48.61 157.88 179.16 -27.18 
DOCKED: USER  keepresnum = 1 
DOCKED: USER  
DOCKED: REMARK  Name = 
DOCKED: REMARK  8 active torsions:
DOCKED: REMARK  status: ('A' for Active; 'I' for Inactive)
DOCKED: REMARK    1  A    between atoms: C_2  and  C_3
DOCKED: REMARK    2  A    between atoms: C_4  and  C_5
DOCKED: REMARK    3  A    between atoms: C_8  and  C_9
DOCKED: REMARK    4  A    between atoms: C_9  and  N_10
DOCKED: REMARK    5  A    between atoms: N_10  and  C_11
DOCKED: REMARK    6  A    between atoms: C_11  and  C_12
DOCKED: REMARK    7  A    between atoms: C_12  and  C_13
DOCKED: REMARK    8  A    between atoms: C_14  and  C_22
DOCKED: REMARK                            x       y       z     vdW  Elec       q    Type
DOCKED: REMARK                         _______ _______ _______ _____ _____    ______ ____
DOCKED: USER                              x       y       z     vdW  Elec       q    Type
DOCKED: USER                           _______ _______ _______ _____ _____    ______ ____
DOCKED: ROOT
DOCKED: ATOM      1  N   UNL     1      22.906  -8.925  -6.130 -0.24 -0.00    +0.000 N 
DOCKED: ATOM      2  H   UNL     1      23.314  -9.497  -5.391 -0.00 -0.00    +0.000 HD
DOCKED: ATOM      3  H   UNL     1      23.238  -7.962  -6.084 -0.02 -0.00    +0.000 HD
DOCKED: ENDROOT
DOCKED: BRANCH   1   4
DOCKED: ATOM      4  C   UNL     1      21.448  -8.905  -5.960 -0.25 -0.00    +0.000 C 
DOCKED: BRANCH   4   8
DOCKED: ATOM      5  C   UNL     1      20.384 -10.043  -1.924 -0.48 -0.00    +0.000 A 
DOCKED: ATOM      6  C   UNL     1      21.003  -8.802  -2.180 -0.46 -0.00    +0.000 A 
DOCKED: ATOM      7  C   UNL     1      21.357  -8.443  -3.484 -0.36 -0.00    +0.000 A 
DOCKED: ATOM      8  C   UNL     1      21.102  -9.312  -4.554 -0.32 -0.00    +0.000 A 
DOCKED: ATOM      9  C   UNL     1      20.456 -10.533  -4.308 -0.41 -0.00    +0.000 A 
DOCKED: ATOM     10  C   UNL     1      20.102 -10.893  -3.006 -0.40 -0.00    +0.000 A 
DOCKED: BRANCH   5  12
DOCKED: ATOM     11  C   UNL     1      20.835 -10.937   0.358 -0.69 -0.00    +0.000 C 
DOCKED: ATOM     12  C   UNL     1      19.977 -10.469  -0.562 -0.57 -0.00    +0.000 C 
DOCKED: BRANCH  11  14
DOCKED: ATOM     13  O   UNL     1      19.886 -12.493   1.848 -1.75 -0.00    +0.000 OA
DOCKED: ATOM     14  C   UNL     1      20.424 -11.362   1.711 -0.76 -0.00    +0.000 C 
DOCKED: ATOM     15  N   UNL     1      20.591 -10.524   2.862 -0.63 -0.00    +0.000 N 
DOCKED: ATOM     16  O   UNL     1      20.295 -10.999   4.095 -1.09 -0.00    +0.000 OA
DOCKED: ATOM     17  H   UNL     1      20.921  -9.603   2.756 -0.58 -0.00    +0.000 HD
DOCKED: ENDBRANCH  11  14
DOCKED: ENDBRANCH   5  12
DOCKED: ENDBRANCH   4   8
DOCKED: ENDBRANCH   1   4
DOCKED: BRANCH   1  18
DOCKED: ATOM     18  C   UNL     1      23.309  -9.477  -7.432 -0.26 -0.00    +0.000 C 
DOCKED: BRANCH  18  19
DOCKED: ATOM     19  C   UNL     1      23.933 -10.877  -7.311 -0.35 -0.00    +0.000 C 
DOCKED: BRANCH  19  20
DOCKED: ATOM     20  C   UNL     1      25.164 -10.977  -8.166 -0.36 -0.00    +0.000 A 
DOCKED: ATOM     21  C   UNL     1      25.345 -11.763  -9.305 -0.34 -0.00    +0.000 A 
DOCKED: ATOM     22  N   UNL     1      26.610 -11.646  -9.772 -0.22 -0.00    +0.000 N 
DOCKED: ATOM     23  C   UNL     1      27.238 -10.809  -8.927 -0.34 -0.00    +0.000 A 
DOCKED: ATOM     24  C   UNL     1      26.392 -10.386  -7.932 -0.35 -0.00    +0.000 A 
DOCKED: ATOM     25  C   UNL     1      26.823  -9.528  -6.919 -0.29 -0.00    +0.000 A 
DOCKED: ATOM     26  C   UNL     1      28.161  -9.095  -6.950 -0.43 -0.00    +0.000 A 
DOCKED: ATOM     27  C   UNL     1      29.029  -9.527  -7.978 -0.37 -0.00    +0.000 A 
DOCKED: ATOM     28  C   UNL     1      28.569 -10.397  -8.982 -0.35 -0.00    +0.000 A 
DOCKED: ATOM     29  C   UNL     1      24.300 -12.616  -9.950 -0.35 -0.00    +0.000 C 
DOCKED: ATOM     30  H   UNL     1      26.993 -12.084 -10.567 -0.29 -0.00    +0.000 HD
DOCKED: ENDBRANCH  19  20
DOCKED: ENDBRANCH  18  19
DOCKED: ENDBRANCH   1  18
DOCKED: TORSDOF 7
DOCKED: TER
DOCKED: ENDMDL
________________________________________________________________________________


	BEGINNING GENETIC ALGORITHM DOCKING 65 of 100
Run: 65 Seed: 240296021 415483631 [ Run 65 of 100 GA/GALS ]
Beginning LAMARCKIAN GENETIC ALGORITHM (LGA), with a maximum of 2500000 energy evaluations.

Final-Value: -14.440


	FINAL GENETIC ALGORITHM DOCKED STATE
	_______________________________________________


Detailed state:  trans 21.183 -8.554 -6.001 quatxyzw -0.168840 -0.881327 0.309734 -0.314358 center 0.576 -0.005 0.140 ntor 7 165.0486 -163.5775 143.4163 6.3933 93.6790 34.4302 74.2853
State:	 21.183  -8.554  -6.001  -0.178 -0.928  0.326 -143.356    165.05 -163.58  143.42    6.39   93.68   34.43   74.29

DOCKED: MODEL       65
DOCKED: USER    Run = 65
DOCKED: USER    DPF = ligand_dock.biased.dpf
DOCKED: USER  
DOCKED: USER    Estimated Free Energy of Binding    =  -11.43 kcal/mol  [=(1)+(2)+(3)-(4)]
DOCKED: USER    Estimated Inhibition Constant, Ki   =    4.22 nM (nanomolar)  [Temperature = 298.15 K]
DOCKED: USER    
DOCKED: USER    (1) Final Intermolecular Energy     =  -13.51 kcal/mol
DOCKED: USER        vdW + Hbond + desolv Energy     =  -13.51 kcal/mol
DOCKED: USER        Electrostatic Energy            =   +0.00 kcal/mol
DOCKED: USER    (2) Final Total Internal Energy     =   -0.93 kcal/mol
DOCKED: USER    (3) Torsional Free Energy           =   +2.09 kcal/mol
DOCKED: USER    (4) Unbound System's Energy  [=(2)] =   -0.93 kcal/mol
DOCKED: USER    
DOCKED: USER    
DOCKED: USER    NEWDPF move ligand.pdbqt
DOCKED: USER    NEWDPF about 0.576000 -0.005000 0.140000
DOCKED: USER    NEWDPF tran0 21.183103 -8.553872 -6.001002
DOCKED: USER    NEWDPF quaternion0 -0.168840 -0.881327 0.309734 -0.314358
DOCKED: USER    NEWDPF axisangle0 -0.177857 -0.928392 0.326274 -143.355872
DOCKED: USER    NEWDPF quat0 -0.177857 -0.928392 0.326274 -143.355872
DOCKED: USER    NEWDPF dihe0 165.05 -163.58 143.42 6.39 93.68 34.43 74.29 
DOCKED: USER  keepresnum = 1 
DOCKED: USER  
DOCKED: REMARK  Name = 
DOCKED: REMARK  8 active torsions:
DOCKED: REMARK  status: ('A' for Active; 'I' for Inactive)
DOCKED: REMARK    1  A    between atoms: C_2  and  C_3
DOCKED: REMARK    2  A    between atoms: C_4  and  C_5
DOCKED: REMARK    3  A    between atoms: C_8  and  C_9
DOCKED: REMARK    4  A    between atoms: C_9  and  N_10
DOCKED: REMARK    5  A    between atoms: N_10  and  C_11
DOCKED: REMARK    6  A    between atoms: C_11  and  C_12
DOCKED: REMARK    7  A    between atoms: C_12  and  C_13
DOCKED: REMARK    8  A    between atoms: C_14  and  C_22
DOCKED: REMARK                            x       y       z     vdW  Elec       q    Type
DOCKED: REMARK                         _______ _______ _______ _____ _____    ______ ____
DOCKED: USER                              x       y       z     vdW  Elec       q    Type
DOCKED: USER                           _______ _______ _______ _____ _____    ______ ____
DOCKED: ROOT
DOCKED: ATOM      1  N   UNL     1      21.522  -8.947  -6.585 -0.18 -0.00    +0.000 N 
DOCKED: ATOM      2  H   UNL     1      20.866  -8.440  -7.179 +0.00 -0.00    +0.000 HD
DOCKED: ATOM      3  H   UNL     1      21.122  -9.822  -6.248 +0.00 -0.00    +0.000 HD
DOCKED: ENDROOT
DOCKED: BRANCH   1   4
DOCKED: ATOM      4  C   UNL     1      21.837  -8.118  -5.415 -0.24 -0.00    +0.000 C 
DOCKED: BRANCH   4   8
DOCKED: ATOM      5  C   UNL     1      20.782 -10.257  -1.806 -0.52 -0.00    +0.000 A 
DOCKED: ATOM      6  C   UNL     1      20.698 -10.888  -3.063 -0.39 -0.00    +0.000 A 
DOCKED: ATOM      7  C   UNL     1      21.029 -10.190  -4.229 -0.41 -0.00    +0.000 A 
DOCKED: ATOM      8  C   UNL     1      21.444  -8.852  -4.163 -0.32 -0.00    +0.000 A 
DOCKED: ATOM      9  C   UNL     1      21.560  -8.231  -2.910 -0.34 -0.00    +0.000 A 
DOCKED: ATOM     10  C   UNL     1      21.232  -8.927  -1.745 -0.48 -0.00    +0.000 A 
DOCKED: BRANCH   5  12
DOCKED: ATOM     11  C   UNL     1      20.643 -10.414   0.678 -0.68 -0.00    +0.000 C 
DOCKED: ATOM     12  C   UNL     1      20.455 -10.953  -0.537 -0.54 -0.00    +0.000 C 
DOCKED: BRANCH  11  14
DOCKED: ATOM     13  O   UNL     1      19.870 -12.289   1.874 -1.79 -0.00    +0.000 OA
DOCKED: ATOM     14  C   UNL     1      20.318 -11.113   1.937 -0.74 -0.00    +0.000 C 
DOCKED: ATOM     15  N   UNL     1      20.468 -10.492   3.221 -0.66 -0.00    +0.000 N 
DOCKED: ATOM     16  O   UNL     1      20.257 -11.209   4.349 -1.02 -0.00    +0.000 OA
DOCKED: ATOM     17  H   UNL     1      20.725  -9.544   3.280 -0.59 -0.00    +0.000 HD
DOCKED: ENDBRANCH  11  14
DOCKED: ENDBRANCH   5  12
DOCKED: ENDBRANCH   4   8
DOCKED: ENDBRANCH   1   4
DOCKED: BRANCH   1  18
DOCKED: ATOM     18  C   UNL     1      22.718  -9.275  -7.376 -0.23 -0.00    +0.000 C 
DOCKED: BRANCH  18  19
DOCKED: ATOM     19  C   UNL     1      23.140 -10.745  -7.224 -0.39 -0.00    +0.000 C 
DOCKED: BRANCH  19  20
DOCKED: ATOM     20  C   UNL     1      24.392 -11.015  -8.009 -0.36 -0.00    +0.000 A 
DOCKED: ATOM     21  C   UNL     1      24.592 -12.006  -8.971 -0.38 -0.00    +0.000 A 
DOCKED: ATOM     22  N   UNL     1      25.871 -11.988  -9.416 -0.36 -0.00    +0.000 N 
DOCKED: ATOM     23  C   UNL     1      26.486 -11.010  -8.731 -0.35 -0.00    +0.000 A 
DOCKED: ATOM     24  C   UNL     1      25.620 -10.398  -7.859 -0.33 -0.00    +0.000 A 
DOCKED: ATOM     25  C   UNL     1      26.034  -9.364  -7.018 -0.23 -0.00    +0.000 A 
DOCKED: ATOM     26  C   UNL     1      27.377  -8.954  -7.094 -0.38 -0.00    +0.000 A 
DOCKED: ATOM     27  C   UNL     1      28.267  -9.580  -7.995 -0.37 -0.00    +0.000 A 
DOCKED: ATOM     28  C   UNL     1      27.823 -10.624  -8.826 -0.36 -0.00    +0.000 A 
DOCKED: ATOM     29  C   UNL     1      23.555 -12.961  -9.470 -0.42 -0.00    +0.000 C 
DOCKED: ATOM     30  H   UNL     1      26.268 -12.573 -10.102 -0.46 -0.00    +0.000 HD
DOCKED: ENDBRANCH  19  20
DOCKED: ENDBRANCH  18  19
DOCKED: ENDBRANCH   1  18
DOCKED: TORSDOF 7
DOCKED: TER
DOCKED: ENDMDL
________________________________________________________________________________


	BEGINNING GENETIC ALGORITHM DOCKING 66 of 100
Run: 66 Seed: 824787837 354801459 [ Run 66 of 100 GA/GALS ]
Beginning LAMARCKIAN GENETIC ALGORITHM (LGA), with a maximum of 2500000 energy evaluations.

Final-Value: -13.234


	FINAL GENETIC ALGORITHM DOCKED STATE
	_______________________________________________


Detailed state:  trans 19.800 -11.435 -5.694 quatxyzw 0.335595 -0.597274 0.093358 -0.722443 center 0.576 -0.005 0.140 ntor 7 -171.5248 -107.8962 -166.8877 138.4592 -74.5417 176.8606 -33.6157
State:	 19.800 -11.435  -5.694   0.485 -0.864  0.135 -87.487   -171.52 -107.90 -166.89  138.46  -74.54  176.86  -33.62

DOCKED: MODEL       66
DOCKED: USER    Run = 66
DOCKED: USER    DPF = ligand_dock.biased.dpf
DOCKED: USER  
DOCKED: USER    Estimated Free Energy of Binding    =   -9.24 kcal/mol  [=(1)+(2)+(3)-(4)]
DOCKED: USER    Estimated Inhibition Constant, Ki   =  168.51 nM (nanomolar)  [Temperature = 298.15 K]
DOCKED: USER    
DOCKED: USER    (1) Final Intermolecular Energy     =  -11.33 kcal/mol
DOCKED: USER        vdW + Hbond + desolv Energy     =  -11.33 kcal/mol
DOCKED: USER        Electrostatic Energy            =   +0.00 kcal/mol
DOCKED: USER    (2) Final Total Internal Energy     =   -1.91 kcal/mol
DOCKED: USER    (3) Torsional Free Energy           =   +2.09 kcal/mol
DOCKED: USER    (4) Unbound System's Energy  [=(2)] =   -1.91 kcal/mol
DOCKED: USER    
DOCKED: USER    
DOCKED: USER    NEWDPF move ligand.pdbqt
DOCKED: USER    NEWDPF about 0.576000 -0.005000 0.140000
DOCKED: USER    NEWDPF tran0 19.799589 -11.435223 -5.694281
DOCKED: USER    NEWDPF quaternion0 0.335595 -0.597274 0.093358 -0.722443
DOCKED: USER    NEWDPF axisangle0 0.485364 -0.863824 0.135022 -87.486883
DOCKED: USER    NEWDPF quat0 0.485364 -0.863824 0.135022 -87.486883
DOCKED: USER    NEWDPF dihe0 -171.52 -107.90 -166.89 138.46 -74.54 176.86 -33.62 
DOCKED: USER  keepresnum = 1 
DOCKED: USER  
DOCKED: REMARK  Name = 
DOCKED: REMARK  8 active torsions:
DOCKED: REMARK  status: ('A' for Active; 'I' for Inactive)
DOCKED: REMARK    1  A    between atoms: C_2  and  C_3
DOCKED: REMARK    2  A    between atoms: C_4  and  C_5
DOCKED: REMARK    3  A    between atoms: C_8  and  C_9
DOCKED: REMARK    4  A    between atoms: C_9  and  N_10
DOCKED: REMARK    5  A    between atoms: N_10  and  C_11
DOCKED: REMARK    6  A    between atoms: C_11  and  C_12
DOCKED: REMARK    7  A    between atoms: C_12  and  C_13
DOCKED: REMARK    8  A    between atoms: C_14  and  C_22
DOCKED: REMARK                            x       y       z     vdW  Elec       q    Type
DOCKED: REMARK                         _______ _______ _______ _____ _____    ______ ____
DOCKED: USER                              x       y       z     vdW  Elec       q    Type
DOCKED: USER                           _______ _______ _______ _____ _____    ______ ____
DOCKED: ROOT
DOCKED: ATOM      1  N   UNL     1      19.299 -11.338  -6.287 -0.36 -0.00    +0.000 N 
DOCKED: ATOM      2  H   UNL     1      18.593 -11.274  -5.553 -0.03 -0.00    +0.000 HD
DOCKED: ATOM      3  H   UNL     1      19.442 -12.303  -6.585 -0.30 -0.00    +0.000 HD
DOCKED: ENDROOT
DOCKED: BRANCH   1   4
DOCKED: ATOM      4  C   UNL     1      20.575 -10.839  -5.758 -0.42 -0.00    +0.000 C 
DOCKED: BRANCH   4   8
DOCKED: ATOM      5  C   UNL     1      20.251 -10.383  -1.469 -0.49 -0.00    +0.000 A 
DOCKED: ATOM      6  C   UNL     1      21.269  -9.722  -2.185 -0.50 -0.00    +0.000 A 
DOCKED: ATOM      7  C   UNL     1      21.378  -9.881  -3.570 -0.44 -0.00    +0.000 A 
DOCKED: ATOM      8  C   UNL     1      20.479 -10.703  -4.264 -0.43 -0.00    +0.000 A 
DOCKED: ATOM      9  C   UNL     1      19.444 -11.336  -3.559 -0.32 -0.00    +0.000 A 
DOCKED: ATOM     10  C   UNL     1      19.333 -11.177  -2.176 -0.29 -0.00    +0.000 A 
DOCKED: BRANCH   5  12
DOCKED: ATOM     11  C   UNL     1      19.942 -11.279   0.836 -0.69 -0.00    +0.000 C 
DOCKED: ATOM     12  C   UNL     1      20.082 -10.240  -0.002 -0.58 -0.00    +0.000 C 
DOCKED: BRANCH  11  14
DOCKED: ATOM     13  O   UNL     1      19.285 -10.056   2.737 -0.68 -0.00    +0.000 OA
DOCKED: ATOM     14  C   UNL     1      19.772 -11.131   2.295 -0.72 -0.00    +0.000 C 
DOCKED: ATOM     15  N   UNL     1      20.166 -12.151   3.222 -0.56 -0.00    +0.000 N 
DOCKED: ATOM     16  O   UNL     1      19.894 -12.012   4.540 -1.00 -0.00    +0.000 OA
DOCKED: ATOM     17  H   UNL     1      20.635 -12.953   2.898 -0.60 -0.00    +0.000 HD
DOCKED: ENDBRANCH  11  14
DOCKED: ENDBRANCH   5  12
DOCKED: ENDBRANCH   4   8
DOCKED: ENDBRANCH   1   4
DOCKED: BRANCH   1  18
DOCKED: ATOM     18  C   UNL     1      18.839 -10.570  -7.453 -0.30 -0.00    +0.000 C 
DOCKED: BRANCH  18  19
DOCKED: ATOM     19  C   UNL     1      17.599  -9.714  -7.145 -0.17 -0.00    +0.000 C 
DOCKED: BRANCH  19  20
DOCKED: ATOM     20  C   UNL     1      16.584 -10.519  -6.386 -0.22 -0.00    +0.000 A 
DOCKED: ATOM     21  C   UNL     1      15.721 -11.492  -6.893 -0.29 -0.00    +0.000 A 
DOCKED: ATOM     22  N   UNL     1      14.898 -11.955  -5.923 -0.31 -0.00    +0.000 N 
DOCKED: ATOM     23  C   UNL     1      15.217 -11.269  -4.812 -0.22 -0.00    +0.000 A 
DOCKED: ATOM     24  C   UNL     1      16.235 -10.380  -5.056 -0.21 -0.00    +0.000 A 
DOCKED: ATOM     25  C   UNL     1      16.725  -9.536  -4.058 -0.20 -0.00    +0.000 A 
DOCKED: ATOM     26  C   UNL     1      16.148  -9.627  -2.779 -0.19 -0.00    +0.000 A 
DOCKED: ATOM     27  C   UNL     1      15.105 -10.546  -2.527 -0.26 -0.00    +0.000 A 
DOCKED: ATOM     28  C   UNL     1      14.626 -11.379  -3.554 -0.23 -0.00    +0.000 A 
DOCKED: ATOM     29  C   UNL     1      15.696 -11.985  -8.305 -0.30 -0.00    +0.000 C 
DOCKED: ATOM     30  H   UNL     1      14.207 -12.651  -6.013 -0.03 -0.00    +0.000 HD
DOCKED: ENDBRANCH  19  20
DOCKED: ENDBRANCH  18  19
DOCKED: ENDBRANCH   1  18
DOCKED: TORSDOF 7
DOCKED: TER
DOCKED: ENDMDL
________________________________________________________________________________


	BEGINNING GENETIC ALGORITHM DOCKING 67 of 100
Run: 67 Seed: 1923638070 1463908995 [ Run 67 of 100 GA/GALS ]
Beginning LAMARCKIAN GENETIC ALGORITHM (LGA), with a maximum of 2500000 energy evaluations.

Final-Value: -14.499


	FINAL GENETIC ALGORITHM DOCKED STATE
	_______________________________________________


Detailed state:  trans 14.467 -12.101 0.583 quatxyzw -0.158040 -0.974733 -0.150939 -0.046224 center 0.576 -0.005 0.140 ntor 7 128.0291 -61.8801 176.6981 16.9655 166.6918 -166.6367 -82.1489
State:	 14.467 -12.101   0.583  -0.158 -0.976 -0.151 -174.701    128.03  -61.88  176.70   16.97  166.69 -166.64  -82.15

DOCKED: MODEL       67
DOCKED: USER    Run = 67
DOCKED: USER    DPF = ligand_dock.biased.dpf
DOCKED: USER  
DOCKED: USER    Estimated Free Energy of Binding    =  -11.15 kcal/mol  [=(1)+(2)+(3)-(4)]
DOCKED: USER    Estimated Inhibition Constant, Ki   =    6.72 nM (nanomolar)  [Temperature = 298.15 K]
DOCKED: USER    
DOCKED: USER    (1) Final Intermolecular Energy     =  -13.24 kcal/mol
DOCKED: USER        vdW + Hbond + desolv Energy     =  -13.24 kcal/mol
DOCKED: USER        Electrostatic Energy            =   +0.00 kcal/mol
DOCKED: USER    (2) Final Total Internal Energy     =   -1.26 kcal/mol
DOCKED: USER    (3) Torsional Free Energy           =   +2.09 kcal/mol
DOCKED: USER    (4) Unbound System's Energy  [=(2)] =   -1.26 kcal/mol
DOCKED: USER    
DOCKED: USER    
DOCKED: USER    NEWDPF move ligand.pdbqt
DOCKED: USER    NEWDPF about 0.576000 -0.005000 0.140000
DOCKED: USER    NEWDPF tran0 14.466631 -12.101257 0.583168
DOCKED: USER    NEWDPF quaternion0 -0.158040 -0.974733 -0.150939 -0.046224
DOCKED: USER    NEWDPF axisangle0 -0.158209 -0.975776 -0.151101 -174.701287
DOCKED: USER    NEWDPF quat0 -0.158209 -0.975776 -0.151101 -174.701287
DOCKED: USER    NEWDPF dihe0 128.03 -61.88 176.70 16.97 166.69 -166.64 -82.15 
DOCKED: USER  keepresnum = 1 
DOCKED: USER  
DOCKED: REMARK  Name = 
DOCKED: REMARK  8 active torsions:
DOCKED: REMARK  status: ('A' for Active; 'I' for Inactive)
DOCKED: REMARK    1  A    between atoms: C_2  and  C_3
DOCKED: REMARK    2  A    between atoms: C_4  and  C_5
DOCKED: REMARK    3  A    between atoms: C_8  and  C_9
DOCKED: REMARK    4  A    between atoms: C_9  and  N_10
DOCKED: REMARK    5  A    between atoms: N_10  and  C_11
DOCKED: REMARK    6  A    between atoms: C_11  and  C_12
DOCKED: REMARK    7  A    between atoms: C_12  and  C_13
DOCKED: REMARK    8  A    between atoms: C_14  and  C_22
DOCKED: REMARK                            x       y       z     vdW  Elec       q    Type
DOCKED: REMARK                         _______ _______ _______ _____ _____    ______ ____
DOCKED: USER                              x       y       z     vdW  Elec       q    Type
DOCKED: USER                           _______ _______ _______ _____ _____    ______ ____
DOCKED: ROOT
DOCKED: ATOM      1  N   UNL     1      15.163 -12.106   0.229 -0.43 +0.00    +0.000 N 
DOCKED: ATOM      2  H   UNL     1      14.918 -11.157  -0.054 +0.00 +0.00    +0.000 HD
DOCKED: ATOM      3  H   UNL     1      14.830 -12.795  -0.447 -0.03 +0.00    +0.000 HD
DOCKED: ENDROOT
DOCKED: BRANCH   1   4
DOCKED: ATOM      4  C   UNL     1      14.521 -12.396   1.516 -0.35 +0.00    +0.000 C 
DOCKED: BRANCH   4   8
DOCKED: ATOM      5  C   UNL     1      14.441  -8.854   3.997 -0.33 +0.00    +0.000 A 
DOCKED: ATOM      6  C   UNL     1      13.496  -9.027   2.965 -0.21 +0.00    +0.000 A 
DOCKED: ATOM      7  C   UNL     1      13.532 -10.168   2.158 -0.26 +0.00    +0.000 A 
DOCKED: ATOM      8  C   UNL     1      14.510 -11.152   2.361 -0.40 +0.00    +0.000 A 
DOCKED: ATOM      9  C   UNL     1      15.431 -10.999   3.409 -0.47 +0.00    +0.000 A 
DOCKED: ATOM     10  C   UNL     1      15.395  -9.861   4.217 -0.35 +0.00    +0.000 A 
DOCKED: BRANCH   5  12
DOCKED: ATOM     11  C   UNL     1      15.031  -6.504   4.583 -0.45 +0.00    +0.000 C 
DOCKED: ATOM     12  C   UNL     1      14.441  -7.669   4.892 -0.42 +0.00    +0.000 C 
DOCKED: BRANCH  11  14
DOCKED: ATOM     13  O   UNL     1      14.009  -5.113   6.184 -1.01 +0.00    +0.000 OA
DOCKED: ATOM     14  C   UNL     1      15.030  -5.329   5.478 -0.47 +0.00    +0.000 C 
DOCKED: ATOM     15  N   UNL     1      16.134  -4.418   5.550 -0.51 -0.00    +0.000 N 
DOCKED: ATOM     16  O   UNL     1      16.129  -3.417   6.461 -0.68 +0.00    +0.000 OA
DOCKED: ATOM     17  H   UNL     1      16.896  -4.521   4.936 -0.55 -0.00    +0.000 HD
DOCKED: ENDBRANCH  11  14
DOCKED: ENDBRANCH   5  12
DOCKED: ENDBRANCH   4   8
DOCKED: ENDBRANCH   1   4
DOCKED: BRANCH   1  18
DOCKED: ATOM     18  C   UNL     1      16.628 -12.215   0.297 -0.51 +0.00    +0.000 C 
DOCKED: BRANCH  18  19
DOCKED: ATOM     19  C   UNL     1      17.307 -10.867   0.589 -0.41 -0.00    +0.000 C 
DOCKED: BRANCH  19  20
DOCKED: ATOM     20  C   UNL     1      18.786 -10.962   0.348 -0.45 -0.00    +0.000 A 
DOCKED: ATOM     21  C   UNL     1      19.779 -11.268   1.279 -0.62 -0.00    +0.000 A 
DOCKED: ATOM     22  N   UNL     1      21.006 -11.194   0.711 -0.67 -0.00    +0.000 N 
DOCKED: ATOM     23  C   UNL     1      20.800 -10.823  -0.564 -0.53 -0.00    +0.000 A 
DOCKED: ATOM     24  C   UNL     1      19.461 -10.665  -0.822 -0.44 -0.00    +0.000 A 
DOCKED: ATOM     25  C   UNL     1      18.998 -10.260  -2.074 -0.25 -0.00    +0.000 A 
DOCKED: ATOM     26  C   UNL     1      19.951 -10.023  -3.081 -0.39 -0.00    +0.000 A 
DOCKED: ATOM     27  C   UNL     1      21.329 -10.191  -2.817 -0.48 -0.00    +0.000 A 
DOCKED: ATOM     28  C   UNL     1      21.766 -10.594  -1.543 -0.35 -0.00    +0.000 A 
DOCKED: ATOM     29  C   UNL     1      19.550 -11.643   2.708 -0.73 -0.00    +0.000 C 
DOCKED: ATOM     30  H   UNL     1      21.872 -11.374   1.145 -0.51 -0.00    +0.000 HD
DOCKED: ENDBRANCH  19  20
DOCKED: ENDBRANCH  18  19
DOCKED: ENDBRANCH   1  18
DOCKED: TORSDOF 7
DOCKED: TER
DOCKED: ENDMDL
________________________________________________________________________________


	BEGINNING GENETIC ALGORITHM DOCKING 68 of 100
Run: 68 Seed: 2027287874 588983208 [ Run 68 of 100 GA/GALS ]
Beginning LAMARCKIAN GENETIC ALGORITHM (LGA), with a maximum of 2500000 energy evaluations.

Final-Value: -12.681


	FINAL GENETIC ALGORITHM DOCKED STATE
	_______________________________________________


Detailed state:  trans 11.098 -8.992 4.043 quatxyzw 0.245393 0.133938 -0.733960 -0.618987 center 0.576 -0.005 0.140 ntor 7 132.0048 171.8689 -59.6325 55.0921 -44.3994 -65.4266 -82.3059
State:	 11.098  -8.992   4.043   0.312  0.171 -0.935 -103.516    132.00  171.87  -59.63   55.09  -44.40  -65.43  -82.31

DOCKED: MODEL       68
DOCKED: USER    Run = 68
DOCKED: USER    DPF = ligand_dock.biased.dpf
DOCKED: USER  
DOCKED: USER    Estimated Free Energy of Binding    =   -9.06 kcal/mol  [=(1)+(2)+(3)-(4)]
DOCKED: USER    Estimated Inhibition Constant, Ki   =  228.19 nM (nanomolar)  [Temperature = 298.15 K]
DOCKED: USER    
DOCKED: USER    (1) Final Intermolecular Energy     =  -11.15 kcal/mol
DOCKED: USER        vdW + Hbond + desolv Energy     =  -11.15 kcal/mol
DOCKED: USER        Electrostatic Energy            =   +0.00 kcal/mol
DOCKED: USER    (2) Final Total Internal Energy     =   -1.53 kcal/mol
DOCKED: USER    (3) Torsional Free Energy           =   +2.09 kcal/mol
DOCKED: USER    (4) Unbound System's Energy  [=(2)] =   -1.53 kcal/mol
DOCKED: USER    
DOCKED: USER    
DOCKED: USER    NEWDPF move ligand.pdbqt
DOCKED: USER    NEWDPF about 0.576000 -0.005000 0.140000
DOCKED: USER    NEWDPF tran0 11.098384 -8.992008 4.043262
DOCKED: USER    NEWDPF quaternion0 0.245393 0.133938 -0.733960 -0.618987
DOCKED: USER    NEWDPF axisangle0 0.312442 0.170535 -0.934504 -103.515538
DOCKED: USER    NEWDPF quat0 0.312442 0.170535 -0.934504 -103.515538
DOCKED: USER    NEWDPF dihe0 132.00 171.87 -59.63 55.09 -44.40 -65.43 -82.31 
DOCKED: USER  keepresnum = 1 
DOCKED: USER  
DOCKED: REMARK  Name = 
DOCKED: REMARK  8 active torsions:
DOCKED: REMARK  status: ('A' for Active; 'I' for Inactive)
DOCKED: REMARK    1  A    between atoms: C_2  and  C_3
DOCKED: REMARK    2  A    between atoms: C_4  and  C_5
DOCKED: REMARK    3  A    between atoms: C_8  and  C_9
DOCKED: REMARK    4  A    between atoms: C_9  and  N_10
DOCKED: REMARK    5  A    between atoms: N_10  and  C_11
DOCKED: REMARK    6  A    between atoms: C_11  and  C_12
DOCKED: REMARK    7  A    between atoms: C_12  and  C_13
DOCKED: REMARK    8  A    between atoms: C_14  and  C_22
DOCKED: REMARK                            x       y       z     vdW  Elec       q    Type
DOCKED: REMARK                         _______ _______ _______ _____ _____    ______ ____
DOCKED: USER                              x       y       z     vdW  Elec       q    Type
DOCKED: USER                           _______ _______ _______ _____ _____    ______ ____
DOCKED: ROOT
DOCKED: ATOM      1  N   UNL     1      11.237  -8.571   4.687 -0.24 +0.00    +0.000 N 
DOCKED: ATOM      2  H   UNL     1      11.754  -9.394   4.997 -0.02 +0.00    +0.000 HD
DOCKED: ATOM      3  H   UNL     1      10.253  -8.627   4.953 -0.01 +0.00    +0.000 HD
DOCKED: ENDROOT
DOCKED: BRANCH   1   4
DOCKED: ATOM      4  C   UNL     1      11.302  -8.496   3.222 -0.15 +0.00    +0.000 C 
DOCKED: BRANCH   4   8
DOCKED: ATOM      5  C   UNL     1      15.219  -9.809   1.940 -0.29 +0.00    +0.000 A 
DOCKED: ATOM      6  C   UNL     1      14.668  -8.608   1.447 -0.24 +0.00    +0.000 A 
DOCKED: ATOM      7  C   UNL     1      13.396  -8.193   1.855 -0.15 +0.00    +0.000 A 
DOCKED: ATOM      8  C   UNL     1      12.651  -8.967   2.756 -0.16 +0.00    +0.000 A 
DOCKED: ATOM      9  C   UNL     1      13.210 -10.144   3.275 -0.17 +0.00    +0.000 A 
DOCKED: ATOM     10  C   UNL     1      14.480 -10.560   2.870 -0.36 +0.00    +0.000 A 
DOCKED: BRANCH   5  12
DOCKED: ATOM     11  C   UNL     1      17.359 -11.016   2.356 -0.48 +0.00    +0.000 C 
DOCKED: ATOM     12  C   UNL     1      16.568 -10.290   1.551 -0.38 +0.00    +0.000 C 
DOCKED: BRANCH  11  14
DOCKED: ATOM     13  O   UNL     1      18.915 -11.755   0.751 -0.79 -0.00    +0.000 OA
DOCKED: ATOM     14  C   UNL     1      18.702 -11.490   1.964 -0.59 -0.00    +0.000 C 
DOCKED: ATOM     15  N   UNL     1      19.756 -11.684   2.916 -0.68 -0.00    +0.000 N 
DOCKED: ATOM     16  O   UNL     1      20.997 -12.019   2.494 -1.64 -0.00    +0.000 OA
DOCKED: ATOM     17  H   UNL     1      19.575 -11.573   3.877 -0.04 -0.00    +0.000 HD
DOCKED: ENDBRANCH  11  14
DOCKED: ENDBRANCH   5  12
DOCKED: ENDBRANCH   4   8
DOCKED: ENDBRANCH   1   4
DOCKED: BRANCH   1  18
DOCKED: ATOM     18  C   UNL     1      11.810  -7.382   5.334 -0.25 +0.00    +0.000 C 
DOCKED: BRANCH  18  19
DOCKED: ATOM     19  C   UNL     1      12.163  -6.275   4.327 -0.19 +0.00    +0.000 C 
DOCKED: BRANCH  19  20
DOCKED: ATOM     20  C   UNL     1      13.573  -5.805   4.538 -0.25 +0.00    +0.000 A 
DOCKED: ATOM     21  C   UNL     1      14.655  -6.552   5.008 -0.40 +0.00    +0.000 A 
DOCKED: ATOM     22  N   UNL     1      15.756  -5.774   5.134 -0.47 +0.00    +0.000 N 
DOCKED: ATOM     23  C   UNL     1      15.376  -4.538   4.769 -0.43 +0.00    +0.000 A 
DOCKED: ATOM     24  C   UNL     1      14.051  -4.515   4.406 -0.29 +0.00    +0.000 A 
DOCKED: ATOM     25  C   UNL     1      13.420  -3.335   4.011 -0.29 -0.00    +0.000 A 
DOCKED: ATOM     26  C   UNL     1      14.187  -2.156   3.984 -0.37 -0.00    +0.000 A 
DOCKED: ATOM     27  C   UNL     1      15.551  -2.182   4.352 -0.38 -0.00    +0.000 A 
DOCKED: ATOM     28  C   UNL     1      16.159  -3.384   4.753 -0.48 -0.00    +0.000 A 
DOCKED: ATOM     29  C   UNL     1      14.634  -8.014   5.323 -0.33 +0.00    +0.000 C 
DOCKED: ATOM     30  H   UNL     1      16.651  -6.056   5.432 -0.62 -0.00    +0.000 HD
DOCKED: ENDBRANCH  19  20
DOCKED: ENDBRANCH  18  19
DOCKED: ENDBRANCH   1  18
DOCKED: TORSDOF 7
DOCKED: TER
DOCKED: ENDMDL
________________________________________________________________________________


	BEGINNING GENETIC ALGORITHM DOCKING 69 of 100
Run: 69 Seed: 1733321339 268811646 [ Run 69 of 100 GA/GALS ]
Beginning LAMARCKIAN GENETIC ALGORITHM (LGA), with a maximum of 2500000 energy evaluations.

Final-Value: -13.850


	FINAL GENETIC ALGORITHM DOCKED STATE
	_______________________________________________


Detailed state:  trans 19.764 -10.698 -8.264 quatxyzw -0.064479 -0.926119 0.354367 0.112113 center 0.576 -0.005 0.140 ntor 7 -145.6489 154.4711 -171.1056 84.7157 -172.2335 147.6983 138.1681
State:	 19.764 -10.698  -8.264  -0.065 -0.932  0.357 167.126   -145.65  154.47 -171.11   84.72 -172.23  147.70  138.17

DOCKED: MODEL       69
DOCKED: USER    Run = 69
DOCKED: USER    DPF = ligand_dock.biased.dpf
DOCKED: USER  
DOCKED: USER    Estimated Free Energy of Binding    =  -10.64 kcal/mol  [=(1)+(2)+(3)-(4)]
DOCKED: USER    Estimated Inhibition Constant, Ki   =   15.90 nM (nanomolar)  [Temperature = 298.15 K]
DOCKED: USER    
DOCKED: USER    (1) Final Intermolecular Energy     =  -12.73 kcal/mol
DOCKED: USER        vdW + Hbond + desolv Energy     =  -12.73 kcal/mol
DOCKED: USER        Electrostatic Energy            =   +0.00 kcal/mol
DOCKED: USER    (2) Final Total Internal Energy     =   -1.12 kcal/mol
DOCKED: USER    (3) Torsional Free Energy           =   +2.09 kcal/mol
DOCKED: USER    (4) Unbound System's Energy  [=(2)] =   -1.12 kcal/mol
DOCKED: USER    
DOCKED: USER    
DOCKED: USER    NEWDPF move ligand.pdbqt
DOCKED: USER    NEWDPF about 0.576000 -0.005000 0.140000
DOCKED: USER    NEWDPF tran0 19.763990 -10.697712 -8.263879
DOCKED: USER    NEWDPF quaternion0 -0.064479 -0.926119 0.354367 0.112113
DOCKED: USER    NEWDPF axisangle0 -0.064888 -0.931995 0.356616 167.125755
DOCKED: USER    NEWDPF quat0 -0.064888 -0.931995 0.356616 167.125755
DOCKED: USER    NEWDPF dihe0 -145.65 154.47 -171.11 84.72 -172.23 147.70 138.17 
DOCKED: USER  keepresnum = 1 
DOCKED: USER  
DOCKED: REMARK  Name = 
DOCKED: REMARK  8 active torsions:
DOCKED: REMARK  status: ('A' for Active; 'I' for Inactive)
DOCKED: REMARK    1  A    between atoms: C_2  and  C_3
DOCKED: REMARK    2  A    between atoms: C_4  and  C_5
DOCKED: REMARK    3  A    between atoms: C_8  and  C_9
DOCKED: REMARK    4  A    between atoms: C_9  and  N_10
DOCKED: REMARK    5  A    between atoms: N_10  and  C_11
DOCKED: REMARK    6  A    between atoms: C_11  and  C_12
DOCKED: REMARK    7  A    between atoms: C_12  and  C_13
DOCKED: REMARK    8  A    between atoms: C_14  and  C_22
DOCKED: REMARK                            x       y       z     vdW  Elec       q    Type
DOCKED: REMARK                         _______ _______ _______ _____ _____    ______ ____
DOCKED: USER                              x       y       z     vdW  Elec       q    Type
DOCKED: USER                           _______ _______ _______ _____ _____    ______ ____
DOCKED: ROOT
DOCKED: ATOM      1  N   UNL     1      20.523 -10.842  -8.383 -0.24 -0.00    +0.000 N 
DOCKED: ATOM      2  H   UNL     1      20.299 -10.688  -9.366 -0.02 -0.00    +0.000 HD
DOCKED: ATOM      3  H   UNL     1      20.394 -11.819  -8.119 -0.28 -0.00    +0.000 HD
DOCKED: ENDROOT
DOCKED: BRANCH   1   4
DOCKED: ATOM      4  C   UNL     1      19.616 -10.032  -7.560 -0.24 -0.00    +0.000 C 
DOCKED: BRANCH   4   8
DOCKED: ATOM      5  C   UNL     1      20.659 -10.376  -3.376 -0.45 -0.00    +0.000 A 
DOCKED: ATOM      6  C   UNL     1      21.053  -9.247  -4.122 -0.35 -0.00    +0.000 A 
DOCKED: ATOM      7  C   UNL     1      20.724  -9.145  -5.478 -0.22 -0.00    +0.000 A 
DOCKED: ATOM      8  C   UNL     1      20.002 -10.165  -6.113 -0.26 -0.00    +0.000 A 
DOCKED: ATOM      9  C   UNL     1      19.579 -11.274  -5.366 -0.42 -0.00    +0.000 A 
DOCKED: ATOM     10  C   UNL     1      19.905 -11.378  -4.011 -0.41 -0.00    +0.000 A 
DOCKED: BRANCH   5  12
DOCKED: ATOM     11  C   UNL     1      20.062 -10.887  -1.011 -0.52 -0.00    +0.000 C 
DOCKED: ATOM     12  C   UNL     1      20.969 -10.531  -1.933 -0.57 -0.00    +0.000 C 
DOCKED: BRANCH  11  14
DOCKED: ATOM     13  O   UNL     1      20.974 -10.095   1.010 -0.71 -0.00    +0.000 OA
DOCKED: ATOM     14  C   UNL     1      20.377 -11.037   0.424 -0.67 -0.00    +0.000 C 
DOCKED: ATOM     15  N   UNL     1      20.053 -12.223   1.161 -0.65 -0.00    +0.000 N 
DOCKED: ATOM     16  O   UNL     1      20.267 -12.272   2.496 -1.98 -0.00    +0.000 OA
DOCKED: ATOM     17  H   UNL     1      19.674 -13.003   0.694 -0.49 -0.00    +0.000 HD
DOCKED: ENDBRANCH  11  14
DOCKED: ENDBRANCH   5  12
DOCKED: ENDBRANCH   4   8
DOCKED: ENDBRANCH   1   4
DOCKED: BRANCH   1  18
DOCKED: ATOM     18  C   UNL     1      21.936 -10.500  -8.162 -0.27 -0.00    +0.000 C 
DOCKED: BRANCH  18  19
DOCKED: ATOM     19  C   UNL     1      22.748 -10.474  -9.467 -0.19 -0.00    +0.000 C 
DOCKED: BRANCH  19  20
DOCKED: ATOM     20  C   UNL     1      23.518 -11.753  -9.629 -0.26 -0.00    +0.000 A 
DOCKED: ATOM     21  C   UNL     1      24.732 -12.095  -9.030 -0.38 -0.00    +0.000 A 
DOCKED: ATOM     22  N   UNL     1      25.157 -13.304  -9.467 -0.35 -0.00    +0.000 N 
DOCKED: ATOM     23  C   UNL     1      24.236 -13.721 -10.352 -0.35 -0.00    +0.000 A 
DOCKED: ATOM     24  C   UNL     1      23.225 -12.800 -10.483 -0.28 -0.00    +0.000 A 
DOCKED: ATOM     25  C   UNL     1      22.162 -13.000 -11.365 -0.18 -0.00    +0.000 A 
DOCKED: ATOM     26  C   UNL     1      22.148 -14.188 -12.118 -0.29 +0.00    +0.000 A 
DOCKED: ATOM     27  C   UNL     1      23.185 -15.137 -11.978 -0.32 +0.00    +0.000 A 
DOCKED: ATOM     28  C   UNL     1      24.248 -14.906 -11.087 -0.35 +0.00    +0.000 A 
DOCKED: ATOM     29  C   UNL     1      25.475 -11.266  -8.031 -0.39 -0.00    +0.000 C 
DOCKED: ATOM     30  H   UNL     1      25.975 -13.779  -9.192 -0.64 -0.00    +0.000 HD
DOCKED: ENDBRANCH  19  20
DOCKED: ENDBRANCH  18  19
DOCKED: ENDBRANCH   1  18
DOCKED: TORSDOF 7
DOCKED: TER
DOCKED: ENDMDL
________________________________________________________________________________


	BEGINNING GENETIC ALGORITHM DOCKING 70 of 100
Run: 70 Seed: 2012399076 1837440537 [ Run 70 of 100 GA/GALS ]
Beginning LAMARCKIAN GENETIC ALGORITHM (LGA), with a maximum of 2500000 energy evaluations.

Final-Value: -13.832


	FINAL GENETIC ALGORITHM DOCKED STATE
	_______________________________________________


Detailed state:  trans 20.878 -10.380 -8.094 quatxyzw -0.278867 -0.913886 0.019266 0.294404 center 0.576 -0.005 0.140 ntor 7 179.7264 -169.1953 138.0996 -96.1735 172.9554 61.9624 -168.2736
State:	 20.878 -10.380  -8.094  -0.292 -0.956  0.020 145.756    179.73 -169.20  138.10  -96.17  172.96   61.96 -168.27

DOCKED: MODEL       70
DOCKED: USER    Run = 70
DOCKED: USER    DPF = ligand_dock.biased.dpf
DOCKED: USER  
DOCKED: USER    Estimated Free Energy of Binding    =  -10.62 kcal/mol  [=(1)+(2)+(3)-(4)]
DOCKED: USER    Estimated Inhibition Constant, Ki   =   16.35 nM (nanomolar)  [Temperature = 298.15 K]
DOCKED: USER    
DOCKED: USER    (1) Final Intermolecular Energy     =  -12.71 kcal/mol
DOCKED: USER        vdW + Hbond + desolv Energy     =  -12.71 kcal/mol
DOCKED: USER        Electrostatic Energy            =   +0.00 kcal/mol
DOCKED: USER    (2) Final Total Internal Energy     =   -1.12 kcal/mol
DOCKED: USER    (3) Torsional Free Energy           =   +2.09 kcal/mol
DOCKED: USER    (4) Unbound System's Energy  [=(2)] =   -1.12 kcal/mol
DOCKED: USER    
DOCKED: USER    
DOCKED: USER    NEWDPF move ligand.pdbqt
DOCKED: USER    NEWDPF about 0.576000 -0.005000 0.140000
DOCKED: USER    NEWDPF tran0 20.877787 -10.380189 -8.094284
DOCKED: USER    NEWDPF quaternion0 -0.278867 -0.913886 0.019266 0.294404
DOCKED: USER    NEWDPF axisangle0 -0.291800 -0.956267 0.020159 145.756433
DOCKED: USER    NEWDPF quat0 -0.291800 -0.956267 0.020159 145.756433
DOCKED: USER    NEWDPF dihe0 179.73 -169.20 138.10 -96.17 172.96 61.96 -168.27 
DOCKED: USER  keepresnum = 1 
DOCKED: USER  
DOCKED: REMARK  Name = 
DOCKED: REMARK  8 active torsions:
DOCKED: REMARK  status: ('A' for Active; 'I' for Inactive)
DOCKED: REMARK    1  A    between atoms: C_2  and  C_3
DOCKED: REMARK    2  A    between atoms: C_4  and  C_5
DOCKED: REMARK    3  A    between atoms: C_8  and  C_9
DOCKED: REMARK    4  A    between atoms: C_9  and  N_10
DOCKED: REMARK    5  A    between atoms: N_10  and  C_11
DOCKED: REMARK    6  A    between atoms: C_11  and  C_12
DOCKED: REMARK    7  A    between atoms: C_12  and  C_13
DOCKED: REMARK    8  A    between atoms: C_14  and  C_22
DOCKED: REMARK                            x       y       z     vdW  Elec       q    Type
DOCKED: REMARK                         _______ _______ _______ _____ _____    ______ ____
DOCKED: USER                              x       y       z     vdW  Elec       q    Type
DOCKED: USER                           _______ _______ _______ _____ _____    ______ ____
DOCKED: ROOT
DOCKED: ATOM      1  N   UNL     1      21.578 -10.692  -7.942 -0.27 -0.00    +0.000 N 
DOCKED: ATOM      2  H   UNL     1      21.928  -9.981  -8.583 +0.00 -0.00    +0.000 HD
DOCKED: ATOM      3  H   UNL     1      21.320 -11.547  -8.437 -0.28 -0.00    +0.000 HD
DOCKED: ENDROOT
DOCKED: BRANCH   1   4
DOCKED: ATOM      4  C   UNL     1      20.373 -10.179  -7.278 -0.26 -0.00    +0.000 C 
DOCKED: BRANCH   4   8
DOCKED: ATOM      5  C   UNL     1      20.895 -10.180  -2.985 -0.47 -0.00    +0.000 A 
DOCKED: ATOM      6  C   UNL     1      21.339  -9.090  -3.760 -0.37 -0.00    +0.000 A 
DOCKED: ATOM      7  C   UNL     1      21.179  -9.098  -5.149 -0.27 -0.00    +0.000 A 
DOCKED: ATOM      8  C   UNL     1      20.579 -10.192  -5.789 -0.30 -0.00    +0.000 A 
DOCKED: ATOM      9  C   UNL     1      20.106 -11.264  -5.017 -0.45 -0.00    +0.000 A 
DOCKED: ATOM     10  C   UNL     1      20.263 -11.257  -3.630 -0.35 -0.00    +0.000 A 
DOCKED: BRANCH   5  12
DOCKED: ATOM     11  C   UNL     1      20.416 -11.124  -0.728 -0.32 -0.00    +0.000 C 
DOCKED: ATOM     12  C   UNL     1      21.028 -10.219  -1.507 -0.63 -0.00    +0.000 C 
DOCKED: BRANCH  11  14
DOCKED: ATOM     13  O   UNL     1      21.002 -10.135   1.326 -0.67 -0.00    +0.000 OA
DOCKED: ATOM     14  C   UNL     1      20.550 -11.155   0.742 -0.71 -0.00    +0.000 C 
DOCKED: ATOM     15  N   UNL     1      20.211 -12.311   1.519 -0.70 -0.00    +0.000 N 
DOCKED: ATOM     16  O   UNL     1      20.252 -12.256   2.871 -1.78 -0.00    +0.000 OA
DOCKED: ATOM     17  H   UNL     1      19.948 -13.146   1.069 -0.57 -0.00    +0.000 HD
DOCKED: ENDBRANCH  11  14
DOCKED: ENDBRANCH   5  12
DOCKED: ENDBRANCH   4   8
DOCKED: ENDBRANCH   1   4
DOCKED: BRANCH   1  18
DOCKED: ATOM     18  C   UNL     1      22.642 -11.031  -6.986 -0.43 -0.00    +0.000 C 
DOCKED: BRANCH  18  19
DOCKED: ATOM     19  C   UNL     1      23.301 -12.386  -7.292 -0.48 -0.00    +0.000 C 
DOCKED: BRANCH  19  20
DOCKED: ATOM     20  C   UNL     1      24.297 -12.244  -8.407 -0.42 -0.00    +0.000 A 
DOCKED: ATOM     21  C   UNL     1      24.418 -13.044  -9.544 -0.34 -0.00    +0.000 A 
DOCKED: ATOM     22  N   UNL     1      25.477 -12.655 -10.293 -0.25 -0.00    +0.000 N 
DOCKED: ATOM     23  C   UNL     1      26.040 -11.630  -9.630 -0.26 -0.00    +0.000 A 
DOCKED: ATOM     24  C   UNL     1      25.354 -11.355  -8.472 -0.38 -0.00    +0.000 A 
DOCKED: ATOM     25  C   UNL     1      25.763 -10.345  -7.601 -0.28 -0.00    +0.000 A 
DOCKED: ATOM     26  C   UNL     1      26.906  -9.601  -7.947 -0.33 -0.00    +0.000 A 
DOCKED: ATOM     27  C   UNL     1      27.607  -9.882  -9.141 -0.26 -0.00    +0.000 A 
DOCKED: ATOM     28  C   UNL     1      27.176 -10.910  -9.997 -0.24 -0.00    +0.000 A 
DOCKED: ATOM     29  C   UNL     1      23.510 -14.173  -9.917 -0.39 -0.00    +0.000 C 
DOCKED: ATOM     30  H   UNL     1      25.773 -13.043 -11.148 -0.24 -0.00    +0.000 HD
DOCKED: ENDBRANCH  19  20
DOCKED: ENDBRANCH  18  19
DOCKED: ENDBRANCH   1  18
DOCKED: TORSDOF 7
DOCKED: TER
DOCKED: ENDMDL
________________________________________________________________________________


	BEGINNING GENETIC ALGORITHM DOCKING 71 of 100
Run: 71 Seed: 329419117 1783856681 [ Run 71 of 100 GA/GALS ]
Beginning LAMARCKIAN GENETIC ALGORITHM (LGA), with a maximum of 2500000 energy evaluations.

Final-Value: -13.760


	FINAL GENETIC ALGORITHM DOCKED STATE
	_______________________________________________


Detailed state:  trans 20.374 -9.731 -8.333 quatxyzw -0.239734 -0.939380 0.003507 0.245112 center 0.576 -0.005 0.140 ntor 7 -163.6753 159.9179 129.8412 -67.1838 -179.5358 47.0083 -173.1149
State:	 20.374  -9.731  -8.333  -0.247 -0.969  0.004 151.623   -163.68  159.92  129.84  -67.18 -179.54   47.01 -173.11

DOCKED: MODEL       71
DOCKED: USER    Run = 71
DOCKED: USER    DPF = ligand_dock.biased.dpf
DOCKED: USER  
DOCKED: USER    Estimated Free Energy of Binding    =  -10.57 kcal/mol  [=(1)+(2)+(3)-(4)]
DOCKED: USER    Estimated Inhibition Constant, Ki   =   17.98 nM (nanomolar)  [Temperature = 298.15 K]
DOCKED: USER    
DOCKED: USER    (1) Final Intermolecular Energy     =  -12.65 kcal/mol
DOCKED: USER        vdW + Hbond + desolv Energy     =  -12.65 kcal/mol
DOCKED: USER        Electrostatic Energy            =   +0.00 kcal/mol
DOCKED: USER    (2) Final Total Internal Energy     =   -1.11 kcal/mol
DOCKED: USER    (3) Torsional Free Energy           =   +2.09 kcal/mol
DOCKED: USER    (4) Unbound System's Energy  [=(2)] =   -1.11 kcal/mol
DOCKED: USER    
DOCKED: USER    
DOCKED: USER    NEWDPF move ligand.pdbqt
DOCKED: USER    NEWDPF about 0.576000 -0.005000 0.140000
DOCKED: USER    NEWDPF tran0 20.373669 -9.730846 -8.333138
DOCKED: USER    NEWDPF quaternion0 -0.239734 -0.939380 0.003507 0.245112
DOCKED: USER    NEWDPF axisangle0 -0.247277 -0.968938 0.003617 151.623089
DOCKED: USER    NEWDPF quat0 -0.247277 -0.968938 0.003617 151.623089
DOCKED: USER    NEWDPF dihe0 -163.68 159.92 129.84 -67.18 -179.54 47.01 -173.11 
DOCKED: USER  keepresnum = 1 
DOCKED: USER  
DOCKED: REMARK  Name = 
DOCKED: REMARK  8 active torsions:
DOCKED: REMARK  status: ('A' for Active; 'I' for Inactive)
DOCKED: REMARK    1  A    between atoms: C_2  and  C_3
DOCKED: REMARK    2  A    between atoms: C_4  and  C_5
DOCKED: REMARK    3  A    between atoms: C_8  and  C_9
DOCKED: REMARK    4  A    between atoms: C_9  and  N_10
DOCKED: REMARK    5  A    between atoms: N_10  and  C_11
DOCKED: REMARK    6  A    between atoms: C_11  and  C_12
DOCKED: REMARK    7  A    between atoms: C_12  and  C_13
DOCKED: REMARK    8  A    between atoms: C_14  and  C_22
DOCKED: REMARK                            x       y       z     vdW  Elec       q    Type
DOCKED: REMARK                         _______ _______ _______ _____ _____    ______ ____
DOCKED: USER                              x       y       z     vdW  Elec       q    Type
DOCKED: USER                           _______ _______ _______ _____ _____    ______ ____
DOCKED: ROOT
DOCKED: ATOM      1  N   UNL     1      21.111  -9.980  -8.261 -0.19 -0.00    +0.000 N 
DOCKED: ATOM      2  H   UNL     1      21.329  -9.220  -8.905 +0.00 -0.00    +0.000 HD
DOCKED: ATOM      3  H   UNL     1      20.884 -10.840  -8.762 -0.04 -0.00    +0.000 HD
DOCKED: ENDROOT
DOCKED: BRANCH   1   4
DOCKED: ATOM      4  C   UNL     1      19.936  -9.603  -7.465 -0.20 -0.00    +0.000 C 
DOCKED: BRANCH   4   8
DOCKED: ATOM      5  C   UNL     1      20.773 -10.018  -3.242 -0.45 -0.00    +0.000 A 
DOCKED: ATOM      6  C   UNL     1      20.960  -8.781  -3.891 -0.34 -0.00    +0.000 A 
DOCKED: ATOM      7  C   UNL     1      20.700  -8.653  -5.259 -0.21 -0.00    +0.000 A 
DOCKED: ATOM      8  C   UNL     1      20.253  -9.754  -6.003 -0.22 -0.00    +0.000 A 
DOCKED: ATOM      9  C   UNL     1      20.033 -10.978  -5.354 -0.40 -0.00    +0.000 A 
DOCKED: ATOM     10  C   UNL     1      20.291 -11.107  -3.987 -0.43 -0.00    +0.000 A 
DOCKED: BRANCH   5  12
DOCKED: ATOM     11  C   UNL     1      20.208 -10.901  -0.981 -0.51 -0.00    +0.000 C 
DOCKED: ATOM     12  C   UNL     1      21.021 -10.206  -1.791 -0.61 -0.00    +0.000 C 
DOCKED: BRANCH  11  14
DOCKED: ATOM     13  O   UNL     1      21.029 -10.154   1.096 -0.71 -0.00    +0.000 OA
DOCKED: ATOM     14  C   UNL     1      20.460 -11.083   0.463 -0.68 -0.00    +0.000 C 
DOCKED: ATOM     15  N   UNL     1      20.105 -12.285   1.158 -0.65 -0.00    +0.000 N 
DOCKED: ATOM     16  O   UNL     1      20.260 -12.363   2.500 -1.97 -0.00    +0.000 OA
DOCKED: ATOM     17  H   UNL     1      19.748 -13.054   0.658 -0.52 -0.00    +0.000 HD
DOCKED: ENDBRANCH  11  14
DOCKED: ENDBRANCH   5  12
DOCKED: ENDBRANCH   4   8
DOCKED: ENDBRANCH   1   4
DOCKED: BRANCH   1  18
DOCKED: ATOM     18  C   UNL     1      22.291 -10.245  -7.425 -0.30 -0.00    +0.000 C 
DOCKED: BRANCH  18  19
DOCKED: ATOM     19  C   UNL     1      22.821 -11.679  -7.590 -0.43 -0.00    +0.000 C 
DOCKED: BRANCH  19  20
DOCKED: ATOM     20  C   UNL     1      24.120 -11.674  -8.344 -0.39 -0.00    +0.000 A 
DOCKED: ATOM     21  C   UNL     1      24.533 -12.574  -9.327 -0.37 -0.00    +0.000 A 
DOCKED: ATOM     22  N   UNL     1      25.794 -12.294  -9.733 -0.25 -0.00    +0.000 N 
DOCKED: ATOM     23  C   UNL     1      26.190 -11.238  -9.002 -0.34 -0.00    +0.000 A 
DOCKED: ATOM     24  C   UNL     1      25.200 -10.835  -8.140 -0.35 -0.00    +0.000 A 
DOCKED: ATOM     25  C   UNL     1      25.384  -9.770  -7.258 -0.23 -0.00    +0.000 A 
DOCKED: ATOM     26  C   UNL     1      26.623  -9.104  -7.282 -0.34 -0.00    +0.000 A 
DOCKED: ATOM     27  C   UNL     1      27.639  -9.515  -8.173 -0.32 -0.00    +0.000 A 
DOCKED: ATOM     28  C   UNL     1      27.428 -10.597  -9.046 -0.33 -0.00    +0.000 A 
DOCKED: ATOM     29  C   UNL     1      23.714 -13.695  -9.884 -0.42 -0.00    +0.000 C 
DOCKED: ATOM     30  H   UNL     1      26.315 -12.767 -10.422 -0.47 -0.00    +0.000 HD
DOCKED: ENDBRANCH  19  20
DOCKED: ENDBRANCH  18  19
DOCKED: ENDBRANCH   1  18
DOCKED: TORSDOF 7
DOCKED: TER
DOCKED: ENDMDL
________________________________________________________________________________


	BEGINNING GENETIC ALGORITHM DOCKING 72 of 100
Run: 72 Seed: 1031393968 1058139535 [ Run 72 of 100 GA/GALS ]
Beginning LAMARCKIAN GENETIC ALGORITHM (LGA), with a maximum of 2500000 energy evaluations.

Final-Value: -12.931


	FINAL GENETIC ALGORITHM DOCKED STATE
	_______________________________________________


Detailed state:  trans 13.128 -3.751 3.943 quatxyzw 0.166139 -0.919965 -0.354212 0.024430 center 0.576 -0.005 0.140 ntor 7 177.6797 -71.9458 -147.4969 -68.4007 -139.3035 9.9896 109.7739
State:	 13.128  -3.751   3.943   0.166 -0.920 -0.354 177.200    177.68  -71.95 -147.50  -68.40 -139.30    9.99  109.77

DOCKED: MODEL       72
DOCKED: USER    Run = 72
DOCKED: USER    DPF = ligand_dock.biased.dpf
DOCKED: USER  
DOCKED: USER    Estimated Free Energy of Binding    =   -9.51 kcal/mol  [=(1)+(2)+(3)-(4)]
DOCKED: USER    Estimated Inhibition Constant, Ki   =  106.04 nM (nanomolar)  [Temperature = 298.15 K]
DOCKED: USER    
DOCKED: USER    (1) Final Intermolecular Energy     =  -11.60 kcal/mol
DOCKED: USER        vdW + Hbond + desolv Energy     =  -11.60 kcal/mol
DOCKED: USER        Electrostatic Energy            =   +0.00 kcal/mol
DOCKED: USER    (2) Final Total Internal Energy     =   -1.33 kcal/mol
DOCKED: USER    (3) Torsional Free Energy           =   +2.09 kcal/mol
DOCKED: USER    (4) Unbound System's Energy  [=(2)] =   -1.33 kcal/mol
DOCKED: USER    
DOCKED: USER    
DOCKED: USER    NEWDPF move ligand.pdbqt
DOCKED: USER    NEWDPF about 0.576000 -0.005000 0.140000
DOCKED: USER    NEWDPF tran0 13.128432 -3.751285 3.943321
DOCKED: USER    NEWDPF quaternion0 0.166139 -0.919965 -0.354212 0.024430
DOCKED: USER    NEWDPF axisangle0 0.166189 -0.920239 -0.354318 177.200205
DOCKED: USER    NEWDPF quat0 0.166189 -0.920239 -0.354318 177.200205
DOCKED: USER    NEWDPF dihe0 177.68 -71.95 -147.50 -68.40 -139.30 9.99 109.77 
DOCKED: USER  keepresnum = 1 
DOCKED: USER  
DOCKED: REMARK  Name = 
DOCKED: REMARK  8 active torsions:
DOCKED: REMARK  status: ('A' for Active; 'I' for Inactive)
DOCKED: REMARK    1  A    between atoms: C_2  and  C_3
DOCKED: REMARK    2  A    between atoms: C_4  and  C_5
DOCKED: REMARK    3  A    between atoms: C_8  and  C_9
DOCKED: REMARK    4  A    between atoms: C_9  and  N_10
DOCKED: REMARK    5  A    between atoms: N_10  and  C_11
DOCKED: REMARK    6  A    between atoms: C_11  and  C_12
DOCKED: REMARK    7  A    between atoms: C_12  and  C_13
DOCKED: REMARK    8  A    between atoms: C_14  and  C_22
DOCKED: REMARK                            x       y       z     vdW  Elec       q    Type
DOCKED: REMARK                         _______ _______ _______ _____ _____    ______ ____
DOCKED: USER                              x       y       z     vdW  Elec       q    Type
DOCKED: USER                           _______ _______ _______ _____ _____    ______ ____
DOCKED: ROOT
DOCKED: ATOM      1  N   UNL     1      13.736  -3.261   3.908 -0.31 -0.00    +0.000 N 
DOCKED: ATOM      2  H   UNL     1      13.023  -2.534   3.854 -0.04 -0.00    +0.000 HD
DOCKED: ATOM      3  H   UNL     1      13.983  -3.612   2.982 +0.00 -0.00    +0.000 HD
DOCKED: ENDROOT
DOCKED: BRANCH   1   4
DOCKED: ATOM      4  C   UNL     1      13.204  -4.387   4.685 -0.33 +0.00    +0.000 C 
DOCKED: BRANCH   4   8
DOCKED: ATOM      5  C   UNL     1      15.230  -8.048   3.589 -0.33 +0.00    +0.000 A 
DOCKED: ATOM      6  C   UNL     1      15.024  -7.721   4.945 -0.24 +0.00    +0.000 A 
DOCKED: ATOM      7  C   UNL     1      14.380  -6.531   5.296 -0.40 +0.00    +0.000 A 
DOCKED: ATOM      8  C   UNL     1      13.932  -5.646   4.304 -0.26 +0.00    +0.000 A 
DOCKED: ATOM      9  C   UNL     1      14.105  -5.984   2.954 -0.21 +0.00    +0.000 A 
DOCKED: ATOM     10  C   UNL     1      14.747  -7.173   2.602 -0.23 +0.00    +0.000 A 
DOCKED: BRANCH   5  12
DOCKED: ATOM     11  C   UNL     1      17.206  -9.392   2.883 -0.36 +0.00    +0.000 C 
DOCKED: ATOM     12  C   UNL     1      15.896  -9.303   3.161 -0.43 +0.00    +0.000 C 
DOCKED: BRANCH  11  14
DOCKED: ATOM     13  O   UNL     1      17.140 -11.604   2.079 -0.49 +0.00    +0.000 OA
DOCKED: ATOM     14  C   UNL     1      17.864 -10.643   2.455 -0.53 +0.00    +0.000 C 
DOCKED: ATOM     15  N   UNL     1      19.287 -10.809   2.479 -0.59 -0.00    +0.000 N 
DOCKED: ATOM     16  O   UNL     1      19.847 -11.935   1.978 -1.72 -0.00    +0.000 OA
DOCKED: ATOM     17  H   UNL     1      19.857 -10.104   2.860 -0.25 -0.00    +0.000 HD
DOCKED: ENDBRANCH  11  14
DOCKED: ENDBRANCH   5  12
DOCKED: ENDBRANCH   4   8
DOCKED: ENDBRANCH   1   4
DOCKED: BRANCH   1  18
DOCKED: ATOM     18  C   UNL     1      14.950  -2.689   4.509 -0.42 -0.00    +0.000 C 
DOCKED: BRANCH  18  19
DOCKED: ATOM     19  C   UNL     1      16.220  -3.468   4.128 -0.50 -0.00    +0.000 C 
DOCKED: BRANCH  19  20
DOCKED: ATOM     20  C   UNL     1      17.044  -2.680   3.151 -0.43 -0.00    +0.000 A 
DOCKED: ATOM     21  C   UNL     1      16.644  -2.189   1.907 -0.30 -0.00    +0.000 A 
DOCKED: ATOM     22  N   UNL     1      17.679  -1.585   1.276 -0.26 -0.00    +0.000 N 
DOCKED: ATOM     23  C   UNL     1      18.734  -1.706   2.101 -0.38 -0.00    +0.000 A 
DOCKED: ATOM     24  C   UNL     1      18.388  -2.374   3.250 -0.43 -0.00    +0.000 A 
DOCKED: ATOM     25  C   UNL     1      19.323  -2.643   4.250 -0.24 -0.00    +0.000 A 
DOCKED: ATOM     26  C   UNL     1      20.643  -2.200   4.052 -0.75 -0.00    +0.000 A 
DOCKED: ATOM     27  C   UNL     1      20.997  -1.509   2.872 -0.56 -0.00    +0.000 A 
DOCKED: ATOM     28  C   UNL     1      20.035  -1.257   1.878 -0.39 -0.00    +0.000 A 
DOCKED: ATOM     29  C   UNL     1      15.269  -2.291   1.330 -0.26 -0.00    +0.000 C 
DOCKED: ATOM     30  H   UNL     1      17.662  -1.146   0.395 +0.00 -0.00    +0.000 HD
DOCKED: ENDBRANCH  19  20
DOCKED: ENDBRANCH  18  19
DOCKED: ENDBRANCH   1  18
DOCKED: TORSDOF 7
DOCKED: TER
DOCKED: ENDMDL
________________________________________________________________________________


	BEGINNING GENETIC ALGORITHM DOCKING 73 of 100
Run: 73 Seed: 2130854650 186033347 [ Run 73 of 100 GA/GALS ]
Beginning LAMARCKIAN GENETIC ALGORITHM (LGA), with a maximum of 2500000 energy evaluations.

Final-Value: -13.641


	FINAL GENETIC ALGORITHM DOCKED STATE
	_______________________________________________


Detailed state:  trans 20.736 -10.640 -6.432 quatxyzw -0.436586 -0.798801 0.402613 0.095981 center 0.576 -0.005 0.140 ntor 7 -56.5122 79.5218 142.8893 -148.0588 39.4890 160.8101 133.4200
State:	 20.736 -10.640  -6.432  -0.439 -0.803  0.404 168.984    -56.51   79.52  142.89 -148.06   39.49  160.81  133.42

DOCKED: MODEL       73
DOCKED: USER    Run = 73
DOCKED: USER    DPF = ligand_dock.biased.dpf
DOCKED: USER  
DOCKED: USER    Estimated Free Energy of Binding    =  -10.21 kcal/mol  [=(1)+(2)+(3)-(4)]
DOCKED: USER    Estimated Inhibition Constant, Ki   =   33.00 nM (nanomolar)  [Temperature = 298.15 K]
DOCKED: USER    
DOCKED: USER    (1) Final Intermolecular Energy     =  -12.29 kcal/mol
DOCKED: USER        vdW + Hbond + desolv Energy     =  -12.29 kcal/mol
DOCKED: USER        Electrostatic Energy            =   +0.00 kcal/mol
DOCKED: USER    (2) Final Total Internal Energy     =   -1.35 kcal/mol
DOCKED: USER    (3) Torsional Free Energy           =   +2.09 kcal/mol
DOCKED: USER    (4) Unbound System's Energy  [=(2)] =   -1.35 kcal/mol
DOCKED: USER    
DOCKED: USER    
DOCKED: USER    NEWDPF move ligand.pdbqt
DOCKED: USER    NEWDPF about 0.576000 -0.005000 0.140000
DOCKED: USER    NEWDPF tran0 20.736196 -10.639612 -6.431902
DOCKED: USER    NEWDPF quaternion0 -0.436586 -0.798801 0.402613 0.095981
DOCKED: USER    NEWDPF axisangle0 -0.438611 -0.802506 0.404481 168.984397
DOCKED: USER    NEWDPF quat0 -0.438611 -0.802506 0.404481 168.984397
DOCKED: USER    NEWDPF dihe0 -56.51 79.52 142.89 -148.06 39.49 160.81 133.42 
DOCKED: USER  keepresnum = 1 
DOCKED: USER  
DOCKED: REMARK  Name = 
DOCKED: REMARK  8 active torsions:
DOCKED: REMARK  status: ('A' for Active; 'I' for Inactive)
DOCKED: REMARK    1  A    between atoms: C_2  and  C_3
DOCKED: REMARK    2  A    between atoms: C_4  and  C_5
DOCKED: REMARK    3  A    between atoms: C_8  and  C_9
DOCKED: REMARK    4  A    between atoms: C_9  and  N_10
DOCKED: REMARK    5  A    between atoms: N_10  and  C_11
DOCKED: REMARK    6  A    between atoms: C_11  and  C_12
DOCKED: REMARK    7  A    between atoms: C_12  and  C_13
DOCKED: REMARK    8  A    between atoms: C_14  and  C_22
DOCKED: REMARK                            x       y       z     vdW  Elec       q    Type
DOCKED: REMARK                         _______ _______ _______ _____ _____    ______ ____
DOCKED: USER                              x       y       z     vdW  Elec       q    Type
DOCKED: USER                           _______ _______ _______ _____ _____    ______ ____
DOCKED: ROOT
DOCKED: ATOM      1  N   UNL     1      21.195 -11.266  -6.343 -0.34 -0.00    +0.000 N 
DOCKED: ATOM      2  H   UNL     1      21.341 -11.183  -7.349 -0.18 -0.00    +0.000 HD
DOCKED: ATOM      3  H   UNL     1      20.384 -11.847  -6.129 -0.39 -0.00    +0.000 HD
DOCKED: ENDROOT
DOCKED: BRANCH   1   4
DOCKED: ATOM      4  C   UNL     1      20.945  -9.929  -5.790 -0.33 -0.00    +0.000 C 
DOCKED: BRANCH   4   8
DOCKED: ATOM      5  C   UNL     1      20.348 -10.288  -1.521 -0.49 -0.00    +0.000 A 
DOCKED: ATOM      6  C   UNL     1      19.672 -11.144  -2.413 -0.24 -0.00    +0.000 A 
DOCKED: ATOM      7  C   UNL     1      19.859 -11.018  -3.794 -0.42 -0.00    +0.000 A 
DOCKED: ATOM      8  C   UNL     1      20.717 -10.035  -4.307 -0.38 -0.00    +0.000 A 
DOCKED: ATOM      9  C   UNL     1      21.417  -9.204  -3.421 -0.39 -0.00    +0.000 A 
DOCKED: ATOM     10  C   UNL     1      21.234  -9.329  -2.042 -0.49 -0.00    +0.000 A 
DOCKED: BRANCH   5  12
DOCKED: ATOM     11  C   UNL     1      20.448 -11.502   0.653 -0.63 -0.00    +0.000 C 
DOCKED: ATOM     12  C   UNL     1      20.197 -10.386  -0.048 -0.62 -0.00    +0.000 C 
DOCKED: BRANCH  11  14
DOCKED: ATOM     13  O   UNL     1      19.807 -12.649   2.607 -1.49 -0.00    +0.000 OA
DOCKED: ATOM     14  C   UNL     1      20.294 -11.595   2.119 -0.78 -0.00    +0.000 C 
DOCKED: ATOM     15  N   UNL     1      20.653 -10.520   2.998 -0.62 -0.00    +0.000 N 
DOCKED: ATOM     16  O   UNL     1      20.592 -10.692   4.339 -0.91 -0.00    +0.000 OA
DOCKED: ATOM     17  H   UNL     1      20.945  -9.658   2.624 -0.57 -0.00    +0.000 HD
DOCKED: ENDBRANCH  11  14
DOCKED: ENDBRANCH   5  12
DOCKED: ENDBRANCH   4   8
DOCKED: ENDBRANCH   1   4
DOCKED: BRANCH   1  18
DOCKED: ATOM     18  C   UNL     1      22.376 -11.907  -5.745 -0.53 -0.00    +0.000 C 
DOCKED: BRANCH  18  19
DOCKED: ATOM     19  C   UNL     1      23.389 -12.378  -6.802 -0.48 -0.00    +0.000 C 
DOCKED: BRANCH  19  20
DOCKED: ATOM     20  C   UNL     1      23.290 -11.530  -8.037 -0.38 -0.00    +0.000 A 
DOCKED: ATOM     21  C   UNL     1      23.108 -11.963  -9.351 -0.30 -0.00    +0.000 A 
DOCKED: ATOM     22  N   UNL     1      23.136 -10.916 -10.209 -0.14 -0.00    +0.000 N 
DOCKED: ATOM     23  C   UNL     1      23.355  -9.827  -9.452 -0.11 -0.00    +0.000 A 
DOCKED: ATOM     24  C   UNL     1      23.461 -10.161  -8.125 -0.23 -0.00    +0.000 A 
DOCKED: ATOM     25  C   UNL     1      23.713  -9.199  -7.145 -0.22 -0.00    +0.000 A 
DOCKED: ATOM     26  C   UNL     1      23.848  -7.862  -7.557 -0.14 -0.00    +0.000 A 
DOCKED: ATOM     27  C   UNL     1      23.734  -7.518  -8.922 -0.05 -0.00    +0.000 A 
DOCKED: ATOM     28  C   UNL     1      23.486  -8.509  -9.889 -0.04 -0.00    +0.000 A 
DOCKED: ATOM     29  C   UNL     1      22.896 -13.380  -9.781 -0.40 -0.00    +0.000 C 
DOCKED: ATOM     30  H   UNL     1      23.020 -10.946 -11.186 +0.00 -0.00    +0.000 HD
DOCKED: ENDBRANCH  19  20
DOCKED: ENDBRANCH  18  19
DOCKED: ENDBRANCH   1  18
DOCKED: TORSDOF 7
DOCKED: TER
DOCKED: ENDMDL
________________________________________________________________________________


	BEGINNING GENETIC ALGORITHM DOCKING 74 of 100
Run: 74 Seed: 1790886201 152885500 [ Run 74 of 100 GA/GALS ]
Beginning LAMARCKIAN GENETIC ALGORITHM (LGA), with a maximum of 2500000 energy evaluations.

Final-Value: -12.070


	FINAL GENETIC ALGORITHM DOCKED STATE
	_______________________________________________


Detailed state:  trans 14.552 -10.470 1.355 quatxyzw -0.204996 0.170121 -0.959941 0.086884 center 0.576 -0.005 0.140 ntor 7 -180.0000 -162.5864 49.8961 47.8608 -4.6037 116.9039 -158.1245
State:	 14.552 -10.470   1.355  -0.206  0.171 -0.964 170.031   -180.00 -162.59   49.90   47.86   -4.60  116.90 -158.12

DOCKED: MODEL       74
DOCKED: USER    Run = 74
DOCKED: USER    DPF = ligand_dock.biased.dpf
DOCKED: USER  
DOCKED: USER    Estimated Free Energy of Binding    =   -8.58 kcal/mol  [=(1)+(2)+(3)-(4)]
DOCKED: USER    Estimated Inhibition Constant, Ki   =  515.90 nM (nanomolar)  [Temperature = 298.15 K]
DOCKED: USER    
DOCKED: USER    (1) Final Intermolecular Energy     =  -10.67 kcal/mol
DOCKED: USER        vdW + Hbond + desolv Energy     =  -10.67 kcal/mol
DOCKED: USER        Electrostatic Energy            =   +0.00 kcal/mol
DOCKED: USER    (2) Final Total Internal Energy     =   -1.40 kcal/mol
DOCKED: USER    (3) Torsional Free Energy           =   +2.09 kcal/mol
DOCKED: USER    (4) Unbound System's Energy  [=(2)] =   -1.40 kcal/mol
DOCKED: USER    
DOCKED: USER    
DOCKED: USER    NEWDPF move ligand.pdbqt
DOCKED: USER    NEWDPF about 0.576000 -0.005000 0.140000
DOCKED: USER    NEWDPF tran0 14.552153 -10.470151 1.354676
DOCKED: USER    NEWDPF quaternion0 -0.204996 0.170121 -0.959941 0.086884
DOCKED: USER    NEWDPF axisangle0 -0.205774 0.170767 -0.963585 170.031226
DOCKED: USER    NEWDPF quat0 -0.205774 0.170767 -0.963585 170.031226
DOCKED: USER    NEWDPF dihe0 -180.00 -162.59 49.90 47.86 -4.60 116.90 -158.12 
DOCKED: USER  keepresnum = 1 
DOCKED: USER  
DOCKED: REMARK  Name = 
DOCKED: REMARK  8 active torsions:
DOCKED: REMARK  status: ('A' for Active; 'I' for Inactive)
DOCKED: REMARK    1  A    between atoms: C_2  and  C_3
DOCKED: REMARK    2  A    between atoms: C_4  and  C_5
DOCKED: REMARK    3  A    between atoms: C_8  and  C_9
DOCKED: REMARK    4  A    between atoms: C_9  and  N_10
DOCKED: REMARK    5  A    between atoms: N_10  and  C_11
DOCKED: REMARK    6  A    between atoms: C_11  and  C_12
DOCKED: REMARK    7  A    between atoms: C_12  and  C_13
DOCKED: REMARK    8  A    between atoms: C_14  and  C_22
DOCKED: REMARK                            x       y       z     vdW  Elec       q    Type
DOCKED: REMARK                         _______ _______ _______ _____ _____    ______ ____
DOCKED: USER                              x       y       z     vdW  Elec       q    Type
DOCKED: USER                           _______ _______ _______ _____ _____    ______ ____
DOCKED: ROOT
DOCKED: ATOM      1  N   UNL     1      15.274 -10.762   1.282 -0.29 +0.00    +0.000 N 
DOCKED: ATOM      2  H   UNL     1      14.891 -11.572   1.769 -0.01 +0.00    +0.000 HD
DOCKED: ATOM      3  H   UNL     1      15.635 -10.069   1.938 +0.00 +0.00    +0.000 HD
DOCKED: ENDROOT
DOCKED: BRANCH   1   4
DOCKED: ATOM      4  C   UNL     1      14.201 -10.127   0.506 -0.25 +0.00    +0.000 C 
DOCKED: BRANCH   4   8
DOCKED: ATOM      5  C   UNL     1      15.053 -10.668  -3.699 -0.24 -0.00    +0.000 A 
DOCKED: ATOM      6  C   UNL     1      15.504  -9.519  -3.019 -0.21 -0.00    +0.000 A 
DOCKED: ATOM      7  C   UNL     1      15.217  -9.342  -1.662 -0.20 -0.00    +0.000 A 
DOCKED: ATOM      8  C   UNL     1      14.473 -10.303  -0.962 -0.25 +0.00    +0.000 A 
DOCKED: ATOM      9  C   UNL     1      14.052 -11.463  -1.627 -0.33 +0.00    +0.000 A 
DOCKED: ATOM     10  C   UNL     1      14.339 -11.643  -2.982 -0.24 -0.00    +0.000 A 
DOCKED: BRANCH   5  12
DOCKED: ATOM     11  C   UNL     1      15.012 -12.045  -5.777 -0.27 -0.00    +0.000 C 
DOCKED: ATOM     12  C   UNL     1      15.341 -10.913  -5.135 -0.27 -0.00    +0.000 C 
DOCKED: BRANCH  11  14
DOCKED: ATOM     13  O   UNL     1      16.150 -11.548  -7.777 -0.33 -0.00    +0.000 OA
DOCKED: ATOM     14  C   UNL     1      15.302 -12.283  -7.205 -0.37 -0.00    +0.000 C 
DOCKED: ATOM     15  N   UNL     1      14.635 -13.300  -7.964 -0.41 +0.00    +0.000 N 
DOCKED: ATOM     16  O   UNL     1      15.010 -13.549  -9.241 -0.40 +0.00    +0.000 OA
DOCKED: ATOM     17  H   UNL     1      13.903 -13.816  -7.557 -0.03 +0.00    +0.000 HD
DOCKED: ENDBRANCH  11  14
DOCKED: ENDBRANCH   5  12
DOCKED: ENDBRANCH   4   8
DOCKED: ENDBRANCH   1   4
DOCKED: BRANCH   1  18
DOCKED: ATOM     18  C   UNL     1      16.391 -11.204   0.434 -0.40 +0.00    +0.000 C 
DOCKED: BRANCH  18  19
DOCKED: ATOM     19  C   UNL     1      17.399 -12.080   1.196 -0.48 +0.00    +0.000 C 
DOCKED: BRANCH  19  20
DOCKED: ATOM     20  C   UNL     1      18.805 -11.677   0.856 -0.52 -0.00    +0.000 A 
DOCKED: ATOM     21  C   UNL     1      19.895 -11.591   1.723 -0.66 -0.00    +0.000 A 
DOCKED: ATOM     22  N   UNL     1      20.988 -11.127   1.072 -0.66 -0.00    +0.000 N 
DOCKED: ATOM     23  C   UNL     1      20.594 -10.898  -0.193 -0.57 -0.00    +0.000 A 
DOCKED: ATOM     24  C   UNL     1      19.269 -11.214  -0.361 -0.47 -0.00    +0.000 A 
DOCKED: ATOM     25  C   UNL     1      18.624 -11.039  -1.586 -0.35 -0.00    +0.000 A 
DOCKED: ATOM     26  C   UNL     1      19.378 -10.532  -2.659 -0.38 -0.00    +0.000 A 
DOCKED: ATOM     27  C   UNL     1      20.743 -10.212  -2.486 -0.49 -0.00    +0.000 A 
DOCKED: ATOM     28  C   UNL     1      21.365 -10.393  -1.238 -0.58 -0.00    +0.000 A 
DOCKED: ATOM     29  C   UNL     1      19.891 -11.966   3.170 -0.68 -0.00    +0.000 C 
DOCKED: ATOM     30  H   UNL     1      21.887 -10.986   1.448 -0.35 -0.00    +0.000 HD
DOCKED: ENDBRANCH  19  20
DOCKED: ENDBRANCH  18  19
DOCKED: ENDBRANCH   1  18
DOCKED: TORSDOF 7
DOCKED: TER
DOCKED: ENDMDL
________________________________________________________________________________


	BEGINNING GENETIC ALGORITHM DOCKING 75 of 100
Run: 75 Seed: 1253548105 739132819 [ Run 75 of 100 GA/GALS ]
Beginning LAMARCKIAN GENETIC ALGORITHM (LGA), with a maximum of 2500000 energy evaluations.

Final-Value: -13.933


	FINAL GENETIC ALGORITHM DOCKED STATE
	_______________________________________________


Detailed state:  trans 22.066 -8.970 -6.016 quatxyzw -0.691321 -0.105786 -0.692962 0.175183 center 0.576 -0.005 0.140 ntor 7 -113.0466 169.5934 146.3726 84.9652 -178.9406 161.4487 -39.1564
State:	 22.066  -8.970  -6.016  -0.702 -0.107 -0.704 159.821   -113.05  169.59  146.37   84.97 -178.94  161.45  -39.16

DOCKED: MODEL       75
DOCKED: USER    Run = 75
DOCKED: USER    DPF = ligand_dock.biased.dpf
DOCKED: USER  
DOCKED: USER    Estimated Free Energy of Binding    =  -10.70 kcal/mol  [=(1)+(2)+(3)-(4)]
DOCKED: USER    Estimated Inhibition Constant, Ki   =   14.32 nM (nanomolar)  [Temperature = 298.15 K]
DOCKED: USER    
DOCKED: USER    (1) Final Intermolecular Energy     =  -12.79 kcal/mol
DOCKED: USER        vdW + Hbond + desolv Energy     =  -12.79 kcal/mol
DOCKED: USER        Electrostatic Energy            =   +0.00 kcal/mol
DOCKED: USER    (2) Final Total Internal Energy     =   -1.14 kcal/mol
DOCKED: USER    (3) Torsional Free Energy           =   +2.09 kcal/mol
DOCKED: USER    (4) Unbound System's Energy  [=(2)] =   -1.14 kcal/mol
DOCKED: USER    
DOCKED: USER    
DOCKED: USER    NEWDPF move ligand.pdbqt
DOCKED: USER    NEWDPF about 0.576000 -0.005000 0.140000
DOCKED: USER    NEWDPF tran0 22.066445 -8.969745 -6.015730
DOCKED: USER    NEWDPF quaternion0 -0.691321 -0.105786 -0.692962 0.175183
DOCKED: USER    NEWDPF axisangle0 -0.702179 -0.107447 -0.703846 159.821386
DOCKED: USER    NEWDPF quat0 -0.702179 -0.107447 -0.703846 159.821386
DOCKED: USER    NEWDPF dihe0 -113.05 169.59 146.37 84.97 -178.94 161.45 -39.16 
DOCKED: USER  keepresnum = 1 
DOCKED: USER  
DOCKED: REMARK  Name = 
DOCKED: REMARK  8 active torsions:
DOCKED: REMARK  status: ('A' for Active; 'I' for Inactive)
DOCKED: REMARK    1  A    between atoms: C_2  and  C_3
DOCKED: REMARK    2  A    between atoms: C_4  and  C_5
DOCKED: REMARK    3  A    between atoms: C_8  and  C_9
DOCKED: REMARK    4  A    between atoms: C_9  and  N_10
DOCKED: REMARK    5  A    between atoms: N_10  and  C_11
DOCKED: REMARK    6  A    between atoms: C_11  and  C_12
DOCKED: REMARK    7  A    between atoms: C_12  and  C_13
DOCKED: REMARK    8  A    between atoms: C_14  and  C_22
DOCKED: REMARK                            x       y       z     vdW  Elec       q    Type
DOCKED: REMARK                         _______ _______ _______ _____ _____    ______ ____
DOCKED: USER                              x       y       z     vdW  Elec       q    Type
DOCKED: USER                           _______ _______ _______ _____ _____    ______ ____
DOCKED: ROOT
DOCKED: ATOM      1  N   UNL     1      22.347  -9.386  -6.615 -0.24 -0.00    +0.000 N 
DOCKED: ATOM      2  H   UNL     1      22.857  -9.898  -5.896 -0.02 -0.00    +0.000 HD
DOCKED: ATOM      3  H   UNL     1      22.877  -8.579  -6.945 -0.01 -0.00    +0.000 HD
DOCKED: ENDROOT
DOCKED: BRANCH   1   4
DOCKED: ATOM      4  C   UNL     1      21.090  -8.891  -6.041 -0.22 -0.00    +0.000 C 
DOCKED: BRANCH   4   8
DOCKED: ATOM      5  C   UNL     1      20.972  -9.641  -1.783 -0.53 -0.00    +0.000 A 
DOCKED: ATOM      6  C   UNL     1      21.433  -8.405  -2.280 -0.41 -0.00    +0.000 A 
DOCKED: ATOM      7  C   UNL     1      21.480  -8.170  -3.658 -0.32 -0.00    +0.000 A 
DOCKED: ATOM      8  C   UNL     1      21.074  -9.162  -4.562 -0.31 -0.00    +0.000 A 
DOCKED: ATOM      9  C   UNL     1      20.584 -10.381  -4.070 -0.42 -0.00    +0.000 A 
DOCKED: ATOM     10  C   UNL     1      20.534 -10.617  -2.694 -0.44 -0.00    +0.000 A 
DOCKED: BRANCH   5  12
DOCKED: ATOM     11  C   UNL     1      19.947 -10.725   0.214 -0.62 -0.00    +0.000 C 
DOCKED: ATOM     12  C   UNL     1      20.889  -9.940  -0.331 -0.67 -0.00    +0.000 C 
DOCKED: BRANCH  11  14
DOCKED: ATOM     13  O   UNL     1      19.285 -10.188   2.409 -0.69 -0.00    +0.000 OA
DOCKED: ATOM     14  C   UNL     1      19.868 -11.016   1.660 -0.70 -0.00    +0.000 C 
DOCKED: ATOM     15  N   UNL     1      20.453 -12.190   2.239 -0.69 -0.00    +0.000 N 
DOCKED: ATOM     16  O   UNL     1      20.264 -12.465   3.551 -1.34 -0.00    +0.000 OA
DOCKED: ATOM     17  H   UNL     1      20.993 -12.796   1.682 -0.60 -0.00    +0.000 HD
DOCKED: ENDBRANCH  11  14
DOCKED: ENDBRANCH   5  12
DOCKED: ENDBRANCH   4   8
DOCKED: ENDBRANCH   1   4
DOCKED: BRANCH   1  18
DOCKED: ATOM     18  C   UNL     1      22.125 -10.277  -7.763 -0.28 -0.00    +0.000 C 
DOCKED: BRANCH  18  19
DOCKED: ATOM     19  C   UNL     1      22.818 -11.639  -7.595 -0.44 -0.00    +0.000 C 
DOCKED: BRANCH  19  20
DOCKED: ATOM     20  C   UNL     1      24.113 -11.664  -8.354 -0.39 -0.00    +0.000 A 
DOCKED: ATOM     21  C   UNL     1      24.497 -12.568  -9.347 -0.36 -0.00    +0.000 A 
DOCKED: ATOM     22  N   UNL     1      25.764 -12.320  -9.755 -0.25 -0.00    +0.000 N 
DOCKED: ATOM     23  C   UNL     1      26.193 -11.283  -9.016 -0.34 -0.00    +0.000 A 
DOCKED: ATOM     24  C   UNL     1      25.218 -10.860  -8.146 -0.35 -0.00    +0.000 A 
DOCKED: ATOM     25  C   UNL     1      25.437  -9.809  -7.255 -0.22 -0.00    +0.000 A 
DOCKED: ATOM     26  C   UNL     1      26.694  -9.179  -7.278 -0.35 -0.00    +0.000 A 
DOCKED: ATOM     27  C   UNL     1      27.695  -9.611  -8.177 -0.34 -0.00    +0.000 A 
DOCKED: ATOM     28  C   UNL     1      27.448 -10.678  -9.059 -0.33 -0.00    +0.000 A 
DOCKED: ATOM     29  C   UNL     1      23.644 -13.659  -9.911 -0.43 -0.00    +0.000 C 
DOCKED: ATOM     30  H   UNL     1      26.268 -12.801 -10.451 -0.48 -0.00    +0.000 HD
DOCKED: ENDBRANCH  19  20
DOCKED: ENDBRANCH  18  19
DOCKED: ENDBRANCH   1  18
DOCKED: TORSDOF 7
DOCKED: TER
DOCKED: ENDMDL
________________________________________________________________________________


	BEGINNING GENETIC ALGORITHM DOCKING 76 of 100
Run: 76 Seed: 18715015 1272459199 [ Run 76 of 100 GA/GALS ]
Beginning LAMARCKIAN GENETIC ALGORITHM (LGA), with a maximum of 2500000 energy evaluations.

Final-Value: -13.218


	FINAL GENETIC ALGORITHM DOCKED STATE
	_______________________________________________


Detailed state:  trans 20.187 -10.614 -6.293 quatxyzw 0.459547 -0.562128 0.499363 -0.472721 center 0.576 -0.005 0.140 ntor 7 43.4497 -116.7821 -180.0000 -110.8699 158.0239 3.9257 11.7854
State:	 20.187 -10.614  -6.293   0.521 -0.638  0.567 -123.578     43.45 -116.78 -180.00 -110.87  158.02    3.93   11.79

DOCKED: MODEL       76
DOCKED: USER    Run = 76
DOCKED: USER    DPF = ligand_dock.biased.dpf
DOCKED: USER  
DOCKED: USER    Estimated Free Energy of Binding    =   -9.90 kcal/mol  [=(1)+(2)+(3)-(4)]
DOCKED: USER    Estimated Inhibition Constant, Ki   =   55.48 nM (nanomolar)  [Temperature = 298.15 K]
DOCKED: USER    
DOCKED: USER    (1) Final Intermolecular Energy     =  -11.99 kcal/mol
DOCKED: USER        vdW + Hbond + desolv Energy     =  -11.99 kcal/mol
DOCKED: USER        Electrostatic Energy            =   +0.00 kcal/mol
DOCKED: USER    (2) Final Total Internal Energy     =   -1.23 kcal/mol
DOCKED: USER    (3) Torsional Free Energy           =   +2.09 kcal/mol
DOCKED: USER    (4) Unbound System's Energy  [=(2)] =   -1.23 kcal/mol
DOCKED: USER    
DOCKED: USER    
DOCKED: USER    NEWDPF move ligand.pdbqt
DOCKED: USER    NEWDPF about 0.576000 -0.005000 0.140000
DOCKED: USER    NEWDPF tran0 20.186839 -10.613971 -6.292799
DOCKED: USER    NEWDPF quaternion0 0.459547 -0.562128 0.499363 -0.472721
DOCKED: USER    NEWDPF axisangle0 0.521494 -0.637903 0.566678 -123.577833
DOCKED: USER    NEWDPF quat0 0.521494 -0.637903 0.566678 -123.577833
DOCKED: USER    NEWDPF dihe0 43.45 -116.78 -180.00 -110.87 158.02 3.93 11.79 
DOCKED: USER  keepresnum = 1 
DOCKED: USER  
DOCKED: REMARK  Name = 
DOCKED: REMARK  8 active torsions:
DOCKED: REMARK  status: ('A' for Active; 'I' for Inactive)
DOCKED: REMARK    1  A    between atoms: C_2  and  C_3
DOCKED: REMARK    2  A    between atoms: C_4  and  C_5
DOCKED: REMARK    3  A    between atoms: C_8  and  C_9
DOCKED: REMARK    4  A    between atoms: C_9  and  N_10
DOCKED: REMARK    5  A    between atoms: N_10  and  C_11
DOCKED: REMARK    6  A    between atoms: C_11  and  C_12
DOCKED: REMARK    7  A    between atoms: C_12  and  C_13
DOCKED: REMARK    8  A    between atoms: C_14  and  C_22
DOCKED: REMARK                            x       y       z     vdW  Elec       q    Type
DOCKED: REMARK                         _______ _______ _______ _____ _____    ______ ____
DOCKED: USER                              x       y       z     vdW  Elec       q    Type
DOCKED: USER                           _______ _______ _______ _____ _____    ______ ____
DOCKED: ROOT
DOCKED: ATOM      1  N   UNL     1      20.138 -10.878  -7.027 -0.30 -0.00    +0.000 N 
DOCKED: ATOM      2  H   UNL     1      19.342 -11.413  -6.679 -0.09 -0.00    +0.000 HD
DOCKED: ATOM      3  H   UNL     1      21.012 -11.392  -6.916 -0.28 -0.00    +0.000 HD
DOCKED: ENDROOT
DOCKED: BRANCH   1   4
DOCKED: ATOM      4  C   UNL     1      20.247  -9.637  -6.250 -0.23 -0.00    +0.000 C 
DOCKED: BRANCH   4   8
DOCKED: ATOM      5  C   UNL     1      20.721 -10.527  -2.044 -0.49 -0.00    +0.000 A 
DOCKED: ATOM      6  C   UNL     1      21.766 -10.788  -2.954 -0.25 -0.00    +0.000 A 
DOCKED: ATOM      7  C   UNL     1      21.605 -10.510  -4.315 -0.43 -0.00    +0.000 A 
DOCKED: ATOM      8  C   UNL     1      20.401  -9.971  -4.792 -0.32 -0.00    +0.000 A 
DOCKED: ATOM      9  C   UNL     1      19.372  -9.679  -3.885 -0.28 -0.00    +0.000 A 
DOCKED: ATOM     10  C   UNL     1      19.532  -9.955  -2.525 -0.31 -0.00    +0.000 A 
DOCKED: BRANCH   5  12
DOCKED: ATOM     11  C   UNL     1      19.856 -11.311   0.158 -0.61 -0.00    +0.000 C 
DOCKED: ATOM     12  C   UNL     1      20.842 -10.791  -0.588 -0.60 -0.00    +0.000 C 
DOCKED: BRANCH  11  14
DOCKED: ATOM     13  O   UNL     1      19.841 -12.751   2.020 -1.59 -0.00    +0.000 OA
DOCKED: ATOM     14  C   UNL     1      19.982 -11.569   1.607 -0.75 -0.00    +0.000 C 
DOCKED: ATOM     15  N   UNL     1      20.230 -10.523   2.554 -0.65 -0.00    +0.000 N 
DOCKED: ATOM     16  O   UNL     1      20.442 -10.824   3.857 -1.13 -0.00    +0.000 OA
DOCKED: ATOM     17  H   UNL     1      20.247  -9.585   2.257 -0.49 -0.00    +0.000 HD
DOCKED: ENDBRANCH  11  14
DOCKED: ENDBRANCH   5  12
DOCKED: ENDBRANCH   4   8
DOCKED: ENDBRANCH   1   4
DOCKED: BRANCH   1  18
DOCKED: ATOM     18  C   UNL     1      19.946 -10.624  -8.463 -0.12 -0.00    +0.000 C 
DOCKED: BRANCH  18  19
DOCKED: ATOM     19  C   UNL     1      21.248 -10.212  -9.168 -0.20 -0.00    +0.000 C 
DOCKED: BRANCH  19  20
DOCKED: ATOM     20  C   UNL     1      22.239 -11.340  -9.139 -0.24 -0.00    +0.000 A 
DOCKED: ATOM     21  C   UNL     1      23.194 -11.605  -8.156 -0.37 -0.00    +0.000 A 
DOCKED: ATOM     22  N   UNL     1      23.956 -12.669  -8.503 -0.43 -0.00    +0.000 N 
DOCKED: ATOM     23  C   UNL     1      23.506 -13.066  -9.706 -0.36 -0.00    +0.000 A 
DOCKED: ATOM     24  C   UNL     1      22.465 -12.277 -10.129 -0.23 -0.00    +0.000 A 
DOCKED: ATOM     25  C   UNL     1      21.846 -12.481 -11.363 -0.02 -0.00    +0.000 A 
DOCKED: ATOM     26  C   UNL     1      22.316 -13.534 -12.168 -0.22 -0.00    +0.000 A 
DOCKED: ATOM     27  C   UNL     1      23.384 -14.348 -11.730 -0.28 +0.00    +0.000 A 
DOCKED: ATOM     28  C   UNL     1      23.993 -14.116 -10.484 -0.37 -0.00    +0.000 A 
DOCKED: ATOM     29  C   UNL     1      23.366 -10.845  -6.879 -0.28 -0.00    +0.000 C 
DOCKED: ATOM     30  H   UNL     1      24.690 -13.069  -7.982 -0.05 -0.00    +0.000 HD
DOCKED: ENDBRANCH  19  20
DOCKED: ENDBRANCH  18  19
DOCKED: ENDBRANCH   1  18
DOCKED: TORSDOF 7
DOCKED: TER
DOCKED: ENDMDL
________________________________________________________________________________


	BEGINNING GENETIC ALGORITHM DOCKING 77 of 100
Run: 77 Seed: 10553662 1307467443 [ Run 77 of 100 GA/GALS ]
Beginning LAMARCKIAN GENETIC ALGORITHM (LGA), with a maximum of 2500000 energy evaluations.

Final-Value: -13.760


	FINAL GENETIC ALGORITHM DOCKED STATE
	_______________________________________________


Detailed state:  trans 21.316 -11.899 0.972 quatxyzw -0.688148 0.669748 -0.254242 -0.115114 center 0.576 -0.005 0.140 ntor 7 -91.1701 -162.5355 -154.5026 80.8743 -24.6378 -176.0292 -109.4417
State:	 21.316 -11.899   0.972  -0.693  0.674 -0.256 -166.780    -91.17 -162.54 -154.50   80.87  -24.64 -176.03 -109.44

DOCKED: MODEL       77
DOCKED: USER    Run = 77
DOCKED: USER    DPF = ligand_dock.biased.dpf
DOCKED: USER  
DOCKED: USER    Estimated Free Energy of Binding    =  -10.32 kcal/mol  [=(1)+(2)+(3)-(4)]
DOCKED: USER    Estimated Inhibition Constant, Ki   =   27.19 nM (nanomolar)  [Temperature = 298.15 K]
DOCKED: USER    
DOCKED: USER    (1) Final Intermolecular Energy     =  -12.41 kcal/mol
DOCKED: USER        vdW + Hbond + desolv Energy     =  -12.41 kcal/mol
DOCKED: USER        Electrostatic Energy            =   +0.00 kcal/mol
DOCKED: USER    (2) Final Total Internal Energy     =   -1.35 kcal/mol
DOCKED: USER    (3) Torsional Free Energy           =   +2.09 kcal/mol
DOCKED: USER    (4) Unbound System's Energy  [=(2)] =   -1.35 kcal/mol
DOCKED: USER    
DOCKED: USER    
DOCKED: USER    NEWDPF move ligand.pdbqt
DOCKED: USER    NEWDPF about 0.576000 -0.005000 0.140000
DOCKED: USER    NEWDPF tran0 21.315960 -11.898581 0.972158
DOCKED: USER    NEWDPF quaternion0 -0.688148 0.669748 -0.254242 -0.115114
DOCKED: USER    NEWDPF axisangle0 -0.692753 0.674230 -0.255944 -166.779622
DOCKED: USER    NEWDPF quat0 -0.692753 0.674230 -0.255944 -166.779622
DOCKED: USER    NEWDPF dihe0 -91.17 -162.54 -154.50 80.87 -24.64 -176.03 -109.44 
DOCKED: USER  keepresnum = 1 
DOCKED: USER  
DOCKED: REMARK  Name = 
DOCKED: REMARK  8 active torsions:
DOCKED: REMARK  status: ('A' for Active; 'I' for Inactive)
DOCKED: REMARK    1  A    between atoms: C_2  and  C_3
DOCKED: REMARK    2  A    between atoms: C_4  and  C_5
DOCKED: REMARK    3  A    between atoms: C_8  and  C_9
DOCKED: REMARK    4  A    between atoms: C_9  and  N_10
DOCKED: REMARK    5  A    between atoms: N_10  and  C_11
DOCKED: REMARK    6  A    between atoms: C_11  and  C_12
DOCKED: REMARK    7  A    between atoms: C_12  and  C_13
DOCKED: REMARK    8  A    between atoms: C_14  and  C_22
DOCKED: REMARK                            x       y       z     vdW  Elec       q    Type
DOCKED: REMARK                         _______ _______ _______ _____ _____    ______ ____
DOCKED: USER                              x       y       z     vdW  Elec       q    Type
DOCKED: USER                           _______ _______ _______ _____ _____    ______ ____
DOCKED: ROOT
DOCKED: ATOM      1  N   UNL     1      21.384 -11.269   0.515 -0.59 -0.00    +0.000 N 
DOCKED: ATOM      2  H   UNL     1      21.056 -11.889  -0.225 +0.02 -0.00    +0.000 HD
DOCKED: ATOM      3  H   UNL     1      22.401 -11.298   0.603 -0.52 -0.00    +0.000 HD
DOCKED: ENDROOT
DOCKED: BRANCH   1   4
DOCKED: ATOM      4  C   UNL     1      20.812 -11.712   1.792 -0.69 -0.00    +0.000 C 
DOCKED: BRANCH   4   8
DOCKED: ATOM      5  C   UNL     1      16.512 -11.291   1.585 -0.38 +0.00    +0.000 A 
DOCKED: ATOM      6  C   UNL     1      17.273 -10.467   2.439 -0.43 +0.00    +0.000 A 
DOCKED: ATOM      7  C   UNL     1      18.661 -10.614   2.512 -0.53 -0.00    +0.000 A 
DOCKED: ATOM      8  C   UNL     1      19.315 -11.585   1.740 -0.61 -0.00    +0.000 A 
DOCKED: ATOM      9  C   UNL     1      18.565 -12.384   0.864 -0.48 -0.00    +0.000 A 
DOCKED: ATOM     10  C   UNL     1      17.178 -12.238   0.789 -0.45 +0.00    +0.000 A 
DOCKED: BRANCH   5  12
DOCKED: ATOM     11  C   UNL     1      14.306 -11.872   0.580 -0.46 +0.00    +0.000 C 
DOCKED: ATOM     12  C   UNL     1      15.038 -11.170   1.460 -0.41 +0.00    +0.000 C 
DOCKED: BRANCH  11  14
DOCKED: ATOM     13  O   UNL     1      12.371 -11.122  -0.531 -0.36 +0.00    +0.000 OA
DOCKED: ATOM     14  C   UNL     1      12.840 -11.745   0.459 -0.40 +0.00    +0.000 C 
DOCKED: ATOM     15  N   UNL     1      11.940 -12.281   1.437 -0.39 +0.00    +0.000 N 
DOCKED: ATOM     16  O   UNL     1      10.603 -12.232   1.228 -0.54 +0.00    +0.000 OA
DOCKED: ATOM     17  H   UNL     1      12.294 -12.685   2.261 -0.55 +0.00    +0.000 HD
DOCKED: ENDBRANCH  11  14
DOCKED: ENDBRANCH   5  12
DOCKED: ENDBRANCH   4   8
DOCKED: ENDBRANCH   1   4
DOCKED: BRANCH   1  18
DOCKED: ATOM     18  C   UNL     1      21.002  -9.889   0.179 -0.68 -0.00    +0.000 C 
DOCKED: BRANCH  18  19
DOCKED: ATOM     19  C   UNL     1      19.900  -9.826  -0.891 -0.32 -0.00    +0.000 C 
DOCKED: BRANCH  19  20
DOCKED: ATOM     20  C   UNL     1      20.484  -9.452  -2.222 -0.43 -0.00    +0.000 A 
DOCKED: ATOM     21  C   UNL     1      21.109  -8.252  -2.567 -0.41 -0.00    +0.000 A 
DOCKED: ATOM     22  N   UNL     1      21.447  -8.249  -3.879 -0.34 -0.00    +0.000 N 
DOCKED: ATOM     23  C   UNL     1      21.023  -9.425  -4.371 -0.34 -0.00    +0.000 A 
DOCKED: ATOM     24  C   UNL     1      20.425 -10.183  -3.394 -0.42 -0.00    +0.000 A 
DOCKED: ATOM     25  C   UNL     1      19.883 -11.439  -3.670 -0.31 -0.00    +0.000 A 
DOCKED: ATOM     26  C   UNL     1      19.974 -11.919  -4.989 -0.41 -0.00    +0.000 A 
DOCKED: ATOM     27  C   UNL     1      20.595 -11.141  -5.992 -0.31 -0.00    +0.000 A 
DOCKED: ATOM     28  C   UNL     1      21.127  -9.876  -5.686 -0.29 -0.00    +0.000 A 
DOCKED: ATOM     29  C   UNL     1      21.391  -7.116  -1.637 -0.37 -0.00    +0.000 C 
DOCKED: ATOM     30  H   UNL     1      21.909  -7.531  -4.370 -0.02 -0.00    +0.000 HD
DOCKED: ENDBRANCH  19  20
DOCKED: ENDBRANCH  18  19
DOCKED: ENDBRANCH   1  18
DOCKED: TORSDOF 7
DOCKED: TER
DOCKED: ENDMDL
________________________________________________________________________________


	BEGINNING GENETIC ALGORITHM DOCKING 78 of 100
Run: 78 Seed: 1337710990 278783959 [ Run 78 of 100 GA/GALS ]
Beginning LAMARCKIAN GENETIC ALGORITHM (LGA), with a maximum of 2500000 energy evaluations.

Final-Value: -14.217


	FINAL GENETIC ALGORITHM DOCKED STATE
	_______________________________________________


Detailed state:  trans 19.729 -10.775 -6.175 quatxyzw -0.740866 0.194496 -0.330443 0.551449 center 0.576 -0.005 0.140 ntor 7 45.6493 173.7292 -158.2823 83.7070 -126.0247 -93.8039 -39.5256
State:	 19.729 -10.775  -6.175  -0.888  0.233 -0.396 113.067     45.65  173.73 -158.28   83.71 -126.02  -93.80  -39.53

DOCKED: MODEL       78
DOCKED: USER    Run = 78
DOCKED: USER    DPF = ligand_dock.biased.dpf
DOCKED: USER  
DOCKED: USER    Estimated Free Energy of Binding    =  -10.26 kcal/mol  [=(1)+(2)+(3)-(4)]
DOCKED: USER    Estimated Inhibition Constant, Ki   =   30.33 nM (nanomolar)  [Temperature = 298.15 K]
DOCKED: USER    
DOCKED: USER    (1) Final Intermolecular Energy     =  -12.34 kcal/mol
DOCKED: USER        vdW + Hbond + desolv Energy     =  -12.34 kcal/mol
DOCKED: USER        Electrostatic Energy            =   +0.00 kcal/mol
DOCKED: USER    (2) Final Total Internal Energy     =   -1.87 kcal/mol
DOCKED: USER    (3) Torsional Free Energy           =   +2.09 kcal/mol
DOCKED: USER    (4) Unbound System's Energy  [=(2)] =   -1.87 kcal/mol
DOCKED: USER    
DOCKED: USER    
DOCKED: USER    NEWDPF move ligand.pdbqt
DOCKED: USER    NEWDPF about 0.576000 -0.005000 0.140000
DOCKED: USER    NEWDPF tran0 19.728743 -10.775257 -6.174590
DOCKED: USER    NEWDPF quaternion0 -0.740866 0.194496 -0.330443 0.551449
DOCKED: USER    NEWDPF axisangle0 -0.888106 0.233151 -0.396116 113.066997
DOCKED: USER    NEWDPF quat0 -0.888106 0.233151 -0.396116 113.066997
DOCKED: USER    NEWDPF dihe0 45.65 173.73 -158.28 83.71 -126.02 -93.80 -39.53 
DOCKED: USER  keepresnum = 1 
DOCKED: USER  
DOCKED: REMARK  Name = 
DOCKED: REMARK  8 active torsions:
DOCKED: REMARK  status: ('A' for Active; 'I' for Inactive)
DOCKED: REMARK    1  A    between atoms: C_2  and  C_3
DOCKED: REMARK    2  A    between atoms: C_4  and  C_5
DOCKED: REMARK    3  A    between atoms: C_8  and  C_9
DOCKED: REMARK    4  A    between atoms: C_9  and  N_10
DOCKED: REMARK    5  A    between atoms: N_10  and  C_11
DOCKED: REMARK    6  A    between atoms: C_11  and  C_12
DOCKED: REMARK    7  A    between atoms: C_12  and  C_13
DOCKED: REMARK    8  A    between atoms: C_14  and  C_22
DOCKED: REMARK                            x       y       z     vdW  Elec       q    Type
DOCKED: REMARK                         _______ _______ _______ _____ _____    ______ ____
DOCKED: USER                              x       y       z     vdW  Elec       q    Type
DOCKED: USER                           _______ _______ _______ _____ _____    ______ ____
DOCKED: ROOT
DOCKED: ATOM      1  N   UNL     1      19.233 -11.157  -6.644 -0.35 -0.00    +0.000 N 
DOCKED: ATOM      2  H   UNL     1      19.267 -11.883  -5.928 -0.15 -0.00    +0.000 HD
DOCKED: ATOM      3  H   UNL     1      19.969 -11.284  -7.340 -0.11 -0.00    +0.000 HD
DOCKED: ENDROOT
DOCKED: BRANCH   1   4
DOCKED: ATOM      4  C   UNL     1      19.445  -9.853  -6.003 -0.25 -0.00    +0.000 C 
DOCKED: BRANCH   4   8
DOCKED: ATOM      5  C   UNL     1      20.395 -10.396  -1.818 -0.48 -0.00    +0.000 A 
DOCKED: ATOM      6  C   UNL     1      20.952  -9.326  -2.546 -0.46 -0.00    +0.000 A 
DOCKED: ATOM      7  C   UNL     1      20.652  -9.160  -3.902 -0.34 -0.00    +0.000 A 
DOCKED: ATOM      8  C   UNL     1      19.796 -10.058  -4.555 -0.31 -0.00    +0.000 A 
DOCKED: ATOM      9  C   UNL     1      19.213 -11.105  -3.826 -0.33 -0.00    +0.000 A 
DOCKED: ATOM     10  C   UNL     1      19.510 -11.271  -2.471 -0.25 -0.00    +0.000 A 
DOCKED: BRANCH   5  12
DOCKED: ATOM     11  C   UNL     1      19.805 -11.201   0.466 -0.64 -0.00    +0.000 C 
DOCKED: ATOM     12  C   UNL     1      20.669 -10.612  -0.375 -0.66 -0.00    +0.000 C 
DOCKED: BRANCH  11  14
DOCKED: ATOM     13  O   UNL     1      20.132 -12.592   2.337 -1.69 -0.00    +0.000 OA
DOCKED: ATOM     14  C   UNL     1      20.083 -11.411   1.901 -0.76 -0.00    +0.000 C 
DOCKED: ATOM     15  N   UNL     1      20.270 -10.322   2.814 -0.54 -0.00    +0.000 N 
DOCKED: ATOM     16  O   UNL     1      20.626 -10.566   4.097 -1.02 -0.00    +0.000 OA
DOCKED: ATOM     17  H   UNL     1      20.140  -9.396   2.507 -0.51 -0.00    +0.000 HD
DOCKED: ENDBRANCH  11  14
DOCKED: ENDBRANCH   5  12
DOCKED: ENDBRANCH   4   8
DOCKED: ENDBRANCH   1   4
DOCKED: BRANCH   1  18
DOCKED: ATOM     18  C   UNL     1      17.939 -11.236  -7.337 -0.36 -0.00    +0.000 C 
DOCKED: BRANCH  18  19
DOCKED: ATOM     19  C   UNL     1      16.931 -10.194  -6.825 -0.21 -0.00    +0.000 C 
DOCKED: BRANCH  19  20
DOCKED: ATOM     20  C   UNL     1      15.960 -10.830  -5.873 -0.23 -0.00    +0.000 A 
DOCKED: ATOM     21  C   UNL     1      14.977 -11.777  -6.170 -0.28 -0.00    +0.000 A 
DOCKED: ATOM     22  N   UNL     1      14.245 -12.068  -5.068 -0.27 -0.00    +0.000 N 
DOCKED: ATOM     23  C   UNL     1      14.741 -11.299  -4.083 -0.24 -0.00    +0.000 A 
DOCKED: ATOM     24  C   UNL     1      15.781 -10.526  -4.536 -0.22 -0.00    +0.000 A 
DOCKED: ATOM     25  C   UNL     1      16.443  -9.626  -3.700 -0.21 -0.00    +0.000 A 
DOCKED: ATOM     26  C   UNL     1      16.018  -9.537  -2.362 -0.13 -0.00    +0.000 A 
DOCKED: ATOM     27  C   UNL     1      14.951 -10.337  -1.896 -0.26 -0.00    +0.000 A 
DOCKED: ATOM     28  C   UNL     1      14.297 -11.230  -2.763 -0.29 -0.00    +0.000 A 
DOCKED: ATOM     29  C   UNL     1      14.751 -12.409  -7.506 -0.36 -0.00    +0.000 C 
DOCKED: ATOM     30  H   UNL     1      13.502 -12.711  -5.003 -0.45 -0.00    +0.000 HD
DOCKED: ENDBRANCH  19  20
DOCKED: ENDBRANCH  18  19
DOCKED: ENDBRANCH   1  18
DOCKED: TORSDOF 7
DOCKED: TER
DOCKED: ENDMDL
________________________________________________________________________________


	BEGINNING GENETIC ALGORITHM DOCKING 79 of 100
Run: 79 Seed: 1345782068 1768471069 [ Run 79 of 100 GA/GALS ]
Beginning LAMARCKIAN GENETIC ALGORITHM (LGA), with a maximum of 2500000 energy evaluations.

Final-Value: -13.982


	FINAL GENETIC ALGORITHM DOCKED STATE
	_______________________________________________


Detailed state:  trans 21.061 -11.062 1.619 quatxyzw -0.683539 0.007665 -0.515762 -0.516436 center 0.576 -0.005 0.140 ntor 7 -134.2704 -144.5350 135.2901 26.7538 22.5663 -168.3776 139.3519
State:	 21.061 -11.062   1.619  -0.798  0.009 -0.602 -117.813   -134.27 -144.54  135.29   26.75   22.57 -168.38  139.35

DOCKED: MODEL       79
DOCKED: USER    Run = 79
DOCKED: USER    DPF = ligand_dock.biased.dpf
DOCKED: USER  
DOCKED: USER    Estimated Free Energy of Binding    =  -10.78 kcal/mol  [=(1)+(2)+(3)-(4)]
DOCKED: USER    Estimated Inhibition Constant, Ki   =   12.56 nM (nanomolar)  [Temperature = 298.15 K]
DOCKED: USER    
DOCKED: USER    (1) Final Intermolecular Energy     =  -12.87 kcal/mol
DOCKED: USER        vdW + Hbond + desolv Energy     =  -12.87 kcal/mol
DOCKED: USER        Electrostatic Energy            =   +0.00 kcal/mol
DOCKED: USER    (2) Final Total Internal Energy     =   -1.11 kcal/mol
DOCKED: USER    (3) Torsional Free Energy           =   +2.09 kcal/mol
DOCKED: USER    (4) Unbound System's Energy  [=(2)] =   -1.11 kcal/mol
DOCKED: USER    
DOCKED: USER    
DOCKED: USER    NEWDPF move ligand.pdbqt
DOCKED: USER    NEWDPF about 0.576000 -0.005000 0.140000
DOCKED: USER    NEWDPF tran0 21.061321 -11.062478 1.619150
DOCKED: USER    NEWDPF quaternion0 -0.683539 0.007665 -0.515762 -0.516436
DOCKED: USER    NEWDPF axisangle0 -0.798223 0.008951 -0.602296 -117.813088
DOCKED: USER    NEWDPF quat0 -0.798223 0.008951 -0.602296 -117.813088
DOCKED: USER    NEWDPF dihe0 -134.27 -144.54 135.29 26.75 22.57 -168.38 139.35 
DOCKED: USER  keepresnum = 1 
DOCKED: USER  
DOCKED: REMARK  Name = 
DOCKED: REMARK  8 active torsions:
DOCKED: REMARK  status: ('A' for Active; 'I' for Inactive)
DOCKED: REMARK    1  A    between atoms: C_2  and  C_3
DOCKED: REMARK    2  A    between atoms: C_4  and  C_5
DOCKED: REMARK    3  A    between atoms: C_8  and  C_9
DOCKED: REMARK    4  A    between atoms: C_9  and  N_10
DOCKED: REMARK    5  A    between atoms: N_10  and  C_11
DOCKED: REMARK    6  A    between atoms: C_11  and  C_12
DOCKED: REMARK    7  A    between atoms: C_12  and  C_13
DOCKED: REMARK    8  A    between atoms: C_14  and  C_22
DOCKED: REMARK                            x       y       z     vdW  Elec       q    Type
DOCKED: REMARK                         _______ _______ _______ _____ _____    ______ ____
DOCKED: USER                              x       y       z     vdW  Elec       q    Type
DOCKED: USER                           _______ _______ _______ _____ _____    ______ ____
DOCKED: ROOT
DOCKED: ATOM      1  N   UNL     1      21.011 -10.520   1.058 -0.62 -0.00    +0.000 N 
DOCKED: ATOM      2  H   UNL     1      22.005 -10.704   0.925 -0.33 -0.00    +0.000 HD
DOCKED: ATOM      3  H   UNL     1      20.856  -9.793   1.757 -0.51 -0.00    +0.000 HD
DOCKED: ENDROOT
DOCKED: BRANCH   1   4
DOCKED: ATOM      4  C   UNL     1      20.365 -11.747   1.540 -0.77 -0.00    +0.000 C 
DOCKED: BRANCH   4   8
DOCKED: ATOM      5  C   UNL     1      16.095 -11.077   1.698 -0.37 +0.00    +0.000 A 
DOCKED: ATOM      6  C   UNL     1      16.966 -10.347   2.532 -0.42 +0.00    +0.000 A 
DOCKED: ATOM      7  C   UNL     1      18.345 -10.575   2.487 -0.50 -0.00    +0.000 A 
DOCKED: ATOM      8  C   UNL     1      18.878 -11.534   1.614 -0.55 -0.00    +0.000 A 
DOCKED: ATOM      9  C   UNL     1      18.018 -12.238   0.758 -0.49 -0.00    +0.000 A 
DOCKED: ATOM     10  C   UNL     1      16.640 -12.011   0.801 -0.43 +0.00    +0.000 A 
DOCKED: BRANCH   5  12
DOCKED: ATOM     11  C   UNL     1      13.755 -11.700   1.105 -0.45 +0.00    +0.000 C 
DOCKED: ATOM     12  C   UNL     1      14.625 -10.867   1.696 -0.38 +0.00    +0.000 C 
DOCKED: BRANCH  11  14
DOCKED: ATOM     13  O   UNL     1      11.839 -10.454   0.541 -0.26 +0.00    +0.000 OA
DOCKED: ATOM     14  C   UNL     1      12.294 -11.485   1.104 -0.43 +0.00    +0.000 C 
DOCKED: ATOM     15  N   UNL     1      11.385 -12.390   1.743 -0.44 +0.00    +0.000 N 
DOCKED: ATOM     16  O   UNL     1      10.050 -12.206   1.626 -0.51 +0.00    +0.000 OA
DOCKED: ATOM     17  H   UNL     1      11.733 -13.147   2.268 -0.65 +0.00    +0.000 HD
DOCKED: ENDBRANCH  11  14
DOCKED: ENDBRANCH   5  12
DOCKED: ENDBRANCH   4   8
DOCKED: ENDBRANCH   1   4
DOCKED: BRANCH   1  18
DOCKED: ATOM     18  C   UNL     1      20.442 -10.051  -0.214 -0.62 -0.00    +0.000 C 
DOCKED: BRANCH  18  19
DOCKED: ATOM     19  C   UNL     1      21.243 -10.536  -1.433 -0.62 -0.00    +0.000 C 
DOCKED: BRANCH  19  20
DOCKED: ATOM     20  C   UNL     1      20.996  -9.641  -2.612 -0.48 -0.00    +0.000 A 
DOCKED: ATOM     21  C   UNL     1      20.723 -10.025  -3.926 -0.40 -0.00    +0.000 A 
DOCKED: ATOM     22  N   UNL     1      20.624  -8.941  -4.731 -0.25 -0.00    +0.000 N 
DOCKED: ATOM     23  C   UNL     1      20.854  -7.876  -3.944 -0.29 -0.00    +0.000 A 
DOCKED: ATOM     24  C   UNL     1      21.091  -8.262  -2.648 -0.41 -0.00    +0.000 A 
DOCKED: ATOM     25  C   UNL     1      21.378  -7.333  -1.647 -0.34 -0.00    +0.000 A 
DOCKED: ATOM     26  C   UNL     1      21.411  -5.973  -2.003 -0.43 -0.00    +0.000 A 
DOCKED: ATOM     27  C   UNL     1      21.161  -5.576  -3.336 -0.27 -0.00    +0.000 A 
DOCKED: ATOM     28  C   UNL     1      20.880  -6.535  -4.325 -0.21 -0.00    +0.000 A 
DOCKED: ATOM     29  C   UNL     1      20.545 -11.431  -4.405 -0.45 -0.00    +0.000 C 
DOCKED: ATOM     30  H   UNL     1      20.426  -8.934  -5.696 +0.01 -0.00    +0.000 HD
DOCKED: ENDBRANCH  19  20
DOCKED: ENDBRANCH  18  19
DOCKED: ENDBRANCH   1  18
DOCKED: TORSDOF 7
DOCKED: TER
DOCKED: ENDMDL
________________________________________________________________________________


	BEGINNING GENETIC ALGORITHM DOCKING 80 of 100
Run: 80 Seed: 1738928850 100350248 [ Run 80 of 100 GA/GALS ]
Beginning LAMARCKIAN GENETIC ALGORITHM (LGA), with a maximum of 2500000 energy evaluations.

Final-Value: -14.653


	FINAL GENETIC ALGORITHM DOCKED STATE
	_______________________________________________


Detailed state:  trans 20.196 -10.829 -6.240 quatxyzw -0.112558 -0.834823 0.537529 -0.038260 center 0.576 -0.005 0.140 ntor 7 -103.1268 180.0000 -179.8285 45.7126 -14.7114 -165.5782 93.6508
State:	 20.196 -10.829  -6.240  -0.113 -0.835  0.538 -175.615   -103.13  180.00 -179.83   45.71  -14.71 -165.58   93.65

DOCKED: MODEL       80
DOCKED: USER    Run = 80
DOCKED: USER    DPF = ligand_dock.biased.dpf
DOCKED: USER  
DOCKED: USER    Estimated Free Energy of Binding    =  -11.59 kcal/mol  [=(1)+(2)+(3)-(4)]
DOCKED: USER    Estimated Inhibition Constant, Ki   =    3.17 nM (nanomolar)  [Temperature = 298.15 K]
DOCKED: USER    
DOCKED: USER    (1) Final Intermolecular Energy     =  -13.68 kcal/mol
DOCKED: USER        vdW + Hbond + desolv Energy     =  -13.68 kcal/mol
DOCKED: USER        Electrostatic Energy            =   +0.00 kcal/mol
DOCKED: USER    (2) Final Total Internal Energy     =   -0.97 kcal/mol
DOCKED: USER    (3) Torsional Free Energy           =   +2.09 kcal/mol
DOCKED: USER    (4) Unbound System's Energy  [=(2)] =   -0.97 kcal/mol
DOCKED: USER    
DOCKED: USER    
DOCKED: USER    NEWDPF move ligand.pdbqt
DOCKED: USER    NEWDPF about 0.576000 -0.005000 0.140000
DOCKED: USER    NEWDPF tran0 20.195732 -10.829009 -6.239948
DOCKED: USER    NEWDPF quaternion0 -0.112558 -0.834823 0.537529 -0.038260
DOCKED: USER    NEWDPF axisangle0 -0.112640 -0.835434 0.537923 -175.614642
DOCKED: USER    NEWDPF quat0 -0.112640 -0.835434 0.537923 -175.614642
DOCKED: USER    NEWDPF dihe0 -103.13 180.00 -179.83 45.71 -14.71 -165.58 93.65 
DOCKED: USER  keepresnum = 1 
DOCKED: USER  
DOCKED: REMARK  Name = 
DOCKED: REMARK  8 active torsions:
DOCKED: REMARK  status: ('A' for Active; 'I' for Inactive)
DOCKED: REMARK    1  A    between atoms: C_2  and  C_3
DOCKED: REMARK    2  A    between atoms: C_4  and  C_5
DOCKED: REMARK    3  A    between atoms: C_8  and  C_9
DOCKED: REMARK    4  A    between atoms: C_9  and  N_10
DOCKED: REMARK    5  A    between atoms: N_10  and  C_11
DOCKED: REMARK    6  A    between atoms: C_11  and  C_12
DOCKED: REMARK    7  A    between atoms: C_12  and  C_13
DOCKED: REMARK    8  A    between atoms: C_14  and  C_22
DOCKED: REMARK                            x       y       z     vdW  Elec       q    Type
DOCKED: REMARK                         _______ _______ _______ _____ _____    ______ ____
DOCKED: USER                              x       y       z     vdW  Elec       q    Type
DOCKED: USER                           _______ _______ _______ _____ _____    ______ ____
DOCKED: ROOT
DOCKED: ATOM      1  N   UNL     1      20.846 -11.215  -6.437 -0.29 -0.00    +0.000 N 
DOCKED: ATOM      2  H   UNL     1      20.384 -11.338  -7.338 -0.19 -0.00    +0.000 HD
DOCKED: ATOM      3  H   UNL     1      20.611 -11.969  -5.791 -0.42 -0.00    +0.000 HD
DOCKED: ENDROOT
DOCKED: BRANCH   1   4
DOCKED: ATOM      4  C   UNL     1      20.387  -9.955  -5.839 -0.30 -0.00    +0.000 C 
DOCKED: BRANCH   4   8
DOCKED: ATOM      5  C   UNL     1      19.789 -10.591  -1.603 -0.43 -0.00    +0.000 A 
DOCKED: ATOM      6  C   UNL     1      18.691 -10.563  -2.486 -0.32 -0.00    +0.000 A 
DOCKED: ATOM      7  C   UNL     1      18.887 -10.345  -3.853 -0.31 -0.00    +0.000 A 
DOCKED: ATOM      8  C   UNL     1      20.178 -10.149  -4.363 -0.35 -0.00    +0.000 A 
DOCKED: ATOM      9  C   UNL     1      21.276 -10.210  -3.493 -0.46 -0.00    +0.000 A 
DOCKED: ATOM     10  C   UNL     1      21.083 -10.428  -2.127 -0.51 -0.00    +0.000 A 
DOCKED: BRANCH   5  12
DOCKED: ATOM     11  C   UNL     1      20.626 -11.293   0.637 -0.70 -0.00    +0.000 C 
DOCKED: ATOM     12  C   UNL     1      19.640 -10.830  -0.146 -0.57 -0.00    +0.000 C 
DOCKED: BRANCH  11  14
DOCKED: ATOM     13  O   UNL     1      20.149 -12.685   2.475 -1.60 -0.00    +0.000 OA
DOCKED: ATOM     14  C   UNL     1      20.471 -11.531   2.086 -0.77 -0.00    +0.000 C 
DOCKED: ATOM     15  N   UNL     1      20.647 -10.491   3.058 -0.61 -0.00    +0.000 N 
DOCKED: ATOM     16  O   UNL     1      20.597 -10.782   4.378 -0.90 -0.00    +0.000 OA
DOCKED: ATOM     17  H   UNL     1      20.803  -9.565   2.763 -0.57 -0.00    +0.000 HD
DOCKED: ENDBRANCH  11  14
DOCKED: ENDBRANCH   5  12
DOCKED: ENDBRANCH   4   8
DOCKED: ENDBRANCH   1   4
DOCKED: BRANCH   1  18
DOCKED: ATOM     18  C   UNL     1      22.301 -11.239  -6.645 -0.46 -0.00    +0.000 C 
DOCKED: BRANCH  18  19
DOCKED: ATOM     19  C   UNL     1      22.705 -10.756  -8.047 -0.32 -0.00    +0.000 C 
DOCKED: BRANCH  19  20
DOCKED: ATOM     20  C   UNL     1      23.800 -11.621  -8.604 -0.35 -0.00    +0.000 A 
DOCKED: ATOM     21  C   UNL     1      25.177 -11.444  -8.458 -0.39 -0.00    +0.000 A 
DOCKED: ATOM     22  N   UNL     1      25.856 -12.384  -9.157 -0.32 -0.00    +0.000 N 
DOCKED: ATOM     23  C   UNL     1      24.923 -13.140  -9.761 -0.31 -0.00    +0.000 A 
DOCKED: ATOM     24  C   UNL     1      23.658 -12.702  -9.453 -0.36 -0.00    +0.000 A 
DOCKED: ATOM     25  C   UNL     1      22.522 -13.316  -9.982 -0.17 -0.00    +0.000 A 
DOCKED: ATOM     26  C   UNL     1      22.707 -14.413 -10.841 -0.36 +0.00    +0.000 A 
DOCKED: ATOM     27  C   UNL     1      24.009 -14.867 -11.152 -0.35 +0.00    +0.000 A 
DOCKED: ATOM     28  C   UNL     1      25.136 -14.224 -10.610 -0.28 -0.00    +0.000 A 
DOCKED: ATOM     29  C   UNL     1      25.838 -10.382  -7.639 -0.35 -0.00    +0.000 C 
DOCKED: ATOM     30  H   UNL     1      26.834 -12.490  -9.213 -0.38 -0.00    +0.000 HD
DOCKED: ENDBRANCH  19  20
DOCKED: ENDBRANCH  18  19
DOCKED: ENDBRANCH   1  18
DOCKED: TORSDOF 7
DOCKED: TER
DOCKED: ENDMDL
________________________________________________________________________________


	BEGINNING GENETIC ALGORITHM DOCKING 81 of 100
Run: 81 Seed: 1151335141 104076524 [ Run 81 of 100 GA/GALS ]
Beginning LAMARCKIAN GENETIC ALGORITHM (LGA), with a maximum of 2500000 energy evaluations.

Final-Value: -13.287


	FINAL GENETIC ALGORITHM DOCKED STATE
	_______________________________________________


Detailed state:  trans 13.818 -10.064 -1.008 quatxyzw -0.504296 -0.362669 0.652604 0.433895 center 0.576 -0.005 0.140 ntor 7 -70.1836 159.0736 174.3788 -97.9155 -128.5933 139.5921 -68.8260
State:	 13.818 -10.064  -1.008  -0.560 -0.403  0.724 128.570    -70.18  159.07  174.38  -97.92 -128.59  139.59  -68.83

DOCKED: MODEL       81
DOCKED: USER    Run = 81
DOCKED: USER    DPF = ligand_dock.biased.dpf
DOCKED: USER  
DOCKED: USER    Estimated Free Energy of Binding    =   -9.26 kcal/mol  [=(1)+(2)+(3)-(4)]
DOCKED: USER    Estimated Inhibition Constant, Ki   =  161.90 nM (nanomolar)  [Temperature = 298.15 K]
DOCKED: USER    
DOCKED: USER    (1) Final Intermolecular Energy     =  -11.35 kcal/mol
DOCKED: USER        vdW + Hbond + desolv Energy     =  -11.35 kcal/mol
DOCKED: USER        Electrostatic Energy            =   +0.00 kcal/mol
DOCKED: USER    (2) Final Total Internal Energy     =   -1.93 kcal/mol
DOCKED: USER    (3) Torsional Free Energy           =   +2.09 kcal/mol
DOCKED: USER    (4) Unbound System's Energy  [=(2)] =   -1.93 kcal/mol
DOCKED: USER    
DOCKED: USER    
DOCKED: USER    NEWDPF move ligand.pdbqt
DOCKED: USER    NEWDPF about 0.576000 -0.005000 0.140000
DOCKED: USER    NEWDPF tran0 13.817538 -10.063999 -1.008094
DOCKED: USER    NEWDPF quaternion0 -0.504296 -0.362669 0.652604 0.433895
DOCKED: USER    NEWDPF axisangle0 -0.559729 -0.402535 0.724340 128.569962
DOCKED: USER    NEWDPF quat0 -0.559729 -0.402535 0.724340 128.569962
DOCKED: USER    NEWDPF dihe0 -70.18 159.07 174.38 -97.92 -128.59 139.59 -68.83 
DOCKED: USER  keepresnum = 1 
DOCKED: USER  
DOCKED: REMARK  Name = 
DOCKED: REMARK  8 active torsions:
DOCKED: REMARK  status: ('A' for Active; 'I' for Inactive)
DOCKED: REMARK    1  A    between atoms: C_2  and  C_3
DOCKED: REMARK    2  A    between atoms: C_4  and  C_5
DOCKED: REMARK    3  A    between atoms: C_8  and  C_9
DOCKED: REMARK    4  A    between atoms: C_9  and  N_10
DOCKED: REMARK    5  A    between atoms: N_10  and  C_11
DOCKED: REMARK    6  A    between atoms: C_11  and  C_12
DOCKED: REMARK    7  A    between atoms: C_12  and  C_13
DOCKED: REMARK    8  A    between atoms: C_14  and  C_22
DOCKED: REMARK                            x       y       z     vdW  Elec       q    Type
DOCKED: REMARK                         _______ _______ _______ _____ _____    ______ ____
DOCKED: USER                              x       y       z     vdW  Elec       q    Type
DOCKED: USER                           _______ _______ _______ _____ _____    ______ ____
DOCKED: ROOT
DOCKED: ATOM      1  N   UNL     1      13.907 -10.244  -0.253 -0.21 +0.00    +0.000 N 
DOCKED: ATOM      2  H   UNL     1      14.308 -11.112  -0.606 +0.00 +0.00    +0.000 HD
DOCKED: ATOM      3  H   UNL     1      12.896 -10.320  -0.137 +0.00 +0.00    +0.000 HD
DOCKED: ENDROOT
DOCKED: BRANCH   1   4
DOCKED: ATOM      4  C   UNL     1      14.166  -9.174  -1.224 -0.23 -0.00    +0.000 C 
DOCKED: BRANCH   4   8
DOCKED: ATOM      5  C   UNL     1      17.602 -10.175  -3.653 -0.23 -0.00    +0.000 A 
DOCKED: ATOM      6  C   UNL     1      16.511  -9.477  -4.208 -0.19 -0.00    +0.000 A 
DOCKED: ATOM      7  C   UNL     1      15.397  -9.165  -3.423 -0.18 -0.00    +0.000 A 
DOCKED: ATOM      8  C   UNL     1      15.349  -9.546  -2.074 -0.22 -0.00    +0.000 A 
DOCKED: ATOM      9  C   UNL     1      16.447 -10.212  -1.510 -0.20 -0.00    +0.000 A 
DOCKED: ATOM     10  C   UNL     1      17.561 -10.523  -2.292 -0.20 -0.00    +0.000 A 
DOCKED: BRANCH   5  12
DOCKED: ATOM     11  C   UNL     1      20.065 -10.380  -3.973 -0.43 -0.00    +0.000 C 
DOCKED: ATOM     12  C   UNL     1      18.814 -10.521  -4.437 -0.35 -0.00    +0.000 C 
DOCKED: BRANCH  11  14
DOCKED: ATOM     13  O   UNL     1      22.165  -9.851  -4.896 -0.41 -0.00    +0.000 OA
DOCKED: ATOM     14  C   UNL     1      21.268 -10.724  -4.758 -0.51 -0.00    +0.000 C 
DOCKED: ATOM     15  N   UNL     1      21.434 -12.001  -5.388 -0.53 -0.00    +0.000 N 
DOCKED: ATOM     16  O   UNL     1      22.598 -12.305  -6.008 -0.72 -0.00    +0.000 OA
DOCKED: ATOM     17  H   UNL     1      20.700 -12.657  -5.368 -0.57 -0.00    +0.000 HD
DOCKED: ENDBRANCH  11  14
DOCKED: ENDBRANCH   5  12
DOCKED: ENDBRANCH   4   8
DOCKED: ENDBRANCH   1   4
DOCKED: BRANCH   1  18
DOCKED: ATOM     18  C   UNL     1      14.489  -9.956   1.066 -0.27 +0.00    +0.000 C 
DOCKED: BRANCH  18  19
DOCKED: ATOM     19  C   UNL     1      14.947 -11.228   1.799 -0.44 +0.00    +0.000 C 
DOCKED: BRANCH  19  20
DOCKED: ATOM     20  C   UNL     1      16.256 -11.710   1.242 -0.40 +0.00    +0.000 A 
DOCKED: ATOM     21  C   UNL     1      16.454 -12.677   0.256 -0.47 +0.00    +0.000 A 
DOCKED: ATOM     22  N   UNL     1      17.776 -12.898   0.061 -0.40 +0.00    +0.000 N 
DOCKED: ATOM     23  C   UNL     1      18.415 -12.096   0.929 -0.52 -0.00    +0.000 A 
DOCKED: ATOM     24  C   UNL     1      17.524 -11.362   1.671 -0.41 +0.00    +0.000 A 
DOCKED: ATOM     25  C   UNL     1      17.950 -10.472   2.658 -0.47 -0.00    +0.000 A 
DOCKED: ATOM     26  C   UNL     1      19.334 -10.339   2.870 -0.54 -0.00    +0.000 A 
DOCKED: ATOM     27  C   UNL     1      20.251 -11.091   2.102 -0.66 -0.00    +0.000 A 
DOCKED: ATOM     28  C   UNL     1      19.792 -11.985   1.118 -0.62 -0.00    +0.000 A 
DOCKED: ATOM     29  C   UNL     1      15.376 -13.379  -0.507 -0.59 +0.00    +0.000 C 
DOCKED: ATOM     30  H   UNL     1      18.184 -13.520  -0.585 -0.39 -0.00    +0.000 HD
DOCKED: ENDBRANCH  19  20
DOCKED: ENDBRANCH  18  19
DOCKED: ENDBRANCH   1  18
DOCKED: TORSDOF 7
DOCKED: TER
DOCKED: ENDMDL
________________________________________________________________________________


	BEGINNING GENETIC ALGORITHM DOCKING 82 of 100
Run: 82 Seed: 511023907 1288664914 [ Run 82 of 100 GA/GALS ]
Beginning LAMARCKIAN GENETIC ALGORITHM (LGA), with a maximum of 2500000 energy evaluations.

Final-Value: -14.707


	FINAL GENETIC ALGORITHM DOCKED STATE
	_______________________________________________


Detailed state:  trans 12.218 -10.949 -1.999 quatxyzw 0.458146 -0.228606 -0.490106 -0.705435 center 0.576 -0.005 0.140 ntor 7 -180.0000 -147.4785 -179.6143 -138.7090 168.8376 156.7078 -73.3263
State:	 12.218 -10.949  -1.999   0.646 -0.323 -0.691 -90.271   -180.00 -147.48 -179.61 -138.71  168.84  156.71  -73.33

DOCKED: MODEL       82
DOCKED: USER    Run = 82
DOCKED: USER    DPF = ligand_dock.biased.dpf
DOCKED: USER  
DOCKED: USER    Estimated Free Energy of Binding    =   -9.61 kcal/mol  [=(1)+(2)+(3)-(4)]
DOCKED: USER    Estimated Inhibition Constant, Ki   =   90.05 nM (nanomolar)  [Temperature = 298.15 K]
DOCKED: USER    
DOCKED: USER    (1) Final Intermolecular Energy     =  -11.70 kcal/mol
DOCKED: USER        vdW + Hbond + desolv Energy     =  -11.70 kcal/mol
DOCKED: USER        Electrostatic Energy            =   +0.00 kcal/mol
DOCKED: USER    (2) Final Total Internal Energy     =   -3.01 kcal/mol
DOCKED: USER    (3) Torsional Free Energy           =   +2.09 kcal/mol
DOCKED: USER    (4) Unbound System's Energy  [=(2)] =   -3.01 kcal/mol
DOCKED: USER    
DOCKED: USER    
DOCKED: USER    NEWDPF move ligand.pdbqt
DOCKED: USER    NEWDPF about 0.576000 -0.005000 0.140000
DOCKED: USER    NEWDPF tran0 12.218266 -10.948756 -1.998900
DOCKED: USER    NEWDPF quaternion0 0.458146 -0.228606 -0.490106 -0.705435
DOCKED: USER    NEWDPF axisangle0 0.646391 -0.322536 -0.691483 -90.270615
DOCKED: USER    NEWDPF quat0 0.646391 -0.322536 -0.691483 -90.270615
DOCKED: USER    NEWDPF dihe0 -180.00 -147.48 -179.61 -138.71 168.84 156.71 -73.33 
DOCKED: USER  keepresnum = 1 
DOCKED: USER  
DOCKED: REMARK  Name = 
DOCKED: REMARK  8 active torsions:
DOCKED: REMARK  status: ('A' for Active; 'I' for Inactive)
DOCKED: REMARK    1  A    between atoms: C_2  and  C_3
DOCKED: REMARK    2  A    between atoms: C_4  and  C_5
DOCKED: REMARK    3  A    between atoms: C_8  and  C_9
DOCKED: REMARK    4  A    between atoms: C_9  and  N_10
DOCKED: REMARK    5  A    between atoms: N_10  and  C_11
DOCKED: REMARK    6  A    between atoms: C_11  and  C_12
DOCKED: REMARK    7  A    between atoms: C_12  and  C_13
DOCKED: REMARK    8  A    between atoms: C_14  and  C_22
DOCKED: REMARK                            x       y       z     vdW  Elec       q    Type
DOCKED: REMARK                         _______ _______ _______ _____ _____    ______ ____
DOCKED: USER                              x       y       z     vdW  Elec       q    Type
DOCKED: USER                           _______ _______ _______ _____ _____    ______ ____
DOCKED: ROOT
DOCKED: ATOM      1  N   UNL     1      11.746 -10.427  -1.658 -0.22 -0.00    +0.000 N 
DOCKED: ATOM      2  H   UNL     1      11.838 -11.024  -0.837 -0.03 +0.00    +0.000 HD
DOCKED: ATOM      3  H   UNL     1      10.969 -10.723  -2.250 -0.01 -0.00    +0.000 HD
DOCKED: ENDROOT
DOCKED: BRANCH   1   4
DOCKED: ATOM      4  C   UNL     1      12.976 -10.526  -2.453 -0.23 -0.00    +0.000 C 
DOCKED: BRANCH   4   8
DOCKED: ATOM      5  C   UNL     1      16.336 -11.534   0.077 -0.36 +0.00    +0.000 A 
DOCKED: ATOM      6  C   UNL     1      15.461 -12.538  -0.386 -0.47 +0.00    +0.000 A 
DOCKED: ATOM      7  C   UNL     1      14.369 -12.206  -1.194 -0.34 +0.00    +0.000 A 
DOCKED: ATOM      8  C   UNL     1      14.129 -10.872  -1.552 -0.29 -0.00    +0.000 A 
DOCKED: ATOM      9  C   UNL     1      15.016  -9.875  -1.121 -0.24 -0.00    +0.000 A 
DOCKED: ATOM     10  C   UNL     1      16.108 -10.204  -0.314 -0.25 -0.00    +0.000 A 
DOCKED: BRANCH   5  12
DOCKED: ATOM     11  C   UNL     1      18.253 -10.887   1.533 -0.52 -0.00    +0.000 C 
DOCKED: ATOM     12  C   UNL     1      17.517 -11.831   0.927 -0.51 +0.00    +0.000 C 
DOCKED: BRANCH  11  14
DOCKED: ATOM     13  O   UNL     1      19.953 -12.330   2.288 -1.80 -0.00    +0.000 OA
DOCKED: ATOM     14  C   UNL     1      19.427 -11.188   2.376 -0.70 -0.00    +0.000 C 
DOCKED: ATOM     15  N   UNL     1      19.969 -10.240   3.305 -0.62 -0.00    +0.000 N 
DOCKED: ATOM     16  O   UNL     1      21.109 -10.525   3.977 -0.73 -0.00    +0.000 OA
DOCKED: ATOM     17  H   UNL     1      19.511  -9.382   3.453 -0.52 -0.00    +0.000 HD
DOCKED: ENDBRANCH  11  14
DOCKED: ENDBRANCH   5  12
DOCKED: ENDBRANCH   4   8
DOCKED: ENDBRANCH   1   4
DOCKED: BRANCH   1  18
DOCKED: ATOM     18  C   UNL     1      11.475  -9.051  -1.215 -0.16 -0.00    +0.000 C 
DOCKED: BRANCH  18  19
DOCKED: ATOM     19  C   UNL     1      11.174  -8.965   0.290 -0.11 +0.00    +0.000 C 
DOCKED: BRANCH  19  20
DOCKED: ATOM     20  C   UNL     1      12.029  -9.937   1.051 -0.18 +0.00    +0.000 A 
DOCKED: ATOM     21  C   UNL     1      11.735 -11.267   1.355 -0.35 +0.00    +0.000 A 
DOCKED: ATOM     22  N   UNL     1      12.715 -11.812   2.116 -0.35 +0.00    +0.000 N 
DOCKED: ATOM     23  C   UNL     1      13.614 -10.833   2.313 -0.33 +0.00    +0.000 A 
DOCKED: ATOM     24  C   UNL     1      13.228  -9.674   1.686 -0.19 +0.00    +0.000 A 
DOCKED: ATOM     25  C   UNL     1      13.991  -8.508   1.767 -0.20 +0.00    +0.000 A 
DOCKED: ATOM     26  C   UNL     1      15.185  -8.554   2.509 -0.29 +0.00    +0.000 A 
DOCKED: ATOM     27  C   UNL     1      15.584  -9.748   3.150 -0.38 +0.00    +0.000 A 
DOCKED: ATOM     28  C   UNL     1      14.792 -10.906   3.056 -0.42 +0.00    +0.000 A 
DOCKED: ATOM     29  C   UNL     1      10.522 -12.018   0.906 -0.39 +0.00    +0.000 C 
DOCKED: ATOM     30  H   UNL     1      12.758 -12.735   2.455 -0.51 +0.00    +0.000 HD
DOCKED: ENDBRANCH  19  20
DOCKED: ENDBRANCH  18  19
DOCKED: ENDBRANCH   1  18
DOCKED: TORSDOF 7
DOCKED: TER
DOCKED: ENDMDL
________________________________________________________________________________


	BEGINNING GENETIC ALGORITHM DOCKING 83 of 100
Run: 83 Seed: 1161865494 262476170 [ Run 83 of 100 GA/GALS ]
Beginning LAMARCKIAN GENETIC ALGORITHM (LGA), with a maximum of 2500000 energy evaluations.

Final-Value: -13.869


	FINAL GENETIC ALGORITHM DOCKED STATE
	_______________________________________________


Detailed state:  trans 22.199 -10.092 -6.255 quatxyzw -0.313711 0.632103 -0.650618 -0.280582 center 0.576 -0.005 0.140 ntor 7 -135.0991 150.5227 -174.1181 139.0852 -24.6108 180.0000 67.5762
State:	 22.199 -10.092  -6.255  -0.327  0.659 -0.678 -147.410   -135.10  150.52 -174.12  139.09  -24.61  180.00   67.58

DOCKED: MODEL       83
DOCKED: USER    Run = 83
DOCKED: USER    DPF = ligand_dock.biased.dpf
DOCKED: USER  
DOCKED: USER    Estimated Free Energy of Binding    =  -10.55 kcal/mol  [=(1)+(2)+(3)-(4)]
DOCKED: USER    Estimated Inhibition Constant, Ki   =   18.41 nM (nanomolar)  [Temperature = 298.15 K]
DOCKED: USER    
DOCKED: USER    (1) Final Intermolecular Energy     =  -12.64 kcal/mol
DOCKED: USER        vdW + Hbond + desolv Energy     =  -12.64 kcal/mol
DOCKED: USER        Electrostatic Energy            =   +0.00 kcal/mol
DOCKED: USER    (2) Final Total Internal Energy     =   -1.23 kcal/mol
DOCKED: USER    (3) Torsional Free Energy           =   +2.09 kcal/mol
DOCKED: USER    (4) Unbound System's Energy  [=(2)] =   -1.23 kcal/mol
DOCKED: USER    
DOCKED: USER    
DOCKED: USER    NEWDPF move ligand.pdbqt
DOCKED: USER    NEWDPF about 0.576000 -0.005000 0.140000
DOCKED: USER    NEWDPF tran0 22.198792 -10.091668 -6.254651
DOCKED: USER    NEWDPF quaternion0 -0.313711 0.632103 -0.650618 -0.280582
DOCKED: USER    NEWDPF axisangle0 -0.326841 0.658558 -0.677847 -147.410091
DOCKED: USER    NEWDPF quat0 -0.326841 0.658558 -0.677847 -147.410091
DOCKED: USER    NEWDPF dihe0 -135.10 150.52 -174.12 139.09 -24.61 180.00 67.58 
DOCKED: USER  keepresnum = 1 
DOCKED: USER  
DOCKED: REMARK  Name = 
DOCKED: REMARK  8 active torsions:
DOCKED: REMARK  status: ('A' for Active; 'I' for Inactive)
DOCKED: REMARK    1  A    between atoms: C_2  and  C_3
DOCKED: REMARK    2  A    between atoms: C_4  and  C_5
DOCKED: REMARK    3  A    between atoms: C_8  and  C_9
DOCKED: REMARK    4  A    between atoms: C_9  and  N_10
DOCKED: REMARK    5  A    between atoms: N_10  and  C_11
DOCKED: REMARK    6  A    between atoms: C_11  and  C_12
DOCKED: REMARK    7  A    between atoms: C_12  and  C_13
DOCKED: REMARK    8  A    between atoms: C_14  and  C_22
DOCKED: REMARK                            x       y       z     vdW  Elec       q    Type
DOCKED: REMARK                         _______ _______ _______ _____ _____    ______ ____
DOCKED: USER                              x       y       z     vdW  Elec       q    Type
DOCKED: USER                           _______ _______ _______ _____ _____    ______ ____
DOCKED: ROOT
DOCKED: ATOM      1  N   UNL     1      22.886  -9.755  -6.412 -0.29 -0.00    +0.000 N 
DOCKED: ATOM      2  H   UNL     1      22.996 -10.514  -7.084 -0.01 -0.00    +0.000 HD
DOCKED: ATOM      3  H   UNL     1      23.241 -10.016  -5.492 +0.01 -0.00    +0.000 HD
DOCKED: ENDROOT
DOCKED: BRANCH   1   4
DOCKED: ATOM      4  C   UNL     1      21.457  -9.452  -6.271 -0.27 -0.00    +0.000 C 
DOCKED: BRANCH   4   8
DOCKED: ATOM      5  C   UNL     1      20.219 -10.518  -2.266 -0.45 -0.00    +0.000 A 
DOCKED: ATOM      6  C   UNL     1      19.753 -11.247  -3.378 -0.36 -0.00    +0.000 A 
DOCKED: ATOM      7  C   UNL     1      20.146 -10.893  -4.673 -0.42 -0.00    +0.000 A 
DOCKED: ATOM      8  C   UNL     1      21.005  -9.805  -4.881 -0.33 -0.00    +0.000 A 
DOCKED: ATOM      9  C   UNL     1      21.497  -9.097  -3.775 -0.34 -0.00    +0.000 A 
DOCKED: ATOM     10  C   UNL     1      21.107  -9.451  -2.481 -0.48 -0.00    +0.000 A 
DOCKED: BRANCH   5  12
DOCKED: ATOM     11  C   UNL     1      20.735 -11.042   0.115 -0.62 -0.00    +0.000 C 
DOCKED: ATOM     12  C   UNL     1      19.844 -10.858  -0.871 -0.53 -0.00    +0.000 C 
DOCKED: BRANCH  11  14
DOCKED: ATOM     13  O   UNL     1      19.740 -12.462   1.708 -1.69 -0.00    +0.000 OA
DOCKED: ATOM     14  C   UNL     1      20.356 -11.383   1.501 -0.76 -0.00    +0.000 C 
DOCKED: ATOM     15  N   UNL     1      20.640 -10.518   2.609 -0.60 -0.00    +0.000 N 
DOCKED: ATOM     16  O   UNL     1      20.366 -10.921   3.871 -1.16 -0.00    +0.000 OA
DOCKED: ATOM     17  H   UNL     1      21.033  -9.630   2.450 -0.56 -0.00    +0.000 HD
DOCKED: ENDBRANCH  11  14
DOCKED: ENDBRANCH   5  12
DOCKED: ENDBRANCH   4   8
DOCKED: ENDBRANCH   1   4
DOCKED: BRANCH   1  18
DOCKED: ATOM     18  C   UNL     1      23.660  -8.595  -6.880 -0.22 -0.00    +0.000 C 
DOCKED: BRANCH  18  19
DOCKED: ATOM     19  C   UNL     1      24.110  -8.737  -8.343 -0.16 -0.00    +0.000 C 
DOCKED: BRANCH  19  20
DOCKED: ATOM     20  C   UNL     1      24.662 -10.112  -8.590 -0.23 -0.00    +0.000 A 
DOCKED: ATOM     21  C   UNL     1      25.959 -10.562  -8.338 -0.35 -0.00    +0.000 A 
DOCKED: ATOM     22  N   UNL     1      26.110 -11.842  -8.752 -0.38 -0.00    +0.000 N 
DOCKED: ATOM     23  C   UNL     1      24.928 -12.199  -9.283 -0.36 -0.00    +0.000 A 
DOCKED: ATOM     24  C   UNL     1      24.022 -11.169  -9.209 -0.24 -0.00    +0.000 A 
DOCKED: ATOM     25  C   UNL     1      22.729 -11.293  -9.718 -0.21 -0.00    +0.000 A 
DOCKED: ATOM     26  C   UNL     1      22.369 -12.517 -10.308 -0.17 -0.00    +0.000 A 
DOCKED: ATOM     27  C   UNL     1      23.299 -13.578 -10.379 -0.36 -0.00    +0.000 A 
DOCKED: ATOM     28  C   UNL     1      24.598 -13.423  -9.863 -0.33 -0.00    +0.000 A 
DOCKED: ATOM     29  C   UNL     1      27.048  -9.768  -7.689 -0.43 -0.00    +0.000 C 
DOCKED: ATOM     30  H   UNL     1      26.920 -12.398  -8.680 -0.34 -0.00    +0.000 HD
DOCKED: ENDBRANCH  19  20
DOCKED: ENDBRANCH  18  19
DOCKED: ENDBRANCH   1  18
DOCKED: TORSDOF 7
DOCKED: TER
DOCKED: ENDMDL
________________________________________________________________________________


	BEGINNING GENETIC ALGORITHM DOCKING 84 of 100
Run: 84 Seed: 670684024 1399632773 [ Run 84 of 100 GA/GALS ]
Beginning LAMARCKIAN GENETIC ALGORITHM (LGA), with a maximum of 2500000 energy evaluations.

Final-Value: -14.345


	FINAL GENETIC ALGORITHM DOCKED STATE
	_______________________________________________


Detailed state:  trans 22.154 -8.592 -5.912 quatxyzw 0.647025 0.256426 0.702362 -0.149306 center 0.576 -0.005 0.140 ntor 7 -22.7720 -167.3303 176.7479 66.1458 179.6891 160.4151 -52.4209
State:	 22.154  -8.592  -5.912   0.654  0.259  0.710 -162.827    -22.77 -167.33  176.75   66.15  179.69  160.42  -52.42

DOCKED: MODEL       84
DOCKED: USER    Run = 84
DOCKED: USER    DPF = ligand_dock.biased.dpf
DOCKED: USER  
DOCKED: USER    Estimated Free Energy of Binding    =  -11.19 kcal/mol  [=(1)+(2)+(3)-(4)]
DOCKED: USER    Estimated Inhibition Constant, Ki   =    6.31 nM (nanomolar)  [Temperature = 298.15 K]
DOCKED: USER    
DOCKED: USER    (1) Final Intermolecular Energy     =  -13.27 kcal/mol
DOCKED: USER        vdW + Hbond + desolv Energy     =  -13.27 kcal/mol
DOCKED: USER        Electrostatic Energy            =   +0.00 kcal/mol
DOCKED: USER    (2) Final Total Internal Energy     =   -1.07 kcal/mol
DOCKED: USER    (3) Torsional Free Energy           =   +2.09 kcal/mol
DOCKED: USER    (4) Unbound System's Energy  [=(2)] =   -1.07 kcal/mol
DOCKED: USER    
DOCKED: USER    
DOCKED: USER    NEWDPF move ligand.pdbqt
DOCKED: USER    NEWDPF about 0.576000 -0.005000 0.140000
DOCKED: USER    NEWDPF tran0 22.153723 -8.591666 -5.912030
DOCKED: USER    NEWDPF quaternion0 0.647025 0.256426 0.702362 -0.149306
DOCKED: USER    NEWDPF axisangle0 0.654359 0.259332 0.710324 -162.826634
DOCKED: USER    NEWDPF quat0 0.654359 0.259332 0.710324 -162.826634
DOCKED: USER    NEWDPF dihe0 -22.77 -167.33 176.75 66.15 179.69 160.42 -52.42 
DOCKED: USER  keepresnum = 1 
DOCKED: USER  
DOCKED: REMARK  Name = 
DOCKED: REMARK  8 active torsions:
DOCKED: REMARK  status: ('A' for Active; 'I' for Inactive)
DOCKED: REMARK    1  A    between atoms: C_2  and  C_3
DOCKED: REMARK    2  A    between atoms: C_4  and  C_5
DOCKED: REMARK    3  A    between atoms: C_8  and  C_9
DOCKED: REMARK    4  A    between atoms: C_9  and  N_10
DOCKED: REMARK    5  A    between atoms: N_10  and  C_11
DOCKED: REMARK    6  A    between atoms: C_11  and  C_12
DOCKED: REMARK    7  A    between atoms: C_12  and  C_13
DOCKED: REMARK    8  A    between atoms: C_14  and  C_22
DOCKED: REMARK                            x       y       z     vdW  Elec       q    Type
DOCKED: REMARK                         _______ _______ _______ _____ _____    ______ ____
DOCKED: USER                              x       y       z     vdW  Elec       q    Type
DOCKED: USER                           _______ _______ _______ _____ _____    ______ ____
DOCKED: ROOT
DOCKED: ATOM      1  N   UNL     1      22.554  -9.024  -6.426 -0.24 -0.00    +0.000 N 
DOCKED: ATOM      2  H   UNL     1      23.147  -9.250  -5.628 -0.02 -0.00    +0.000 HD
DOCKED: ATOM      3  H   UNL     1      22.876  -8.183  -6.905 -0.01 -0.00    +0.000 HD
DOCKED: ENDROOT
DOCKED: BRANCH   1   4
DOCKED: ATOM      4  C   UNL     1      21.190  -8.770  -5.943 -0.23 -0.00    +0.000 C 
DOCKED: BRANCH   4   8
DOCKED: ATOM      5  C   UNL     1      20.892  -9.644  -1.718 -0.53 -0.00    +0.000 A 
DOCKED: ATOM      6  C   UNL     1      21.193  -8.340  -2.160 -0.43 -0.00    +0.000 A 
DOCKED: ATOM      7  C   UNL     1      21.301  -8.064  -3.527 -0.34 -0.00    +0.000 A 
DOCKED: ATOM      8  C   UNL     1      21.114  -9.080  -4.474 -0.31 -0.00    +0.000 A 
DOCKED: ATOM      9  C   UNL     1      20.781 -10.371  -4.039 -0.43 -0.00    +0.000 A 
DOCKED: ATOM     10  C   UNL     1      20.672 -10.649  -2.674 -0.43 -0.00    +0.000 A 
DOCKED: BRANCH   5  12
DOCKED: ATOM     11  C   UNL     1      20.281 -11.166   0.159 -0.63 -0.00    +0.000 C 
DOCKED: ATOM     12  C   UNL     1      20.754  -9.990  -0.281 -0.66 -0.00    +0.000 C 
DOCKED: BRANCH  11  14
DOCKED: ATOM     13  O   UNL     1      19.581 -12.588   1.900 -1.57 -0.00    +0.000 OA
DOCKED: ATOM     14  C   UNL     1      20.144 -11.504   1.590 -0.76 -0.00    +0.000 C 
DOCKED: ATOM     15  N   UNL     1      20.603 -10.633   2.631 -0.63 -0.00    +0.000 N 
DOCKED: ATOM     16  O   UNL     1      20.550 -11.034   3.923 -1.11 -0.00    +0.000 OA
DOCKED: ATOM     17  H   UNL     1      20.957  -9.743   2.406 -0.58 -0.00    +0.000 HD
DOCKED: ENDBRANCH  11  14
DOCKED: ENDBRANCH   5  12
DOCKED: ENDBRANCH   4   8
DOCKED: ENDBRANCH   1   4
DOCKED: BRANCH   1  18
DOCKED: ATOM     18  C   UNL     1      22.609 -10.137  -7.386 -0.31 -0.00    +0.000 C 
DOCKED: BRANCH  18  19
DOCKED: ATOM     19  C   UNL     1      23.635 -11.210  -6.985 -0.29 -0.00    +0.000 C 
DOCKED: BRANCH  19  20
DOCKED: ATOM     20  C   UNL     1      24.704 -11.329  -8.033 -0.39 -0.00    +0.000 A 
DOCKED: ATOM     21  C   UNL     1      24.732 -12.204  -9.120 -0.38 -0.00    +0.000 A 
DOCKED: ATOM     22  N   UNL     1      25.889 -12.072  -9.811 -0.28 -0.00    +0.000 N 
DOCKED: ATOM     23  C   UNL     1      26.602 -11.137  -9.159 -0.31 -0.00    +0.000 A 
DOCKED: ATOM     24  C   UNL     1      25.916 -10.666  -8.067 -0.35 -0.00    +0.000 A 
DOCKED: ATOM     25  C   UNL     1      26.464  -9.704  -7.217 -0.31 -0.00    +0.000 A 
DOCKED: ATOM     26  C   UNL     1      27.748  -9.217  -7.518 -0.37 -0.00    +0.000 A 
DOCKED: ATOM     27  C   UNL     1      28.451  -9.698  -8.645 -0.31 -0.00    +0.000 A 
DOCKED: ATOM     28  C   UNL     1      27.877 -10.673  -9.480 -0.28 -0.00    +0.000 A 
DOCKED: ATOM     29  C   UNL     1      23.644 -13.157  -9.502 -0.42 -0.00    +0.000 C 
DOCKED: ATOM     30  H   UNL     1      26.154 -12.561 -10.624 -0.37 -0.00    +0.000 HD
DOCKED: ENDBRANCH  19  20
DOCKED: ENDBRANCH  18  19
DOCKED: ENDBRANCH   1  18
DOCKED: TORSDOF 7
DOCKED: TER
DOCKED: ENDMDL
________________________________________________________________________________


	BEGINNING GENETIC ALGORITHM DOCKING 85 of 100
Run: 85 Seed: 1725545308 1323629602 [ Run 85 of 100 GA/GALS ]
Beginning LAMARCKIAN GENETIC ALGORITHM (LGA), with a maximum of 2500000 energy evaluations.

Final-Value: -13.589


	FINAL GENETIC ALGORITHM DOCKED STATE
	_______________________________________________


Detailed state:  trans 22.813 -9.177 -6.661 quatxyzw -0.670763 -0.330651 -0.531357 0.398004 center 0.576 -0.005 0.140 ntor 7 175.5147 -139.1620 174.7649 113.5689 -144.7795 122.2635 -83.8094
State:	 22.813  -9.177  -6.661  -0.731 -0.360 -0.579 133.093    175.51 -139.16  174.76  113.57 -144.78  122.26  -83.81

DOCKED: MODEL       85
DOCKED: USER    Run = 85
DOCKED: USER    DPF = ligand_dock.biased.dpf
DOCKED: USER  
DOCKED: USER    Estimated Free Energy of Binding    =  -10.40 kcal/mol  [=(1)+(2)+(3)-(4)]
DOCKED: USER    Estimated Inhibition Constant, Ki   =   23.68 nM (nanomolar)  [Temperature = 298.15 K]
DOCKED: USER    
DOCKED: USER    (1) Final Intermolecular Energy     =  -12.49 kcal/mol
DOCKED: USER        vdW + Hbond + desolv Energy     =  -12.49 kcal/mol
DOCKED: USER        Electrostatic Energy            =   +0.00 kcal/mol
DOCKED: USER    (2) Final Total Internal Energy     =   -1.10 kcal/mol
DOCKED: USER    (3) Torsional Free Energy           =   +2.09 kcal/mol
DOCKED: USER    (4) Unbound System's Energy  [=(2)] =   -1.10 kcal/mol
DOCKED: USER    
DOCKED: USER    
DOCKED: USER    NEWDPF move ligand.pdbqt
DOCKED: USER    NEWDPF about 0.576000 -0.005000 0.140000
DOCKED: USER    NEWDPF tran0 22.812535 -9.177055 -6.660844
DOCKED: USER    NEWDPF quaternion0 -0.670763 -0.330651 -0.531357 0.398004
DOCKED: USER    NEWDPF axisangle0 -0.731169 -0.360428 -0.579209 133.093102
DOCKED: USER    NEWDPF quat0 -0.731169 -0.360428 -0.579209 133.093102
DOCKED: USER    NEWDPF dihe0 175.51 -139.16 174.76 113.57 -144.78 122.26 -83.81 
DOCKED: USER  keepresnum = 1 
DOCKED: USER  
DOCKED: REMARK  Name = 
DOCKED: REMARK  8 active torsions:
DOCKED: REMARK  status: ('A' for Active; 'I' for Inactive)
DOCKED: REMARK    1  A    between atoms: C_2  and  C_3
DOCKED: REMARK    2  A    between atoms: C_4  and  C_5
DOCKED: REMARK    3  A    between atoms: C_8  and  C_9
DOCKED: REMARK    4  A    between atoms: C_9  and  N_10
DOCKED: REMARK    5  A    between atoms: N_10  and  C_11
DOCKED: REMARK    6  A    between atoms: C_11  and  C_12
DOCKED: REMARK    7  A    between atoms: C_12  and  C_13
DOCKED: REMARK    8  A    between atoms: C_14  and  C_22
DOCKED: REMARK                            x       y       z     vdW  Elec       q    Type
DOCKED: REMARK                         _______ _______ _______ _____ _____    ______ ____
DOCKED: USER                              x       y       z     vdW  Elec       q    Type
DOCKED: USER                           _______ _______ _______ _____ _____    ______ ____
DOCKED: ROOT
DOCKED: ATOM      1  N   UNL     1      22.960  -9.903  -6.909 -0.29 -0.00    +0.000 N 
DOCKED: ATOM      2  H   UNL     1      23.635  -9.924  -6.145 -0.02 -0.00    +0.000 HD
DOCKED: ATOM      3  H   UNL     1      23.378  -9.541  -7.766 +0.00 -0.00    +0.000 HD
DOCKED: ENDROOT
DOCKED: BRANCH   1   4
DOCKED: ATOM      4  C   UNL     1      21.854  -9.012  -6.538 -0.23 -0.00    +0.000 C 
DOCKED: BRANCH   4   8
DOCKED: ATOM      5  C   UNL     1      20.913  -9.457  -2.340 -0.48 -0.00    +0.000 A 
DOCKED: ATOM      6  C   UNL     1      21.149  -8.181  -2.890 -0.39 -0.00    +0.000 A 
DOCKED: ATOM      7  C   UNL     1      21.465  -8.042  -4.245 -0.28 -0.00    +0.000 A 
DOCKED: ATOM      8  C   UNL     1      21.554  -9.169  -5.073 -0.29 -0.00    +0.000 A 
DOCKED: ATOM      9  C   UNL     1      21.286 -10.437  -4.537 -0.43 -0.00    +0.000 A 
DOCKED: ATOM     10  C   UNL     1      20.969 -10.578  -3.184 -0.46 -0.00    +0.000 A 
DOCKED: BRANCH   5  12
DOCKED: ATOM     11  C   UNL     1      20.671 -10.840  -0.281 -0.64 -0.00    +0.000 C 
DOCKED: ATOM     12  C   UNL     1      20.562  -9.661  -0.912 -0.57 -0.00    +0.000 C 
DOCKED: BRANCH  11  14
DOCKED: ATOM     13  O   UNL     1      19.680 -10.128   1.732 -0.67 -0.00    +0.000 OA
DOCKED: ATOM     14  C   UNL     1      20.319 -11.037   1.140 -0.71 -0.00    +0.000 C 
DOCKED: ATOM     15  N   UNL     1      20.701 -12.211   1.869 -0.69 -0.00    +0.000 N 
DOCKED: ATOM     16  O   UNL     1      20.265 -12.392   3.138 -1.61 -0.00    +0.000 OA
DOCKED: ATOM     17  H   UNL     1      21.281 -12.884   1.447 -0.57 -0.00    +0.000 HD
DOCKED: ENDBRANCH  11  14
DOCKED: ENDBRANCH   5  12
DOCKED: ENDBRANCH   4   8
DOCKED: ENDBRANCH   1   4
DOCKED: BRANCH   1  18
DOCKED: ATOM     18  C   UNL     1      22.506 -11.276  -7.176 -0.43 -0.00    +0.000 C 
DOCKED: BRANCH  18  19
DOCKED: ATOM     19  C   UNL     1      23.664 -12.287  -7.194 -0.48 -0.00    +0.000 C 
DOCKED: BRANCH  19  20
DOCKED: ATOM     20  C   UNL     1      24.515 -12.088  -8.415 -0.42 -0.00    +0.000 A 
DOCKED: ATOM     21  C   UNL     1      24.418 -12.759  -9.635 -0.35 -0.00    +0.000 A 
DOCKED: ATOM     22  N   UNL     1      25.399 -12.360 -10.479 -0.25 -0.00    +0.000 N 
DOCKED: ATOM     23  C   UNL     1      26.127 -11.460  -9.798 -0.24 -0.00    +0.000 A 
DOCKED: ATOM     24  C   UNL     1      25.624 -11.272  -8.534 -0.37 -0.00    +0.000 A 
DOCKED: ATOM     25  C   UNL     1      26.228 -10.399  -7.627 -0.28 -0.00    +0.000 A 
DOCKED: ATOM     26  C   UNL     1      27.373  -9.702  -8.050 -0.35 -0.00    +0.000 A 
DOCKED: ATOM     27  C   UNL     1      27.887  -9.891  -9.352 -0.25 -0.00    +0.000 A 
DOCKED: ATOM     28  C   UNL     1      27.262 -10.782 -10.243 -0.22 -0.00    +0.000 A 
DOCKED: ATOM     29  C   UNL     1      23.378 -13.771  -9.993 -0.44 -0.00    +0.000 C 
DOCKED: ATOM     30  H   UNL     1      25.547 -12.668 -11.403 -0.05 -0.00    +0.000 HD
DOCKED: ENDBRANCH  19  20
DOCKED: ENDBRANCH  18  19
DOCKED: ENDBRANCH   1  18
DOCKED: TORSDOF 7
DOCKED: TER
DOCKED: ENDMDL
________________________________________________________________________________


	BEGINNING GENETIC ALGORITHM DOCKING 86 of 100
Run: 86 Seed: 366310735 1545580417 [ Run 86 of 100 GA/GALS ]
Beginning LAMARCKIAN GENETIC ALGORITHM (LGA), with a maximum of 2500000 energy evaluations.

Final-Value: -14.052


	FINAL GENETIC ALGORITHM DOCKED STATE
	_______________________________________________


Detailed state:  trans 21.986 -9.937 -5.465 quatxyzw -0.539732 0.090356 -0.836484 -0.028641 center 0.576 -0.005 0.140 ntor 7 -131.8943 172.3236 134.9129 46.6879 -61.2104 176.9002 -3.1078
State:	 21.986  -9.937  -5.465  -0.540  0.090 -0.837 -176.717   -131.89  172.32  134.91   46.69  -61.21  176.90   -3.11

DOCKED: MODEL       86
DOCKED: USER    Run = 86
DOCKED: USER    DPF = ligand_dock.biased.dpf
DOCKED: USER  
DOCKED: USER    Estimated Free Energy of Binding    =  -11.04 kcal/mol  [=(1)+(2)+(3)-(4)]
DOCKED: USER    Estimated Inhibition Constant, Ki   =    8.07 nM (nanomolar)  [Temperature = 298.15 K]
DOCKED: USER    
DOCKED: USER    (1) Final Intermolecular Energy     =  -13.13 kcal/mol
DOCKED: USER        vdW + Hbond + desolv Energy     =  -13.13 kcal/mol
DOCKED: USER        Electrostatic Energy            =   +0.00 kcal/mol
DOCKED: USER    (2) Final Total Internal Energy     =   -0.92 kcal/mol
DOCKED: USER    (3) Torsional Free Energy           =   +2.09 kcal/mol
DOCKED: USER    (4) Unbound System's Energy  [=(2)] =   -0.92 kcal/mol
DOCKED: USER    
DOCKED: USER    
DOCKED: USER    NEWDPF move ligand.pdbqt
DOCKED: USER    NEWDPF about 0.576000 -0.005000 0.140000
DOCKED: USER    NEWDPF tran0 21.986080 -9.936974 -5.464564
DOCKED: USER    NEWDPF quaternion0 -0.539732 0.090356 -0.836484 -0.028641
DOCKED: USER    NEWDPF axisangle0 -0.539954 0.090393 -0.836827 -176.717502
DOCKED: USER    NEWDPF quat0 -0.539954 0.090393 -0.836827 -176.717502
DOCKED: USER    NEWDPF dihe0 -131.89 172.32 134.91 46.69 -61.21 176.90 -3.11 
DOCKED: USER  keepresnum = 1 
DOCKED: USER  
DOCKED: REMARK  Name = 
DOCKED: REMARK  8 active torsions:
DOCKED: REMARK  status: ('A' for Active; 'I' for Inactive)
DOCKED: REMARK    1  A    between atoms: C_2  and  C_3
DOCKED: REMARK    2  A    between atoms: C_4  and  C_5
DOCKED: REMARK    3  A    between atoms: C_8  and  C_9
DOCKED: REMARK    4  A    between atoms: C_9  and  N_10
DOCKED: REMARK    5  A    between atoms: N_10  and  C_11
DOCKED: REMARK    6  A    between atoms: C_11  and  C_12
DOCKED: REMARK    7  A    between atoms: C_12  and  C_13
DOCKED: REMARK    8  A    between atoms: C_14  and  C_22
DOCKED: REMARK                            x       y       z     vdW  Elec       q    Type
DOCKED: REMARK                         _______ _______ _______ _____ _____    ______ ____
DOCKED: USER                              x       y       z     vdW  Elec       q    Type
DOCKED: USER                           _______ _______ _______ _____ _____    ______ ____
DOCKED: ROOT
DOCKED: ATOM      1  N   UNL     1      22.553  -9.989  -6.000 -0.30 -0.00    +0.000 N 
DOCKED: ATOM      2  H   UNL     1      22.841 -10.814  -5.475 -0.02 -0.00    +0.000 HD
DOCKED: ATOM      3  H   UNL     1      22.993  -9.143  -5.638 -0.02 -0.00    +0.000 HD
DOCKED: ENDROOT
DOCKED: BRANCH   1   4
DOCKED: ATOM      4  C   UNL     1      21.099  -9.830  -5.868 -0.32 -0.00    +0.000 C 
DOCKED: BRANCH   4   8
DOCKED: ATOM      5  C   UNL     1      19.972 -10.608  -1.765 -0.43 -0.00    +0.000 A 
DOCKED: ATOM      6  C   UNL     1      19.093 -10.919  -2.821 -0.34 -0.00    +0.000 A 
DOCKED: ATOM      7  C   UNL     1      19.455 -10.655  -4.146 -0.37 -0.00    +0.000 A 
DOCKED: ATOM      8  C   UNL     1      20.697 -10.075  -4.440 -0.37 -0.00    +0.000 A 
DOCKED: ATOM      9  C   UNL     1      21.589  -9.794  -3.394 -0.37 -0.00    +0.000 A 
DOCKED: ATOM     10  C   UNL     1      21.229 -10.058  -2.071 -0.52 -0.00    +0.000 A 
DOCKED: BRANCH   5  12
DOCKED: ATOM     11  C   UNL     1      20.563 -11.161   0.592 -0.70 -0.00    +0.000 C 
DOCKED: ATOM     12  C   UNL     1      19.644 -10.878  -0.343 -0.56 -0.00    +0.000 C 
DOCKED: BRANCH  11  14
DOCKED: ATOM     13  O   UNL     1      19.547 -12.454   2.277 -1.52 -0.00    +0.000 OA
DOCKED: ATOM     14  C   UNL     1      20.230 -11.431   2.005 -0.77 -0.00    +0.000 C 
DOCKED: ATOM     15  N   UNL     1      20.632 -10.558   3.069 -0.64 -0.00    +0.000 N 
DOCKED: ATOM     16  O   UNL     1      20.393 -10.902   4.356 -0.94 -0.00    +0.000 OA
DOCKED: ATOM     17  H   UNL     1      21.082  -9.707   2.862 -0.60 -0.00    +0.000 HD
DOCKED: ENDBRANCH  11  14
DOCKED: ENDBRANCH   5  12
DOCKED: ENDBRANCH   4   8
DOCKED: ENDBRANCH   1   4
DOCKED: BRANCH   1  18
DOCKED: ATOM     18  C   UNL     1      22.972 -10.150  -7.400 -0.32 -0.00    +0.000 C 
DOCKED: BRANCH  18  19
DOCKED: ATOM     19  C   UNL     1      23.470 -11.572  -7.707 -0.47 -0.00    +0.000 C 
DOCKED: BRANCH  19  20
DOCKED: ATOM     20  C   UNL     1      24.703 -11.523  -8.563 -0.38 -0.00    +0.000 A 
DOCKED: ATOM     21  C   UNL     1      24.981 -12.290  -9.695 -0.32 -0.00    +0.000 A 
DOCKED: ATOM     22  N   UNL     1      26.221 -12.017 -10.166 -0.12 -0.00    +0.000 N 
DOCKED: ATOM     23  C   UNL     1      26.738 -11.100  -9.330 -0.29 -0.00    +0.000 A 
DOCKED: ATOM     24  C   UNL     1      25.846 -10.779  -8.337 -0.36 -0.00    +0.000 A 
DOCKED: ATOM     25  C   UNL     1      26.165  -9.864  -7.333 -0.28 -0.00    +0.000 A 
DOCKED: ATOM     26  C   UNL     1      27.437  -9.265  -7.370 -0.39 -0.00    +0.000 A 
DOCKED: ATOM     27  C   UNL     1      28.353  -9.592  -8.395 -0.32 -0.00    +0.000 A 
DOCKED: ATOM     28  C   UNL     1      28.006 -10.523  -9.390 -0.31 -0.00    +0.000 A 
DOCKED: ATOM     29  C   UNL     1      24.052 -13.275 -10.331 -0.37 -0.00    +0.000 C 
DOCKED: ATOM     30  H   UNL     1      26.655 -12.410 -10.957 -0.41 -0.00    +0.000 HD
DOCKED: ENDBRANCH  19  20
DOCKED: ENDBRANCH  18  19
DOCKED: ENDBRANCH   1  18
DOCKED: TORSDOF 7
DOCKED: TER
DOCKED: ENDMDL
________________________________________________________________________________


	BEGINNING GENETIC ALGORITHM DOCKING 87 of 100
Run: 87 Seed: 1426225306 930416020 [ Run 87 of 100 GA/GALS ]
Beginning LAMARCKIAN GENETIC ALGORITHM (LGA), with a maximum of 2500000 energy evaluations.

Final-Value: -14.967


	FINAL GENETIC ALGORITHM DOCKED STATE
	_______________________________________________


Detailed state:  trans 20.329 -10.581 -6.794 quatxyzw 0.121740 0.898745 -0.403260 -0.121732 center 0.576 -0.005 0.140 ntor 7 26.7909 10.1150 -26.5471 53.2093 2.5835 -169.0736 127.3966
State:	 20.329 -10.581  -6.794   0.123  0.905 -0.406 -166.016     26.79   10.11  -26.55   53.21    2.58 -169.07  127.40

DOCKED: MODEL       87
DOCKED: USER    Run = 87
DOCKED: USER    DPF = ligand_dock.biased.dpf
DOCKED: USER  
DOCKED: USER    Estimated Free Energy of Binding    =  -11.84 kcal/mol  [=(1)+(2)+(3)-(4)]
DOCKED: USER    Estimated Inhibition Constant, Ki   =    2.09 nM (nanomolar)  [Temperature = 298.15 K]
DOCKED: USER    
DOCKED: USER    (1) Final Intermolecular Energy     =  -13.93 kcal/mol
DOCKED: USER        vdW + Hbond + desolv Energy     =  -13.93 kcal/mol
DOCKED: USER        Electrostatic Energy            =   +0.00 kcal/mol
DOCKED: USER    (2) Final Total Internal Energy     =   -1.04 kcal/mol
DOCKED: USER    (3) Torsional Free Energy           =   +2.09 kcal/mol
DOCKED: USER    (4) Unbound System's Energy  [=(2)] =   -1.04 kcal/mol
DOCKED: USER    
DOCKED: USER    
DOCKED: USER    NEWDPF move ligand.pdbqt
DOCKED: USER    NEWDPF about 0.576000 -0.005000 0.140000
DOCKED: USER    NEWDPF tran0 20.328656 -10.581429 -6.794362
DOCKED: USER    NEWDPF quaternion0 0.121740 0.898745 -0.403260 -0.121732
DOCKED: USER    NEWDPF axisangle0 0.122652 0.905479 -0.406281 -166.015806
DOCKED: USER    NEWDPF quat0 0.122652 0.905479 -0.406281 -166.015806
DOCKED: USER    NEWDPF dihe0 26.79 10.11 -26.55 53.21 2.58 -169.07 127.40 
DOCKED: USER  keepresnum = 1 
DOCKED: USER  
DOCKED: REMARK  Name = 
DOCKED: REMARK  8 active torsions:
DOCKED: REMARK  status: ('A' for Active; 'I' for Inactive)
DOCKED: REMARK    1  A    between atoms: C_2  and  C_3
DOCKED: REMARK    2  A    between atoms: C_4  and  C_5
DOCKED: REMARK    3  A    between atoms: C_8  and  C_9
DOCKED: REMARK    4  A    between atoms: C_9  and  N_10
DOCKED: REMARK    5  A    between atoms: N_10  and  C_11
DOCKED: REMARK    6  A    between atoms: C_11  and  C_12
DOCKED: REMARK    7  A    between atoms: C_12  and  C_13
DOCKED: REMARK    8  A    between atoms: C_14  and  C_22
DOCKED: REMARK                            x       y       z     vdW  Elec       q    Type
DOCKED: REMARK                         _______ _______ _______ _____ _____    ______ ____
DOCKED: USER                              x       y       z     vdW  Elec       q    Type
DOCKED: USER                           _______ _______ _______ _____ _____    ______ ____
DOCKED: ROOT
DOCKED: ATOM      1  N   UNL     1      21.071 -10.820  -6.851 -0.31 -0.00    +0.000 N 
DOCKED: ATOM      2  H   UNL     1      20.918 -10.743  -7.856 -0.05 -0.00    +0.000 HD
DOCKED: ATOM      3  H   UNL     1      20.815 -11.745  -6.504 -0.42 -0.00    +0.000 HD
DOCKED: ENDROOT
DOCKED: BRANCH   1   4
DOCKED: ATOM      4  C   UNL     1      20.223  -9.835  -6.168 -0.26 -0.00    +0.000 C 
DOCKED: BRANCH   4   8
DOCKED: ATOM      5  C   UNL     1      20.546 -10.483  -1.903 -0.49 -0.00    +0.000 A 
DOCKED: ATOM      6  C   UNL     1      19.635 -11.232  -2.675 -0.26 -0.00    +0.000 A 
DOCKED: ATOM      7  C   UNL     1      19.525 -11.012  -4.051 -0.40 -0.00    +0.000 A 
DOCKED: ATOM      8  C   UNL     1      20.316 -10.041  -4.681 -0.33 -0.00    +0.000 A 
DOCKED: ATOM      9  C   UNL     1      21.247  -9.317  -3.922 -0.37 -0.00    +0.000 A 
DOCKED: ATOM     10  C   UNL     1      21.360  -9.536  -2.548 -0.47 -0.00    +0.000 A 
DOCKED: BRANCH   5  12
DOCKED: ATOM     11  C   UNL     1      19.864 -11.400   0.312 -0.62 -0.00    +0.000 C 
DOCKED: ATOM     12  C   UNL     1      20.712 -10.684  -0.442 -0.64 -0.00    +0.000 C 
DOCKED: BRANCH  11  14
DOCKED: ATOM     13  O   UNL     1      19.847 -12.745   2.244 -1.56 -0.00    +0.000 OA
DOCKED: ATOM     14  C   UNL     1      20.034 -11.595   1.766 -0.76 -0.00    +0.000 C 
DOCKED: ATOM     15  N   UNL     1      20.377 -10.519   2.649 -0.64 -0.00    +0.000 N 
DOCKED: ATOM     16  O   UNL     1      20.624 -10.768   3.956 -1.09 -0.00    +0.000 OA
DOCKED: ATOM     17  H   UNL     1      20.433  -9.599   2.304 -0.51 -0.00    +0.000 HD
DOCKED: ENDBRANCH  11  14
DOCKED: ENDBRANCH   5  12
DOCKED: ENDBRANCH   4   8
DOCKED: ENDBRANCH   1   4
DOCKED: BRANCH   1  18
DOCKED: ATOM     18  C   UNL     1      22.500 -10.615  -6.573 -0.40 -0.00    +0.000 C 
DOCKED: BRANCH  18  19
DOCKED: ATOM     19  C   UNL     1      23.201  -9.793  -7.667 -0.26 -0.00    +0.000 C 
DOCKED: BRANCH  19  20
DOCKED: ATOM     20  C   UNL     1      24.469 -10.471  -8.101 -0.30 -0.00    +0.000 A 
DOCKED: ATOM     21  C   UNL     1      24.595 -11.712  -8.727 -0.38 -0.00    +0.000 A 
DOCKED: ATOM     22  N   UNL     1      25.899 -12.028  -8.906 -0.40 -0.00    +0.000 N 
DOCKED: ATOM     23  C   UNL     1      26.600 -11.009  -8.379 -0.33 -0.00    +0.000 A 
DOCKED: ATOM     24  C   UNL     1      25.764 -10.045  -7.873 -0.33 -0.00    +0.000 A 
DOCKED: ATOM     25  C   UNL     1      26.260  -8.897  -7.252 -0.31 -0.00    +0.000 A 
DOCKED: ATOM     26  C   UNL     1      27.655  -8.748  -7.165 -0.36 -0.00    +0.000 A 
DOCKED: ATOM     27  C   UNL     1      28.515  -9.738  -7.691 -0.44 -0.00    +0.000 A 
DOCKED: ATOM     28  C   UNL     1      27.987 -10.888  -8.306 -0.31 -0.00    +0.000 A 
DOCKED: ATOM     29  C   UNL     1      23.464 -12.588  -9.164 -0.42 -0.00    +0.000 C 
DOCKED: ATOM     30  H   UNL     1      26.260 -12.839  -9.333 -0.54 -0.00    +0.000 HD
DOCKED: ENDBRANCH  19  20
DOCKED: ENDBRANCH  18  19
DOCKED: ENDBRANCH   1  18
DOCKED: TORSDOF 7
DOCKED: TER
DOCKED: ENDMDL
________________________________________________________________________________


	BEGINNING GENETIC ALGORITHM DOCKING 88 of 100
Run: 88 Seed: 348616703 747014915 [ Run 88 of 100 GA/GALS ]
Beginning LAMARCKIAN GENETIC ALGORITHM (LGA), with a maximum of 2500000 energy evaluations.

Final-Value: -13.359


	FINAL GENETIC ALGORITHM DOCKED STATE
	_______________________________________________


Detailed state:  trans 18.212 -11.251 -6.944 quatxyzw -0.401220 0.450248 -0.190376 0.774633 center 0.576 -0.005 0.140 ntor 7 -161.5064 -127.9445 -163.9639 146.3265 -141.9682 -173.5826 -13.2140
State:	 18.212 -11.251  -6.944  -0.634  0.712 -0.301 78.456   -161.51 -127.94 -163.96  146.33 -141.97 -173.58  -13.21

DOCKED: MODEL       88
DOCKED: USER    Run = 88
DOCKED: USER    DPF = ligand_dock.biased.dpf
DOCKED: USER  
DOCKED: USER    Estimated Free Energy of Binding    =   -9.43 kcal/mol  [=(1)+(2)+(3)-(4)]
DOCKED: USER    Estimated Inhibition Constant, Ki   =  121.74 nM (nanomolar)  [Temperature = 298.15 K]
DOCKED: USER    
DOCKED: USER    (1) Final Intermolecular Energy     =  -11.52 kcal/mol
DOCKED: USER        vdW + Hbond + desolv Energy     =  -11.52 kcal/mol
DOCKED: USER        Electrostatic Energy            =   +0.00 kcal/mol
DOCKED: USER    (2) Final Total Internal Energy     =   -1.84 kcal/mol
DOCKED: USER    (3) Torsional Free Energy           =   +2.09 kcal/mol
DOCKED: USER    (4) Unbound System's Energy  [=(2)] =   -1.84 kcal/mol
DOCKED: USER    
DOCKED: USER    
DOCKED: USER    NEWDPF move ligand.pdbqt
DOCKED: USER    NEWDPF about 0.576000 -0.005000 0.140000
DOCKED: USER    NEWDPF tran0 18.211849 -11.251398 -6.944070
DOCKED: USER    NEWDPF quaternion0 -0.401220 0.450248 -0.190376 0.774633
DOCKED: USER    NEWDPF axisangle0 -0.634430 0.711954 -0.301032 78.456444
DOCKED: USER    NEWDPF quat0 -0.634430 0.711954 -0.301032 78.456444
DOCKED: USER    NEWDPF dihe0 -161.51 -127.94 -163.96 146.33 -141.97 -173.58 -13.21 
DOCKED: USER  keepresnum = 1 
DOCKED: USER  
DOCKED: REMARK  Name = 
DOCKED: REMARK  8 active torsions:
DOCKED: REMARK  status: ('A' for Active; 'I' for Inactive)
DOCKED: REMARK    1  A    between atoms: C_2  and  C_3
DOCKED: REMARK    2  A    between atoms: C_4  and  C_5
DOCKED: REMARK    3  A    between atoms: C_8  and  C_9
DOCKED: REMARK    4  A    between atoms: C_9  and  N_10
DOCKED: REMARK    5  A    between atoms: N_10  and  C_11
DOCKED: REMARK    6  A    between atoms: C_11  and  C_12
DOCKED: REMARK    7  A    between atoms: C_12  and  C_13
DOCKED: REMARK    8  A    between atoms: C_14  and  C_22
DOCKED: REMARK                            x       y       z     vdW  Elec       q    Type
DOCKED: REMARK                         _______ _______ _______ _____ _____    ______ ____
DOCKED: USER                              x       y       z     vdW  Elec       q    Type
DOCKED: USER                           _______ _______ _______ _____ _____    ______ ____
DOCKED: ROOT
DOCKED: ATOM      1  N   UNL     1      17.596 -11.374  -7.409 -0.36 -0.00    +0.000 N 
DOCKED: ATOM      2  H   UNL     1      17.071 -11.435  -6.537 -0.02 -0.00    +0.000 HD
DOCKED: ATOM      3  H   UNL     1      17.967 -12.283  -7.686 -0.05 -0.00    +0.000 HD
DOCKED: ENDROOT
DOCKED: BRANCH   1   4
DOCKED: ATOM      4  C   UNL     1      18.733 -10.466  -7.213 -0.29 -0.00    +0.000 C 
DOCKED: BRANCH   4   8
DOCKED: ATOM      5  C   UNL     1      20.157 -10.709  -3.136 -0.42 -0.00    +0.000 A 
DOCKED: ATOM      6  C   UNL     1      21.058 -10.794  -4.216 -0.46 -0.00    +0.000 A 
DOCKED: ATOM      7  C   UNL     1      20.593 -10.728  -5.533 -0.38 -0.00    +0.000 A 
DOCKED: ATOM      8  C   UNL     1      19.224 -10.578  -5.797 -0.31 -0.00    +0.000 A 
DOCKED: ATOM      9  C   UNL     1      18.328 -10.459  -4.724 -0.28 -0.00    +0.000 A 
DOCKED: ATOM     10  C   UNL     1      18.791 -10.524  -3.408 -0.32 -0.00    +0.000 A 
DOCKED: BRANCH   5  12
DOCKED: ATOM     11  C   UNL     1      19.837 -11.239  -0.722 -0.42 -0.00    +0.000 C 
DOCKED: ATOM     12  C   UNL     1      20.597 -10.761  -1.720 -0.47 -0.00    +0.000 C 
DOCKED: BRANCH  11  14
DOCKED: ATOM     13  O   UNL     1      21.012 -10.357   1.118 -0.75 -0.00    +0.000 OA
DOCKED: ATOM     14  C   UNL     1      20.280 -11.287   0.686 -0.70 -0.00    +0.000 C 
DOCKED: ATOM     15  N   UNL     1      19.929 -12.364   1.565 -0.70 -0.00    +0.000 N 
DOCKED: ATOM     16  O   UNL     1      20.270 -12.311   2.873 -1.78 -0.00    +0.000 OA
DOCKED: ATOM     17  H   UNL     1      19.439 -13.143   1.215 -0.52 -0.00    +0.000 HD
DOCKED: ENDBRANCH  11  14
DOCKED: ENDBRANCH   5  12
DOCKED: ENDBRANCH   4   8
DOCKED: ENDBRANCH   1   4
DOCKED: BRANCH   1  18
DOCKED: ATOM     18  C   UNL     1      16.691 -10.915  -8.474 -0.23 -0.00    +0.000 C 
DOCKED: BRANCH  18  19
DOCKED: ATOM     19  C   UNL     1      15.438 -10.215  -7.922 -0.14 -0.00    +0.000 C 
DOCKED: BRANCH  19  20
DOCKED: ATOM     20  C   UNL     1      14.961 -10.903  -6.675 -0.19 -0.00    +0.000 A 
DOCKED: ATOM     21  C   UNL     1      14.313 -12.135  -6.581 -0.29 -0.00    +0.000 A 
DOCKED: ATOM     22  N   UNL     1      13.972 -12.400  -5.298 -0.23 -0.00    +0.000 N 
DOCKED: ATOM     23  C   UNL     1      14.379 -11.338  -4.582 -0.26 -0.00    +0.000 A 
DOCKED: ATOM     24  C   UNL     1      14.980 -10.401  -5.387 -0.19 -0.00    +0.000 A 
DOCKED: ATOM     25  C   UNL     1      15.464  -9.197  -4.874 -0.14 -0.00    +0.000 A 
DOCKED: ATOM     26  C   UNL     1      15.328  -8.969  -3.493 -0.17 -0.00    +0.000 A 
DOCKED: ATOM     27  C   UNL     1      14.714  -9.935  -2.665 -0.23 -0.00    +0.000 A 
DOCKED: ATOM     28  C   UNL     1      14.229 -11.137  -3.211 -0.28 -0.00    +0.000 A 
DOCKED: ATOM     29  C   UNL     1      14.032 -13.063  -7.721 -0.38 -0.00    +0.000 C 
DOCKED: ATOM     30  H   UNL     1      13.518 -13.206  -4.959 -0.56 -0.00    +0.000 HD
DOCKED: ENDBRANCH  19  20
DOCKED: ENDBRANCH  18  19
DOCKED: ENDBRANCH   1  18
DOCKED: TORSDOF 7
DOCKED: TER
DOCKED: ENDMDL
________________________________________________________________________________


	BEGINNING GENETIC ALGORITHM DOCKING 89 of 100
Run: 89 Seed: 205177628 407689942 [ Run 89 of 100 GA/GALS ]
Beginning LAMARCKIAN GENETIC ALGORITHM (LGA), with a maximum of 2500000 energy evaluations.

Final-Value: -13.245


	FINAL GENETIC ALGORITHM DOCKED STATE
	_______________________________________________


Detailed state:  trans 20.775 -8.121 -6.540 quatxyzw -0.939097 -0.061789 0.323589 -0.097824 center 0.576 -0.005 0.140 ntor 7 42.2608 -67.0099 34.4915 36.7551 -179.1664 -178.5382 -170.6322
State:	 20.775  -8.121  -6.540  -0.944 -0.062  0.325 -168.772     42.26  -67.01   34.49   36.76 -179.17 -178.54 -170.63

DOCKED: MODEL       89
DOCKED: USER    Run = 89
DOCKED: USER    DPF = ligand_dock.biased.dpf
DOCKED: USER  
DOCKED: USER    Estimated Free Energy of Binding    =   -9.59 kcal/mol  [=(1)+(2)+(3)-(4)]
DOCKED: USER    Estimated Inhibition Constant, Ki   =   93.21 nM (nanomolar)  [Temperature = 298.15 K]
DOCKED: USER    
DOCKED: USER    (1) Final Intermolecular Energy     =  -11.68 kcal/mol
DOCKED: USER        vdW + Hbond + desolv Energy     =  -11.68 kcal/mol
DOCKED: USER        Electrostatic Energy            =   +0.00 kcal/mol
DOCKED: USER    (2) Final Total Internal Energy     =   -1.57 kcal/mol
DOCKED: USER    (3) Torsional Free Energy           =   +2.09 kcal/mol
DOCKED: USER    (4) Unbound System's Energy  [=(2)] =   -1.57 kcal/mol
DOCKED: USER    
DOCKED: USER    
DOCKED: USER    NEWDPF move ligand.pdbqt
DOCKED: USER    NEWDPF about 0.576000 -0.005000 0.140000
DOCKED: USER    NEWDPF tran0 20.775207 -8.121342 -6.539978
DOCKED: USER    NEWDPF quaternion0 -0.939097 -0.061789 0.323589 -0.097824
DOCKED: USER    NEWDPF axisangle0 -0.943622 -0.062087 0.325149 -168.772236
DOCKED: USER    NEWDPF quat0 -0.943622 -0.062087 0.325149 -168.772236
DOCKED: USER    NEWDPF dihe0 42.26 -67.01 34.49 36.76 -179.17 -178.54 -170.63 
DOCKED: USER  keepresnum = 1 
DOCKED: USER  
DOCKED: REMARK  Name = 
DOCKED: REMARK  8 active torsions:
DOCKED: REMARK  status: ('A' for Active; 'I' for Inactive)
DOCKED: REMARK    1  A    between atoms: C_2  and  C_3
DOCKED: REMARK    2  A    between atoms: C_4  and  C_5
DOCKED: REMARK    3  A    between atoms: C_8  and  C_9
DOCKED: REMARK    4  A    between atoms: C_9  and  N_10
DOCKED: REMARK    5  A    between atoms: N_10  and  C_11
DOCKED: REMARK    6  A    between atoms: C_11  and  C_12
DOCKED: REMARK    7  A    between atoms: C_12  and  C_13
DOCKED: REMARK    8  A    between atoms: C_14  and  C_22
DOCKED: REMARK                            x       y       z     vdW  Elec       q    Type
DOCKED: REMARK                         _______ _______ _______ _____ _____    ______ ____
DOCKED: USER                              x       y       z     vdW  Elec       q    Type
DOCKED: USER                           _______ _______ _______ _____ _____    ______ ____
DOCKED: ROOT
DOCKED: ATOM      1  N   UNL     1      20.037  -8.322  -6.381 -0.10 -0.00    +0.000 N 
DOCKED: ATOM      2  H   UNL     1      20.089  -8.837  -7.260 +0.01 -0.00    +0.000 HD
DOCKED: ATOM      3  H   UNL     1      19.729  -7.361  -6.528 +0.00 -0.00    +0.000 HD
DOCKED: ENDROOT
DOCKED: BRANCH   1   4
DOCKED: ATOM      4  C   UNL     1      21.376  -8.276  -5.781 -0.22 -0.00    +0.000 C 
DOCKED: BRANCH   4   8
DOCKED: ATOM      5  C   UNL     1      21.292  -9.873  -1.763 -0.54 -0.00    +0.000 A 
DOCKED: ATOM      6  C   UNL     1      21.617 -10.701  -2.856 -0.32 -0.00    +0.000 A 
DOCKED: ATOM      7  C   UNL     1      21.632 -10.184  -4.156 -0.39 -0.00    +0.000 A 
DOCKED: ATOM      8  C   UNL     1      21.320  -8.837  -4.387 -0.31 -0.00    +0.000 A 
DOCKED: ATOM      9  C   UNL     1      21.029  -8.002  -3.298 -0.36 -0.00    +0.000 A 
DOCKED: ATOM     10  C   UNL     1      21.016  -8.516  -2.000 -0.45 -0.00    +0.000 A 
DOCKED: BRANCH   5  12
DOCKED: ATOM     11  C   UNL     1      20.189 -10.893   0.226 -0.65 -0.00    +0.000 C 
DOCKED: ATOM     12  C   UNL     1      21.274 -10.366  -0.363 -0.71 -0.00    +0.000 C 
DOCKED: BRANCH  11  14
DOCKED: ATOM     13  O   UNL     1      19.877 -12.586   1.832 -1.69 -0.00    +0.000 OA
DOCKED: ATOM     14  C   UNL     1      20.176 -11.380   1.620 -0.75 -0.00    +0.000 C 
DOCKED: ATOM     15  N   UNL     1      20.463 -10.526   2.734 -0.64 -0.00    +0.000 N 
DOCKED: ATOM     16  O   UNL     1      20.541 -11.043   3.983 -1.08 -0.00    +0.000 OA
DOCKED: ATOM     17  H   UNL     1      20.604  -9.562   2.591 -0.53 -0.00    +0.000 HD
DOCKED: ENDBRANCH  11  14
DOCKED: ENDBRANCH   5  12
DOCKED: ENDBRANCH   4   8
DOCKED: ENDBRANCH   1   4
DOCKED: BRANCH   1  18
DOCKED: ATOM     18  C   UNL     1      19.055  -8.979  -5.506 -0.18 -0.00    +0.000 C 
DOCKED: BRANCH  18  19
DOCKED: ATOM     19  C   UNL     1      18.689 -10.393  -5.987 -0.31 -0.00    +0.000 C 
DOCKED: BRANCH  19  20
DOCKED: ATOM     20  C   UNL     1      17.261 -10.709  -5.646 -0.26 -0.00    +0.000 A 
DOCKED: ATOM     21  C   UNL     1      16.252 -11.120  -6.518 -0.27 -0.00    +0.000 A 
DOCKED: ATOM     22  N   UNL     1      15.074 -11.244  -5.861 -0.25 -0.00    +0.000 N 
DOCKED: ATOM     23  C   UNL     1      15.324 -10.896  -4.588 -0.23 -0.00    +0.000 A 
DOCKED: ATOM     24  C   UNL     1      16.644 -10.557  -4.418 -0.15 -0.00    +0.000 A 
DOCKED: ATOM     25  C   UNL     1      17.140 -10.137  -3.183 -0.23 -0.00    +0.000 A 
DOCKED: ATOM     26  C   UNL     1      16.244 -10.077  -2.101 -0.21 -0.00    +0.000 A 
DOCKED: ATOM     27  C   UNL     1      14.887 -10.432  -2.275 -0.26 -0.00    +0.000 A 
DOCKED: ATOM     28  C   UNL     1      14.414 -10.846  -3.533 -0.27 -0.00    +0.000 A 
DOCKED: ATOM     29  C   UNL     1      16.421 -11.404  -7.976 -0.31 -0.00    +0.000 C 
DOCKED: ATOM     30  H   UNL     1      14.211 -11.531  -6.240 -0.01 -0.00    +0.000 HD
DOCKED: ENDBRANCH  19  20
DOCKED: ENDBRANCH  18  19
DOCKED: ENDBRANCH   1  18
DOCKED: TORSDOF 7
DOCKED: TER
DOCKED: ENDMDL
________________________________________________________________________________


	BEGINNING GENETIC ALGORITHM DOCKING 90 of 100
Run: 90 Seed: 1775310970 1250600546 [ Run 90 of 100 GA/GALS ]
Beginning LAMARCKIAN GENETIC ALGORITHM (LGA), with a maximum of 2500000 energy evaluations.

Final-Value: -14.072


	FINAL GENETIC ALGORITHM DOCKED STATE
	_______________________________________________


Detailed state:  trans 21.147 -10.998 -5.763 quatxyzw -0.550933 0.352818 -0.755870 0.025565 center 0.576 -0.005 0.140 ntor 7 -63.2550 -70.7875 92.1395 83.5617 140.4180 145.6015 26.0800
State:	 21.147 -10.998  -5.763  -0.551  0.353 -0.756 177.070    -63.25  -70.79   92.14   83.56  140.42  145.60   26.08

DOCKED: MODEL       90
DOCKED: USER    Run = 90
DOCKED: USER    DPF = ligand_dock.biased.dpf
DOCKED: USER  
DOCKED: USER    Estimated Free Energy of Binding    =  -11.28 kcal/mol  [=(1)+(2)+(3)-(4)]
DOCKED: USER    Estimated Inhibition Constant, Ki   =    5.35 nM (nanomolar)  [Temperature = 298.15 K]
DOCKED: USER    
DOCKED: USER    (1) Final Intermolecular Energy     =  -13.37 kcal/mol
DOCKED: USER        vdW + Hbond + desolv Energy     =  -13.37 kcal/mol
DOCKED: USER        Electrostatic Energy            =   +0.00 kcal/mol
DOCKED: USER    (2) Final Total Internal Energy     =   -0.70 kcal/mol
DOCKED: USER    (3) Torsional Free Energy           =   +2.09 kcal/mol
DOCKED: USER    (4) Unbound System's Energy  [=(2)] =   -0.70 kcal/mol
DOCKED: USER    
DOCKED: USER    
DOCKED: USER    NEWDPF move ligand.pdbqt
DOCKED: USER    NEWDPF about 0.576000 -0.005000 0.140000
DOCKED: USER    NEWDPF tran0 21.146738 -10.997901 -5.763046
DOCKED: USER    NEWDPF quaternion0 -0.550933 0.352818 -0.755870 0.025565
DOCKED: USER    NEWDPF axisangle0 -0.551113 0.352933 -0.756117 177.070138
DOCKED: USER    NEWDPF quat0 -0.551113 0.352933 -0.756117 177.070138
DOCKED: USER    NEWDPF dihe0 -63.25 -70.79 92.14 83.56 140.42 145.60 26.08 
DOCKED: USER  keepresnum = 1 
DOCKED: USER  
DOCKED: REMARK  Name = 
DOCKED: REMARK  8 active torsions:
DOCKED: REMARK  status: ('A' for Active; 'I' for Inactive)
DOCKED: REMARK    1  A    between atoms: C_2  and  C_3
DOCKED: REMARK    2  A    between atoms: C_4  and  C_5
DOCKED: REMARK    3  A    between atoms: C_8  and  C_9
DOCKED: REMARK    4  A    between atoms: C_9  and  N_10
DOCKED: REMARK    5  A    between atoms: N_10  and  C_11
DOCKED: REMARK    6  A    between atoms: C_11  and  C_12
DOCKED: REMARK    7  A    between atoms: C_12  and  C_13
DOCKED: REMARK    8  A    between atoms: C_14  and  C_22
DOCKED: REMARK                            x       y       z     vdW  Elec       q    Type
DOCKED: REMARK                         _______ _______ _______ _____ _____    ______ ____
DOCKED: USER                              x       y       z     vdW  Elec       q    Type
DOCKED: USER                           _______ _______ _______ _____ _____    ______ ____
DOCKED: ROOT
DOCKED: ATOM      1  N   UNL     1      21.622 -11.012  -6.383 -0.38 -0.00    +0.000 N 
DOCKED: ATOM      2  H   UNL     1      21.604 -12.023  -6.253 -0.49 -0.00    +0.000 HD
DOCKED: ATOM      3  H   UNL     1      22.368 -10.579  -5.839 -0.02 -0.00    +0.000 HD
DOCKED: ENDROOT
DOCKED: BRANCH   1   4
DOCKED: ATOM      4  C   UNL     1      20.347 -10.453  -5.918 -0.35 -0.00    +0.000 C 
DOCKED: BRANCH   4   8
DOCKED: ATOM      5  C   UNL     1      20.159 -10.547  -1.598 -0.46 -0.00    +0.000 A 
DOCKED: ATOM      6  C   UNL     1      21.254  -9.950  -2.255 -0.51 -0.00    +0.000 A 
DOCKED: ATOM      7  C   UNL     1      21.317  -9.932  -3.651 -0.44 -0.00    +0.000 A 
DOCKED: ATOM      8  C   UNL     1      20.294 -10.510  -4.416 -0.39 -0.00    +0.000 A 
DOCKED: ATOM      9  C   UNL     1      19.187 -11.075  -3.767 -0.32 -0.00    +0.000 A 
DOCKED: ATOM     10  C   UNL     1      19.121 -11.093  -2.372 -0.32 -0.00    +0.000 A 
DOCKED: BRANCH   5  12
DOCKED: ATOM     11  C   UNL     1      20.456 -11.608   0.638 -0.59 -0.00    +0.000 C 
DOCKED: ATOM     12  C   UNL     1      20.035 -10.583  -0.119 -0.61 -0.00    +0.000 C 
DOCKED: BRANCH  11  14
DOCKED: ATOM     13  O   UNL     1      19.885 -12.686   2.651 -1.53 -0.00    +0.000 OA
DOCKED: ATOM     14  C   UNL     1      20.328 -11.639   2.109 -0.79 -0.00    +0.000 C 
DOCKED: ATOM     15  N   UNL     1      20.664 -10.515   2.933 -0.59 -0.00    +0.000 N 
DOCKED: ATOM     16  O   UNL     1      20.629 -10.628   4.281 -0.94 -0.00    +0.000 OA
DOCKED: ATOM     17  H   UNL     1      20.920  -9.660   2.516 -0.56 -0.00    +0.000 HD
DOCKED: ENDBRANCH  11  14
DOCKED: ENDBRANCH   5  12
DOCKED: ENDBRANCH   4   8
DOCKED: ENDBRANCH   1   4
DOCKED: BRANCH   1  18
DOCKED: ATOM     18  C   UNL     1      21.875 -10.723  -7.803 -0.31 -0.00    +0.000 C 
DOCKED: BRANCH  18  19
DOCKED: ATOM     19  C   UNL     1      22.528 -11.905  -8.538 -0.30 -0.00    +0.000 C 
DOCKED: BRANCH  19  20
DOCKED: ATOM     20  C   UNL     1      24.004 -11.677  -8.688 -0.36 -0.00    +0.000 A 
DOCKED: ATOM     21  C   UNL     1      24.927 -12.496  -9.341 -0.37 -0.00    +0.000 A 
DOCKED: ATOM     22  N   UNL     1      26.181 -12.001  -9.212 -0.30 -0.00    +0.000 N 
DOCKED: ATOM     23  C   UNL     1      26.063 -10.890  -8.466 -0.37 -0.00    +0.000 A 
DOCKED: ATOM     24  C   UNL     1      24.753 -10.662  -8.122 -0.33 -0.00    +0.000 A 
DOCKED: ATOM     25  C   UNL     1      24.383  -9.577  -7.327 -0.23 -0.00    +0.000 A 
DOCKED: ATOM     26  C   UNL     1      25.396  -8.706  -6.890 -0.14 -0.00    +0.000 A 
DOCKED: ATOM     27  C   UNL     1      26.743  -8.937  -7.249 -0.33 -0.00    +0.000 A 
DOCKED: ATOM     28  C   UNL     1      27.088 -10.043  -8.046 -0.38 -0.00    +0.000 A 
DOCKED: ATOM     29  C   UNL     1      24.603 -13.744 -10.098 -0.37 -0.00    +0.000 C 
DOCKED: ATOM     30  H   UNL     1      27.009 -12.380  -9.587 -0.31 -0.00    +0.000 HD
DOCKED: ENDBRANCH  19  20
DOCKED: ENDBRANCH  18  19
DOCKED: ENDBRANCH   1  18
DOCKED: TORSDOF 7
DOCKED: TER
DOCKED: ENDMDL
________________________________________________________________________________


	BEGINNING GENETIC ALGORITHM DOCKING 91 of 100
Run: 91 Seed: 356713759 243829675 [ Run 91 of 100 GA/GALS ]
Beginning LAMARCKIAN GENETIC ALGORITHM (LGA), with a maximum of 2500000 energy evaluations.

Final-Value: -12.783


	FINAL GENETIC ALGORITHM DOCKED STATE
	_______________________________________________


Detailed state:  trans 19.506 -9.368 -6.547 quatxyzw -0.137034 -0.732129 -0.622486 -0.240250 center 0.576 -0.005 0.140 ntor 7 -95.1325 -178.9727 -148.6249 133.7419 176.3700 -167.9627 -63.5754
State:	 19.506  -9.368  -6.547  -0.141 -0.754 -0.641 -152.197    -95.13 -178.97 -148.62  133.74  176.37 -167.96  -63.58

DOCKED: MODEL       91
DOCKED: USER    Run = 91
DOCKED: USER    DPF = ligand_dock.biased.dpf
DOCKED: USER  
DOCKED: USER    Estimated Free Energy of Binding    =   -8.50 kcal/mol  [=(1)+(2)+(3)-(4)]
DOCKED: USER    Estimated Inhibition Constant, Ki   =  589.16 nM (nanomolar)  [Temperature = 298.15 K]
DOCKED: USER    
DOCKED: USER    (1) Final Intermolecular Energy     =  -10.59 kcal/mol
DOCKED: USER        vdW + Hbond + desolv Energy     =  -10.59 kcal/mol
DOCKED: USER        Electrostatic Energy            =   +0.00 kcal/mol
DOCKED: USER    (2) Final Total Internal Energy     =   -2.20 kcal/mol
DOCKED: USER    (3) Torsional Free Energy           =   +2.09 kcal/mol
DOCKED: USER    (4) Unbound System's Energy  [=(2)] =   -2.20 kcal/mol
DOCKED: USER    
DOCKED: USER    
DOCKED: USER    NEWDPF move ligand.pdbqt
DOCKED: USER    NEWDPF about 0.576000 -0.005000 0.140000
DOCKED: USER    NEWDPF tran0 19.505605 -9.367686 -6.546628
DOCKED: USER    NEWDPF quaternion0 -0.137034 -0.732129 -0.622486 -0.240250
DOCKED: USER    NEWDPF axisangle0 -0.141169 -0.754219 -0.641268 -152.197458
DOCKED: USER    NEWDPF quat0 -0.141169 -0.754219 -0.641268 -152.197458
DOCKED: USER    NEWDPF dihe0 -95.13 -178.97 -148.62 133.74 176.37 -167.96 -63.58 
DOCKED: USER  keepresnum = 1 
DOCKED: USER  
DOCKED: REMARK  Name = 
DOCKED: REMARK  8 active torsions:
DOCKED: REMARK  status: ('A' for Active; 'I' for Inactive)
DOCKED: REMARK    1  A    between atoms: C_2  and  C_3
DOCKED: REMARK    2  A    between atoms: C_4  and  C_5
DOCKED: REMARK    3  A    between atoms: C_8  and  C_9
DOCKED: REMARK    4  A    between atoms: C_9  and  N_10
DOCKED: REMARK    5  A    between atoms: N_10  and  C_11
DOCKED: REMARK    6  A    between atoms: C_11  and  C_12
DOCKED: REMARK    7  A    between atoms: C_12  and  C_13
DOCKED: REMARK    8  A    between atoms: C_14  and  C_22
DOCKED: REMARK                            x       y       z     vdW  Elec       q    Type
DOCKED: REMARK                         _______ _______ _______ _____ _____    ______ ____
DOCKED: USER                              x       y       z     vdW  Elec       q    Type
DOCKED: USER                           _______ _______ _______ _____ _____    ______ ____
DOCKED: ROOT
DOCKED: ATOM      1  N   UNL     1      20.111  -8.976  -6.848 -0.12 -0.00    +0.000 N 
DOCKED: ATOM      2  H   UNL     1      19.958  -8.332  -6.072 +0.01 -0.00    +0.000 HD
DOCKED: ATOM      3  H   UNL     1      19.556  -8.717  -7.664 +0.00 -0.00    +0.000 HD
DOCKED: ENDROOT
DOCKED: BRANCH   1   4
DOCKED: ATOM      4  C   UNL     1      19.697 -10.322  -6.434 -0.30 -0.00    +0.000 C 
DOCKED: BRANCH   4   8
DOCKED: ATOM      5  C   UNL     1      19.405 -10.556  -2.125 -0.39 -0.00    +0.000 A 
DOCKED: ATOM      6  C   UNL     1      18.294 -10.163  -2.898 -0.25 -0.00    +0.000 A 
DOCKED: ATOM      7  C   UNL     1      18.395 -10.077  -4.290 -0.26 -0.00    +0.000 A 
DOCKED: ATOM      8  C   UNL     1      19.604 -10.378  -4.934 -0.32 -0.00    +0.000 A 
DOCKED: ATOM      9  C   UNL     1      20.701 -10.802  -4.171 -0.45 -0.00    +0.000 A 
DOCKED: ATOM     10  C   UNL     1      20.602 -10.890  -2.781 -0.37 -0.00    +0.000 A 
DOCKED: BRANCH   5  12
DOCKED: ATOM     11  C   UNL     1      20.203 -11.422   0.072 -0.46 -0.00    +0.000 C 
DOCKED: ATOM     12  C   UNL     1      19.349 -10.676  -0.646 -0.49 -0.00    +0.000 C 
DOCKED: BRANCH  11  14
DOCKED: ATOM     13  O   UNL     1      19.627 -12.575   2.042 -1.59 -0.00    +0.000 OA
DOCKED: ATOM     14  C   UNL     1      20.141 -11.539   1.543 -0.75 -0.00    +0.000 C 
DOCKED: ATOM     15  N   UNL     1      20.620 -10.508   2.416 -0.59 -0.00    +0.000 N 
DOCKED: ATOM     16  O   UNL     1      20.638 -10.706   3.754 -1.13 -0.00    +0.000 OA
DOCKED: ATOM     17  H   UNL     1      20.936  -9.654   2.040 -0.55 -0.00    +0.000 HD
DOCKED: ENDBRANCH  11  14
DOCKED: ENDBRANCH   5  12
DOCKED: ENDBRANCH   4   8
DOCKED: ENDBRANCH   1   4
DOCKED: BRANCH   1  18
DOCKED: ATOM     18  C   UNL     1      21.529  -8.921  -7.235 -0.17 -0.00    +0.000 C 
DOCKED: BRANCH  18  19
DOCKED: ATOM     19  C   UNL     1      22.439  -8.477  -6.077 -0.23 -0.00    +0.000 C 
DOCKED: BRANCH  19  20
DOCKED: ATOM     20  C   UNL     1      21.913  -7.218  -5.452 -0.18 -0.00    +0.000 A 
DOCKED: ATOM     21  C   UNL     1      21.684  -5.991  -6.078 -0.09 -0.00    +0.000 A 
DOCKED: ATOM     22  N   UNL     1      21.272  -5.065  -5.180 -0.09 -0.00    +0.000 N 
DOCKED: ATOM     23  C   UNL     1      21.258  -5.688  -3.989 -0.22 -0.00    +0.000 A 
DOCKED: ATOM     24  C   UNL     1      21.649  -6.999  -4.113 -0.25 -0.00    +0.000 A 
DOCKED: ATOM     25  C   UNL     1      21.737  -7.845  -3.006 -0.27 -0.00    +0.000 A 
DOCKED: ATOM     26  C   UNL     1      21.402  -7.316  -1.747 -0.35 -0.00    +0.000 A 
DOCKED: ATOM     27  C   UNL     1      20.995  -5.969  -1.621 -0.37 +0.00    +0.000 A 
DOCKED: ATOM     28  C   UNL     1      20.922  -5.138  -2.753 -0.31 -0.00    +0.000 A 
DOCKED: ATOM     29  C   UNL     1      21.850  -5.713  -7.538 -0.04 -0.00    +0.000 C 
DOCKED: ATOM     30  H   UNL     1      21.032  -4.128  -5.362 +0.00 -0.00    +0.000 HD
DOCKED: ENDBRANCH  19  20
DOCKED: ENDBRANCH  18  19
DOCKED: ENDBRANCH   1  18
DOCKED: TORSDOF 7
DOCKED: TER
DOCKED: ENDMDL
________________________________________________________________________________


	BEGINNING GENETIC ALGORITHM DOCKING 92 of 100
Run: 92 Seed: 238867692 543463903 [ Run 92 of 100 GA/GALS ]
Beginning LAMARCKIAN GENETIC ALGORITHM (LGA), with a maximum of 2500000 energy evaluations.

Final-Value: -14.230


	FINAL GENETIC ALGORITHM DOCKED STATE
	_______________________________________________


Detailed state:  trans 19.507 -9.059 -6.140 quatxyzw 0.144376 -0.909859 0.387424 0.034857 center 0.576 -0.005 0.140 ntor 7 62.7512 159.9945 -179.4100 -114.4314 -179.9082 31.5262 104.5871
State:	 19.507  -9.059  -6.140   0.144 -0.910  0.388 176.005     62.75  159.99 -179.41 -114.43 -179.91   31.53  104.59

DOCKED: MODEL       92
DOCKED: USER    Run = 92
DOCKED: USER    DPF = ligand_dock.biased.dpf
DOCKED: USER  
DOCKED: USER    Estimated Free Energy of Binding    =  -10.64 kcal/mol  [=(1)+(2)+(3)-(4)]
DOCKED: USER    Estimated Inhibition Constant, Ki   =   15.85 nM (nanomolar)  [Temperature = 298.15 K]
DOCKED: USER    
DOCKED: USER    (1) Final Intermolecular Energy     =  -12.73 kcal/mol
DOCKED: USER        vdW + Hbond + desolv Energy     =  -12.73 kcal/mol
DOCKED: USER        Electrostatic Energy            =   +0.00 kcal/mol
DOCKED: USER    (2) Final Total Internal Energy     =   -1.50 kcal/mol
DOCKED: USER    (3) Torsional Free Energy           =   +2.09 kcal/mol
DOCKED: USER    (4) Unbound System's Energy  [=(2)] =   -1.50 kcal/mol
DOCKED: USER    
DOCKED: USER    
DOCKED: USER    NEWDPF move ligand.pdbqt
DOCKED: USER    NEWDPF about 0.576000 -0.005000 0.140000
DOCKED: USER    NEWDPF tran0 19.507486 -9.059021 -6.140179
DOCKED: USER    NEWDPF quaternion0 0.144376 -0.909859 0.387424 0.034857
DOCKED: USER    NEWDPF axisangle0 0.144464 -0.910412 0.387660 176.004836
DOCKED: USER    NEWDPF quat0 0.144464 -0.910412 0.387660 176.004836
DOCKED: USER    NEWDPF dihe0 62.75 159.99 -179.41 -114.43 -179.91 31.53 104.59 
DOCKED: USER  keepresnum = 1 
DOCKED: USER  
DOCKED: REMARK  Name = 
DOCKED: REMARK  8 active torsions:
DOCKED: REMARK  status: ('A' for Active; 'I' for Inactive)
DOCKED: REMARK    1  A    between atoms: C_2  and  C_3
DOCKED: REMARK    2  A    between atoms: C_4  and  C_5
DOCKED: REMARK    3  A    between atoms: C_8  and  C_9
DOCKED: REMARK    4  A    between atoms: C_9  and  N_10
DOCKED: REMARK    5  A    between atoms: N_10  and  C_11
DOCKED: REMARK    6  A    between atoms: C_11  and  C_12
DOCKED: REMARK    7  A    between atoms: C_12  and  C_13
DOCKED: REMARK    8  A    between atoms: C_14  and  C_22
DOCKED: REMARK                            x       y       z     vdW  Elec       q    Type
DOCKED: REMARK                         _______ _______ _______ _____ _____    ______ ____
DOCKED: USER                              x       y       z     vdW  Elec       q    Type
DOCKED: USER                           _______ _______ _______ _____ _____    ______ ____
DOCKED: ROOT
DOCKED: ATOM      1  N   UNL     1      20.210  -8.987  -6.474 -0.13 -0.00    +0.000 N 
DOCKED: ATOM      2  H   UNL     1      19.694  -9.060  -7.351 +0.00 -0.00    +0.000 HD
DOCKED: ATOM      3  H   UNL     1      20.486  -9.905  -6.125 +0.00 -0.00    +0.000 HD
DOCKED: ENDROOT
DOCKED: BRANCH   1   4
DOCKED: ATOM      4  C   UNL     1      19.341  -8.367  -5.466 -0.17 -0.00    +0.000 C 
DOCKED: BRANCH   4   8
DOCKED: ATOM      5  C   UNL     1      20.388  -9.760  -1.507 -0.47 -0.00    +0.000 A 
DOCKED: ATOM      6  C   UNL     1      20.955  -8.577  -2.023 -0.43 -0.00    +0.000 A 
DOCKED: ATOM      7  C   UNL     1      20.623  -8.136  -3.308 -0.33 -0.00    +0.000 A 
DOCKED: ATOM      8  C   UNL     1      19.726  -8.866  -4.100 -0.24 -0.00    +0.000 A 
DOCKED: ATOM      9  C   UNL     1      19.135 -10.026  -3.577 -0.31 -0.00    +0.000 A 
DOCKED: ATOM     10  C   UNL     1      19.463 -10.467  -2.293 -0.39 -0.00    +0.000 A 
DOCKED: BRANCH   5  12
DOCKED: ATOM     11  C   UNL     1      19.769 -10.759   0.691 -0.63 -0.00    +0.000 C 
DOCKED: ATOM     12  C   UNL     1      20.695 -10.267  -0.146 -0.67 -0.00    +0.000 C 
DOCKED: BRANCH  11  14
DOCKED: ATOM     13  O   UNL     1      20.173 -12.504   2.219 -1.77 -0.00    +0.000 OA
DOCKED: ATOM     14  C   UNL     1      20.080 -11.260   2.045 -0.75 -0.00    +0.000 C 
DOCKED: ATOM     15  N   UNL     1      20.252 -10.384   3.167 -0.63 -0.00    +0.000 N 
DOCKED: ATOM     16  O   UNL     1      20.640 -10.883   4.364 -0.94 -0.00    +0.000 OA
DOCKED: ATOM     17  H   UNL     1      20.088  -9.419   3.066 -0.57 -0.00    +0.000 HD
DOCKED: ENDBRANCH  11  14
DOCKED: ENDBRANCH   5  12
DOCKED: ENDBRANCH   4   8
DOCKED: ENDBRANCH   1   4
DOCKED: BRANCH   1  18
DOCKED: ATOM     18  C   UNL     1      21.436  -8.209  -6.711 -0.15 -0.00    +0.000 C 
DOCKED: BRANCH  18  19
DOCKED: ATOM     19  C   UNL     1      22.674  -8.847  -6.059 -0.19 -0.00    +0.000 C 
DOCKED: BRANCH  19  20
DOCKED: ATOM     20  C   UNL     1      22.921 -10.213  -6.632 -0.25 -0.00    +0.000 A 
DOCKED: ATOM     21  C   UNL     1      22.402 -11.428  -6.181 -0.43 -0.00    +0.000 A 
DOCKED: ATOM     22  N   UNL     1      22.901 -12.459  -6.904 -0.47 -0.00    +0.000 N 
DOCKED: ATOM     23  C   UNL     1      23.747 -11.910  -7.792 -0.45 -0.00    +0.000 A 
DOCKED: ATOM     24  C   UNL     1      23.791 -10.544  -7.653 -0.32 -0.00    +0.000 A 
DOCKED: ATOM     25  C   UNL     1      24.619  -9.753  -8.451 -0.21 -0.00    +0.000 A 
DOCKED: ATOM     26  C   UNL     1      25.409 -10.397  -9.420 -0.20 -0.00    +0.000 A 
DOCKED: ATOM     27  C   UNL     1      25.359 -11.802  -9.566 -0.31 -0.00    +0.000 A 
DOCKED: ATOM     28  C   UNL     1      24.520 -12.575  -8.743 -0.35 -0.00    +0.000 A 
DOCKED: ATOM     29  C   UNL     1      21.419 -11.597  -5.067 -0.54 -0.00    +0.000 C 
DOCKED: ATOM     30  H   UNL     1      22.688 -13.414  -6.799 -0.44 -0.00    +0.000 HD
DOCKED: ENDBRANCH  19  20
DOCKED: ENDBRANCH  18  19
DOCKED: ENDBRANCH   1  18
DOCKED: TORSDOF 7
DOCKED: TER
DOCKED: ENDMDL
________________________________________________________________________________


	BEGINNING GENETIC ALGORITHM DOCKING 93 of 100
Run: 93 Seed: 1941870887 679867854 [ Run 93 of 100 GA/GALS ]
Beginning LAMARCKIAN GENETIC ALGORITHM (LGA), with a maximum of 2500000 energy evaluations.

Final-Value: -14.153


	FINAL GENETIC ALGORITHM DOCKED STATE
	_______________________________________________


Detailed state:  trans 22.378 -8.684 -5.662 quatxyzw 0.720256 0.188217 0.628204 -0.226199 center 0.576 -0.005 0.140 ntor 7 48.0630 -44.6651 -173.3741 -59.6454 33.4318 53.8450 -61.7393
State:	 22.378  -8.684  -5.662   0.739  0.193  0.645 -153.853     48.06  -44.67 -173.37  -59.65   33.43   53.84  -61.74

DOCKED: MODEL       93
DOCKED: USER    Run = 93
DOCKED: USER    DPF = ligand_dock.biased.dpf
DOCKED: USER  
DOCKED: USER    Estimated Free Energy of Binding    =  -11.07 kcal/mol  [=(1)+(2)+(3)-(4)]
DOCKED: USER    Estimated Inhibition Constant, Ki   =    7.71 nM (nanomolar)  [Temperature = 298.15 K]
DOCKED: USER    
DOCKED: USER    (1) Final Intermolecular Energy     =  -13.16 kcal/mol
DOCKED: USER        vdW + Hbond + desolv Energy     =  -13.16 kcal/mol
DOCKED: USER        Electrostatic Energy            =   +0.00 kcal/mol
DOCKED: USER    (2) Final Total Internal Energy     =   -1.00 kcal/mol
DOCKED: USER    (3) Torsional Free Energy           =   +2.09 kcal/mol
DOCKED: USER    (4) Unbound System's Energy  [=(2)] =   -1.00 kcal/mol
DOCKED: USER    
DOCKED: USER    
DOCKED: USER    NEWDPF move ligand.pdbqt
DOCKED: USER    NEWDPF about 0.576000 -0.005000 0.140000
DOCKED: USER    NEWDPF tran0 22.377942 -8.683738 -5.662278
DOCKED: USER    NEWDPF quaternion0 0.720256 0.188217 0.628204 -0.226199
DOCKED: USER    NEWDPF axisangle0 0.739421 0.193225 0.644919 -153.853221
DOCKED: USER    NEWDPF quat0 0.739421 0.193225 0.644919 -153.853221
DOCKED: USER    NEWDPF dihe0 48.06 -44.67 -173.37 -59.65 33.43 53.84 -61.74 
DOCKED: USER  keepresnum = 1 
DOCKED: USER  
DOCKED: REMARK  Name = 
DOCKED: REMARK  8 active torsions:
DOCKED: REMARK  status: ('A' for Active; 'I' for Inactive)
DOCKED: REMARK    1  A    between atoms: C_2  and  C_3
DOCKED: REMARK    2  A    between atoms: C_4  and  C_5
DOCKED: REMARK    3  A    between atoms: C_8  and  C_9
DOCKED: REMARK    4  A    between atoms: C_9  and  N_10
DOCKED: REMARK    5  A    between atoms: N_10  and  C_11
DOCKED: REMARK    6  A    between atoms: C_11  and  C_12
DOCKED: REMARK    7  A    between atoms: C_12  and  C_13
DOCKED: REMARK    8  A    between atoms: C_14  and  C_22
DOCKED: REMARK                            x       y       z     vdW  Elec       q    Type
DOCKED: REMARK                         _______ _______ _______ _____ _____    ______ ____
DOCKED: USER                              x       y       z     vdW  Elec       q    Type
DOCKED: USER                           _______ _______ _______ _____ _____    ______ ____
DOCKED: ROOT
DOCKED: ATOM      1  N   UNL     1      22.580  -9.205  -6.209 -0.27 -0.00    +0.000 N 
DOCKED: ATOM      2  H   UNL     1      23.203  -9.573  -5.490 -0.02 -0.00    +0.000 HD
DOCKED: ATOM      3  H   UNL     1      23.033  -8.474  -6.758 -0.01 -0.00    +0.000 HD
DOCKED: ENDROOT
DOCKED: BRANCH   1   4
DOCKED: ATOM      4  C   UNL     1      21.406  -8.611  -5.557 -0.26 -0.00    +0.000 C 
DOCKED: BRANCH   4   8
DOCKED: ATOM      5  C   UNL     1      21.287  -9.952  -1.446 -0.56 -0.00    +0.000 A 
DOCKED: ATOM      6  C   UNL     1      21.364 -10.883  -2.502 -0.30 -0.00    +0.000 A 
DOCKED: ATOM      7  C   UNL     1      21.390 -10.446  -3.830 -0.46 -0.00    +0.000 A 
DOCKED: ATOM      8  C   UNL     1      21.338  -9.078  -4.129 -0.34 -0.00    +0.000 A 
DOCKED: ATOM      9  C   UNL     1      21.295  -8.147  -3.080 -0.38 -0.00    +0.000 A 
DOCKED: ATOM     10  C   UNL     1      21.270  -8.581  -1.753 -0.46 -0.00    +0.000 A 
DOCKED: BRANCH   5  12
DOCKED: ATOM     11  C   UNL     1      20.255 -11.028   0.551 -0.68 -0.00    +0.000 C 
DOCKED: ATOM     12  C   UNL     1      21.269 -10.359  -0.019 -0.70 -0.00    +0.000 C 
DOCKED: BRANCH  11  14
DOCKED: ATOM     13  O   UNL     1      20.248 -12.658   2.250 -1.62 -0.00    +0.000 OA
DOCKED: ATOM     14  C   UNL     1      20.241 -11.429   1.972 -0.77 -0.00    +0.000 C 
DOCKED: ATOM     15  N   UNL     1      20.194 -10.473   3.039 -0.66 -0.00    +0.000 N 
DOCKED: ATOM     16  O   UNL     1      20.289 -10.885   4.324 -0.95 -0.00    +0.000 OA
DOCKED: ATOM     17  H   UNL     1      20.091  -9.515   2.835 -0.55 -0.00    +0.000 HD
DOCKED: ENDBRANCH  11  14
DOCKED: ENDBRANCH   5  12
DOCKED: ENDBRANCH   4   8
DOCKED: ENDBRANCH   1   4
DOCKED: BRANCH   1  18
DOCKED: ATOM     18  C   UNL     1      22.219 -10.296  -7.125 -0.33 -0.00    +0.000 C 
DOCKED: BRANCH  18  19
DOCKED: ATOM     19  C   UNL     1      22.801 -10.100  -8.534 -0.21 -0.00    +0.000 C 
DOCKED: BRANCH  19  20
DOCKED: ATOM     20  C   UNL     1      23.779 -11.195  -8.854 -0.28 -0.00    +0.000 A 
DOCKED: ATOM     21  C   UNL     1      25.125 -11.263  -8.490 -0.37 -0.00    +0.000 A 
DOCKED: ATOM     22  N   UNL     1      25.707 -12.366  -9.015 -0.37 -0.00    +0.000 N 
DOCKED: ATOM     23  C   UNL     1      24.749 -12.986  -9.725 -0.34 -0.00    +0.000 A 
DOCKED: ATOM     24  C   UNL     1      23.562 -12.299  -9.657 -0.31 -0.00    +0.000 A 
DOCKED: ATOM     25  C   UNL     1      22.423 -12.735 -10.334 -0.18 -0.00    +0.000 A 
DOCKED: ATOM     26  C   UNL     1      22.521 -13.916 -11.091 -0.30 +0.00    +0.000 A 
DOCKED: ATOM     27  C   UNL     1      23.741 -14.626 -11.157 -0.36 +0.00    +0.000 A 
DOCKED: ATOM     28  C   UNL     1      24.875 -14.158 -10.468 -0.32 -0.00    +0.000 A 
DOCKED: ATOM     29  C   UNL     1      25.846 -10.275  -7.629 -0.36 -0.00    +0.000 C 
DOCKED: ATOM     30  H   UNL     1      26.642 -12.655  -8.900 -0.45 -0.00    +0.000 HD
DOCKED: ENDBRANCH  19  20
DOCKED: ENDBRANCH  18  19
DOCKED: ENDBRANCH   1  18
DOCKED: TORSDOF 7
DOCKED: TER
DOCKED: ENDMDL
________________________________________________________________________________


	BEGINNING GENETIC ALGORITHM DOCKING 94 of 100
Run: 94 Seed: 1237999690 583048934 [ Run 94 of 100 GA/GALS ]
Beginning LAMARCKIAN GENETIC ALGORITHM (LGA), with a maximum of 2500000 energy evaluations.

Final-Value: -13.739


	FINAL GENETIC ALGORITHM DOCKED STATE
	_______________________________________________


Detailed state:  trans 21.267 -7.620 -5.567 quatxyzw 0.828139 -0.154792 0.447774 -0.299540 center 0.576 -0.005 0.140 ntor 7 43.8981 162.2148 29.3175 156.3915 -137.7610 171.2720 -46.3781
State:	 21.267  -7.620  -5.567   0.868 -0.162  0.469 -145.140     43.90  162.21   29.32  156.39 -137.76  171.27  -46.38

DOCKED: MODEL       94
DOCKED: USER    Run = 94
DOCKED: USER    DPF = ligand_dock.biased.dpf
DOCKED: USER  
DOCKED: USER    Estimated Free Energy of Binding    =  -10.08 kcal/mol  [=(1)+(2)+(3)-(4)]
DOCKED: USER    Estimated Inhibition Constant, Ki   =   40.71 nM (nanomolar)  [Temperature = 298.15 K]
DOCKED: USER    
DOCKED: USER    (1) Final Intermolecular Energy     =  -12.17 kcal/mol
DOCKED: USER        vdW + Hbond + desolv Energy     =  -12.17 kcal/mol
DOCKED: USER        Electrostatic Energy            =   +0.00 kcal/mol
DOCKED: USER    (2) Final Total Internal Energy     =   -1.57 kcal/mol
DOCKED: USER    (3) Torsional Free Energy           =   +2.09 kcal/mol
DOCKED: USER    (4) Unbound System's Energy  [=(2)] =   -1.57 kcal/mol
DOCKED: USER    
DOCKED: USER    
DOCKED: USER    NEWDPF move ligand.pdbqt
DOCKED: USER    NEWDPF about 0.576000 -0.005000 0.140000
DOCKED: USER    NEWDPF tran0 21.267391 -7.620379 -5.566605
DOCKED: USER    NEWDPF quaternion0 0.828139 -0.154792 0.447774 -0.299540
DOCKED: USER    NEWDPF axisangle0 0.867994 -0.162242 0.469323 -145.140060
DOCKED: USER    NEWDPF quat0 0.867994 -0.162242 0.469323 -145.140060
DOCKED: USER    NEWDPF dihe0 43.90 162.21 29.32 156.39 -137.76 171.27 -46.38 
DOCKED: USER  keepresnum = 1 
DOCKED: USER  
DOCKED: REMARK  Name = 
DOCKED: REMARK  8 active torsions:
DOCKED: REMARK  status: ('A' for Active; 'I' for Inactive)
DOCKED: REMARK    1  A    between atoms: C_2  and  C_3
DOCKED: REMARK    2  A    between atoms: C_4  and  C_5
DOCKED: REMARK    3  A    between atoms: C_8  and  C_9
DOCKED: REMARK    4  A    between atoms: C_9  and  N_10
DOCKED: REMARK    5  A    between atoms: N_10  and  C_11
DOCKED: REMARK    6  A    between atoms: C_11  and  C_12
DOCKED: REMARK    7  A    between atoms: C_12  and  C_13
DOCKED: REMARK    8  A    between atoms: C_14  and  C_22
DOCKED: REMARK                            x       y       z     vdW  Elec       q    Type
DOCKED: REMARK                         _______ _______ _______ _____ _____    ______ ____
DOCKED: USER                              x       y       z     vdW  Elec       q    Type
DOCKED: USER                           _______ _______ _______ _____ _____    ______ ____
DOCKED: ROOT
DOCKED: ATOM      1  N   UNL     1      21.012  -7.917  -6.243 -0.12 -0.00    +0.000 N 
DOCKED: ATOM      2  H   UNL     1      21.276  -8.815  -5.839 +0.00 -0.00    +0.000 HD
DOCKED: ATOM      3  H   UNL     1      21.792  -7.487  -6.742 +0.00 -0.00    +0.000 HD
DOCKED: ENDROOT
DOCKED: BRANCH   1   4
DOCKED: ATOM      4  C   UNL     1      20.620  -7.008  -5.159 -0.18 -0.00    +0.000 C 
DOCKED: BRANCH   4   8
DOCKED: ATOM      5  C   UNL     1      20.896  -9.029  -1.345 -0.48 -0.00    +0.000 A 
DOCKED: ATOM      6  C   UNL     1      21.394  -7.719  -1.499 -0.27 -0.00    +0.000 A 
DOCKED: ATOM      7  C   UNL     1      21.314  -7.073  -2.737 -0.39 -0.00    +0.000 A 
DOCKED: ATOM      8  C   UNL     1      20.740  -7.721  -3.841 -0.29 -0.00    +0.000 A 
DOCKED: ATOM      9  C   UNL     1      20.214  -9.011  -3.682 -0.31 -0.00    +0.000 A 
DOCKED: ATOM     10  C   UNL     1      20.292  -9.658  -2.446 -0.42 -0.00    +0.000 A 
DOCKED: BRANCH   5  12
DOCKED: ATOM     11  C   UNL     1      19.944 -10.523   0.408 -0.62 -0.00    +0.000 C 
DOCKED: ATOM     12  C   UNL     1      20.944  -9.757  -0.052 -0.67 -0.00    +0.000 C 
DOCKED: BRANCH  11  14
DOCKED: ATOM     13  O   UNL     1      19.902 -12.500   1.687 -1.72 -0.00    +0.000 OA
DOCKED: ATOM     14  C   UNL     1      19.997 -11.243   1.696 -0.73 -0.00    +0.000 C 
DOCKED: ATOM     15  N   UNL     1      20.124 -10.562   2.951 -0.67 -0.00    +0.000 N 
DOCKED: ATOM     16  O   UNL     1      20.273 -11.271   4.095 -1.15 -0.00    +0.000 OA
DOCKED: ATOM     17  H   UNL     1      20.102  -9.579   2.981 -0.55 -0.00    +0.000 HD
DOCKED: ENDBRANCH  11  14
DOCKED: ENDBRANCH   5  12
DOCKED: ENDBRANCH   4   8
DOCKED: ENDBRANCH   1   4
DOCKED: BRANCH   1  18
DOCKED: ATOM     18  C   UNL     1      19.926  -8.134  -7.210 -0.09 -0.00    +0.000 C 
DOCKED: BRANCH  18  19
DOCKED: ATOM     19  C   UNL     1      19.443  -9.593  -7.236 -0.20 -0.00    +0.000 C 
DOCKED: BRANCH  19  20
DOCKED: ATOM     20  C   UNL     1      20.554 -10.520  -6.836 -0.28 -0.00    +0.000 A 
DOCKED: ATOM     21  C   UNL     1      20.576 -11.401  -5.754 -0.29 -0.00    +0.000 A 
DOCKED: ATOM     22  N   UNL     1      21.774 -12.025  -5.668 -0.50 -0.00    +0.000 N 
DOCKED: ATOM     23  C   UNL     1      22.519 -11.531  -6.672 -0.42 -0.00    +0.000 A 
DOCKED: ATOM     24  C   UNL     1      21.813 -10.607  -7.402 -0.28 -0.00    +0.000 A 
DOCKED: ATOM     25  C   UNL     1      22.384  -9.937  -8.484 -0.17 -0.00    +0.000 A 
DOCKED: ATOM     26  C   UNL     1      23.715 -10.243  -8.819 -0.18 -0.00    +0.000 A 
DOCKED: ATOM     27  C   UNL     1      24.439 -11.198  -8.071 -0.38 -0.00    +0.000 A 
DOCKED: ATOM     28  C   UNL     1      23.840 -11.853  -6.980 -0.23 -0.00    +0.000 A 
DOCKED: ATOM     29  C   UNL     1      19.442 -11.653  -4.811 -0.46 -0.00    +0.000 C 
DOCKED: ATOM     30  H   UNL     1      22.045 -12.701  -5.005 -0.12 -0.00    +0.000 HD
DOCKED: ENDBRANCH  19  20
DOCKED: ENDBRANCH  18  19
DOCKED: ENDBRANCH   1  18
DOCKED: TORSDOF 7
DOCKED: TER
DOCKED: ENDMDL
________________________________________________________________________________


	BEGINNING GENETIC ALGORITHM DOCKING 95 of 100
Run: 95 Seed: 1696547971 2094020596 [ Run 95 of 100 GA/GALS ]
Beginning LAMARCKIAN GENETIC ALGORITHM (LGA), with a maximum of 2500000 energy evaluations.

Final-Value: -14.434


	FINAL GENETIC ALGORITHM DOCKED STATE
	_______________________________________________


Detailed state:  trans 20.654 -11.060 -6.000 quatxyzw 0.037606 -0.793664 0.604911 -0.052596 center 0.576 -0.005 0.140 ntor 7 -48.0930 -103.0293 -165.0094 51.2580 -162.4692 -169.8888 85.2435
State:	 20.654 -11.060  -6.000   0.038 -0.795  0.606 -173.970    -48.09 -103.03 -165.01   51.26 -162.47 -169.89   85.24

DOCKED: MODEL       95
DOCKED: USER    Run = 95
DOCKED: USER    DPF = ligand_dock.biased.dpf
DOCKED: USER  
DOCKED: USER    Estimated Free Energy of Binding    =  -11.40 kcal/mol  [=(1)+(2)+(3)-(4)]
DOCKED: USER    Estimated Inhibition Constant, Ki   =    4.38 nM (nanomolar)  [Temperature = 298.15 K]
DOCKED: USER    
DOCKED: USER    (1) Final Intermolecular Energy     =  -13.49 kcal/mol
DOCKED: USER        vdW + Hbond + desolv Energy     =  -13.49 kcal/mol
DOCKED: USER        Electrostatic Energy            =   +0.00 kcal/mol
DOCKED: USER    (2) Final Total Internal Energy     =   -0.94 kcal/mol
DOCKED: USER    (3) Torsional Free Energy           =   +2.09 kcal/mol
DOCKED: USER    (4) Unbound System's Energy  [=(2)] =   -0.94 kcal/mol
DOCKED: USER    
DOCKED: USER    
DOCKED: USER    NEWDPF move ligand.pdbqt
DOCKED: USER    NEWDPF about 0.576000 -0.005000 0.140000
DOCKED: USER    NEWDPF tran0 20.653960 -11.059983 -5.999840
DOCKED: USER    NEWDPF quaternion0 0.037606 -0.793664 0.604911 -0.052596
DOCKED: USER    NEWDPF axisangle0 0.037658 -0.794764 0.605750 -173.970191
DOCKED: USER    NEWDPF quat0 0.037658 -0.794764 0.605750 -173.970191
DOCKED: USER    NEWDPF dihe0 -48.09 -103.03 -165.01 51.26 -162.47 -169.89 85.24 
DOCKED: USER  keepresnum = 1 
DOCKED: USER  
DOCKED: REMARK  Name = 
DOCKED: REMARK  8 active torsions:
DOCKED: REMARK  status: ('A' for Active; 'I' for Inactive)
DOCKED: REMARK    1  A    between atoms: C_2  and  C_3
DOCKED: REMARK    2  A    between atoms: C_4  and  C_5
DOCKED: REMARK    3  A    between atoms: C_8  and  C_9
DOCKED: REMARK    4  A    between atoms: C_9  and  N_10
DOCKED: REMARK    5  A    between atoms: N_10  and  C_11
DOCKED: REMARK    6  A    between atoms: C_11  and  C_12
DOCKED: REMARK    7  A    between atoms: C_12  and  C_13
DOCKED: REMARK    8  A    between atoms: C_14  and  C_22
DOCKED: REMARK                            x       y       z     vdW  Elec       q    Type
DOCKED: REMARK                         _______ _______ _______ _____ _____    ______ ____
DOCKED: USER                              x       y       z     vdW  Elec       q    Type
DOCKED: USER                           _______ _______ _______ _____ _____    ______ ____
DOCKED: ROOT
DOCKED: ATOM      1  N   UNL     1      21.330 -11.326  -6.287 -0.33 -0.00    +0.000 N 
DOCKED: ATOM      2  H   UNL     1      20.754 -11.690  -7.046 -0.35 -0.00    +0.000 HD
DOCKED: ATOM      3  H   UNL     1      21.408 -11.997  -5.522 -0.23 -0.00    +0.000 HD
DOCKED: ENDROOT
DOCKED: BRANCH   1   4
DOCKED: ATOM      4  C   UNL     1      20.699 -10.112  -5.755 -0.33 -0.00    +0.000 C 
DOCKED: BRANCH   4   8
DOCKED: ATOM      5  C   UNL     1      20.456 -10.305  -1.441 -0.51 -0.00    +0.000 A 
DOCKED: ATOM      6  C   UNL     1      21.329  -9.394  -2.070 -0.49 -0.00    +0.000 A 
DOCKED: ATOM      7  C   UNL     1      21.414  -9.342  -3.464 -0.40 -0.00    +0.000 A 
DOCKED: ATOM      8  C   UNL     1      20.634 -10.198  -4.255 -0.39 -0.00    +0.000 A 
DOCKED: ATOM      9  C   UNL     1      19.740 -11.082  -3.634 -0.40 -0.00    +0.000 A 
DOCKED: ATOM     10  C   UNL     1      19.653 -11.134  -2.241 -0.24 -0.00    +0.000 A 
DOCKED: BRANCH   5  12
DOCKED: ATOM     11  C   UNL     1      20.469 -11.531   0.729 -0.64 -0.00    +0.000 C 
DOCKED: ATOM     12  C   UNL     1      20.318 -10.393   0.034 -0.64 -0.00    +0.000 C 
DOCKED: BRANCH  11  14
DOCKED: ATOM     13  O   UNL     1      19.895 -12.684   2.700 -1.53 -0.00    +0.000 OA
DOCKED: ATOM     14  C   UNL     1      20.328 -11.613   2.197 -0.78 -0.00    +0.000 C 
DOCKED: ATOM     15  N   UNL     1      20.640 -10.512   3.060 -0.63 -0.00    +0.000 N 
DOCKED: ATOM     16  O   UNL     1      20.594 -10.670   4.404 -0.85 -0.00    +0.000 OA
DOCKED: ATOM     17  H   UNL     1      20.886  -9.640   2.675 -0.57 -0.00    +0.000 HD
DOCKED: ENDBRANCH  11  14
DOCKED: ENDBRANCH   5  12
DOCKED: ENDBRANCH   4   8
DOCKED: ENDBRANCH   1   4
DOCKED: BRANCH   1  18
DOCKED: ATOM     18  C   UNL     1      22.684 -11.072  -6.802 -0.44 -0.00    +0.000 C 
DOCKED: BRANCH  18  19
DOCKED: ATOM     19  C   UNL     1      22.706 -10.854  -8.323 -0.31 -0.00    +0.000 C 
DOCKED: BRANCH  19  20
DOCKED: ATOM     20  C   UNL     1      23.801 -11.666  -8.953 -0.32 -0.00    +0.000 A 
DOCKED: ATOM     21  C   UNL     1      25.173 -11.413  -8.916 -0.35 -0.00    +0.000 A 
DOCKED: ATOM     22  N   UNL     1      25.848 -12.325  -9.655 -0.24 -0.00    +0.000 N 
DOCKED: ATOM     23  C   UNL     1      24.915 -13.140 -10.176 -0.30 -0.00    +0.000 A 
DOCKED: ATOM     24  C   UNL     1      23.655 -12.767  -9.777 -0.34 -0.00    +0.000 A 
DOCKED: ATOM     25  C   UNL     1      22.518 -13.450 -10.209 -0.17 -0.00    +0.000 A 
DOCKED: ATOM     26  C   UNL     1      22.697 -14.549 -11.067 -0.38 +0.00    +0.000 A 
DOCKED: ATOM     27  C   UNL     1      23.994 -14.936 -11.473 -0.32 +0.00    +0.000 A 
DOCKED: ATOM     28  C   UNL     1      25.122 -14.225 -11.027 -0.29 -0.00    +0.000 A 
DOCKED: ATOM     29  C   UNL     1      25.836 -10.304  -8.163 -0.38 -0.00    +0.000 C 
DOCKED: ATOM     30  H   UNL     1      26.823 -12.379  -9.785 -0.34 -0.00    +0.000 HD
DOCKED: ENDBRANCH  19  20
DOCKED: ENDBRANCH  18  19
DOCKED: ENDBRANCH   1  18
DOCKED: TORSDOF 7
DOCKED: TER
DOCKED: ENDMDL
________________________________________________________________________________


	BEGINNING GENETIC ALGORITHM DOCKING 96 of 100
Run: 96 Seed: 1228188943 1883138 [ Run 96 of 100 GA/GALS ]
Beginning LAMARCKIAN GENETIC ALGORITHM (LGA), with a maximum of 2500000 energy evaluations.

Final-Value: -13.065


	FINAL GENETIC ALGORITHM DOCKED STATE
	_______________________________________________


Detailed state:  trans 21.140 -10.943 -6.931 quatxyzw 0.512912 -0.594219 0.235452 -0.573051 center 0.576 -0.005 0.140 ntor 7 88.8006 -179.9357 140.0385 -127.7614 79.9132 165.1418 -37.9122
State:	 21.140 -10.943  -6.931   0.626 -0.725  0.287 -110.074     88.80 -179.94  140.04 -127.76   79.91  165.14  -37.91

DOCKED: MODEL       96
DOCKED: USER    Run = 96
DOCKED: USER    DPF = ligand_dock.biased.dpf
DOCKED: USER  
DOCKED: USER    Estimated Free Energy of Binding    =   -8.67 kcal/mol  [=(1)+(2)+(3)-(4)]
DOCKED: USER    Estimated Inhibition Constant, Ki   =  443.87 nM (nanomolar)  [Temperature = 298.15 K]
DOCKED: USER    
DOCKED: USER    (1) Final Intermolecular Energy     =  -10.75 kcal/mol
DOCKED: USER        vdW + Hbond + desolv Energy     =  -10.75 kcal/mol
DOCKED: USER        Electrostatic Energy            =   +0.00 kcal/mol
DOCKED: USER    (2) Final Total Internal Energy     =   -2.31 kcal/mol
DOCKED: USER    (3) Torsional Free Energy           =   +2.09 kcal/mol
DOCKED: USER    (4) Unbound System's Energy  [=(2)] =   -2.31 kcal/mol
DOCKED: USER    
DOCKED: USER    
DOCKED: USER    NEWDPF move ligand.pdbqt
DOCKED: USER    NEWDPF about 0.576000 -0.005000 0.140000
DOCKED: USER    NEWDPF tran0 21.140207 -10.943262 -6.930859
DOCKED: USER    NEWDPF quaternion0 0.512912 -0.594219 0.235452 -0.573051
DOCKED: USER    NEWDPF axisangle0 0.625869 -0.725082 0.287305 -110.073509
DOCKED: USER    NEWDPF quat0 0.625869 -0.725082 0.287305 -110.073509
DOCKED: USER    NEWDPF dihe0 88.80 -179.94 140.04 -127.76 79.91 165.14 -37.91 
DOCKED: USER  keepresnum = 1 
DOCKED: USER  
DOCKED: REMARK  Name = 
DOCKED: REMARK  8 active torsions:
DOCKED: REMARK  status: ('A' for Active; 'I' for Inactive)
DOCKED: REMARK    1  A    between atoms: C_2  and  C_3
DOCKED: REMARK    2  A    between atoms: C_4  and  C_5
DOCKED: REMARK    3  A    between atoms: C_8  and  C_9
DOCKED: REMARK    4  A    between atoms: C_9  and  N_10
DOCKED: REMARK    5  A    between atoms: N_10  and  C_11
DOCKED: REMARK    6  A    between atoms: C_11  and  C_12
DOCKED: REMARK    7  A    between atoms: C_12  and  C_13
DOCKED: REMARK    8  A    between atoms: C_14  and  C_22
DOCKED: REMARK                            x       y       z     vdW  Elec       q    Type
DOCKED: REMARK                         _______ _______ _______ _____ _____    ______ ____
DOCKED: USER                              x       y       z     vdW  Elec       q    Type
DOCKED: USER                           _______ _______ _______ _____ _____    ______ ____
DOCKED: ROOT
DOCKED: ATOM      1  N   UNL     1      20.770 -10.924  -7.619 -0.25 -0.00    +0.000 N 
DOCKED: ATOM      2  H   UNL     1      19.989 -11.327  -7.101 -0.13 -0.00    +0.000 HD
DOCKED: ATOM      3  H   UNL     1      21.387 -11.648  -7.987 -0.46 -0.00    +0.000 HD
DOCKED: ENDROOT
DOCKED: BRANCH   1   4
DOCKED: ATOM      4  C   UNL     1      21.559 -10.086  -6.708 -0.31 -0.00    +0.000 C 
DOCKED: BRANCH   4   8
DOCKED: ATOM      5  C   UNL     1      20.178 -10.691  -2.654 -0.41 -0.00    +0.000 A 
DOCKED: ATOM      6  C   UNL     1      19.482 -11.259  -3.740 -0.38 -0.00    +0.000 A 
DOCKED: ATOM      7  C   UNL     1      19.925 -11.051  -5.050 -0.42 -0.00    +0.000 A 
DOCKED: ATOM      8  C   UNL     1      21.064 -10.273  -5.300 -0.36 -0.00    +0.000 A 
DOCKED: ATOM      9  C   UNL     1      21.778  -9.734  -4.220 -0.32 -0.00    +0.000 A 
DOCKED: ATOM     10  C   UNL     1      21.338  -9.941  -2.911 -0.47 -0.00    +0.000 A 
DOCKED: BRANCH   5  12
DOCKED: ATOM     11  C   UNL     1      20.589 -10.758  -0.196 -0.65 -0.00    +0.000 C 
DOCKED: ATOM     12  C   UNL     1      19.760 -10.889  -1.243 -0.49 -0.00    +0.000 C 
DOCKED: BRANCH  11  14
DOCKED: ATOM     13  O   UNL     1      19.468 -10.067   1.755 -0.64 -0.00    +0.000 OA
DOCKED: ATOM     14  C   UNL     1      20.168 -10.958   1.205 -0.70 -0.00    +0.000 C 
DOCKED: ATOM     15  N   UNL     1      20.549 -12.114   1.963 -0.72 -0.00    +0.000 N 
DOCKED: ATOM     16  O   UNL     1      20.052 -12.302   3.208 -1.55 -0.00    +0.000 OA
DOCKED: ATOM     17  H   UNL     1      21.173 -12.770   1.578 -0.58 -0.00    +0.000 HD
DOCKED: ENDBRANCH  11  14
DOCKED: ENDBRANCH   5  12
DOCKED: ENDBRANCH   4   8
DOCKED: ENDBRANCH   1   4
DOCKED: BRANCH   1  18
DOCKED: ATOM     18  C   UNL     1      20.238 -10.164  -8.760 -0.20 -0.00    +0.000 C 
DOCKED: BRANCH  18  19
DOCKED: ATOM     19  C   UNL     1      18.705 -10.229  -8.849 -0.13 -0.00    +0.000 C 
DOCKED: BRANCH  19  20
DOCKED: ATOM     20  C   UNL     1      18.090  -9.945  -7.509 -0.19 -0.00    +0.000 A 
DOCKED: ATOM     21  C   UNL     1      17.124 -10.700  -6.841 -0.27 -0.00    +0.000 A 
DOCKED: ATOM     22  N   UNL     1      16.760 -10.097  -5.685 -0.18 -0.00    +0.000 N 
DOCKED: ATOM     23  C   UNL     1      17.470  -8.957  -5.625 -0.13 -0.00    +0.000 A 
DOCKED: ATOM     24  C   UNL     1      18.286  -8.826  -6.721 -0.10 -0.00    +0.000 A 
DOCKED: ATOM     25  C   UNL     1      19.105  -7.709  -6.895 -0.06 -0.00    +0.000 A 
DOCKED: ATOM     26  C   UNL     1      19.079  -6.714  -5.902 -0.09 -0.00    +0.000 A 
DOCKED: ATOM     27  C   UNL     1      18.242  -6.852  -4.772 -0.05 -0.00    +0.000 A 
DOCKED: ATOM     28  C   UNL     1      17.423  -7.986  -4.626 -0.12 -0.00    +0.000 A 
DOCKED: ATOM     29  C   UNL     1      16.561 -12.005  -7.307 -0.37 -0.00    +0.000 C 
DOCKED: ATOM     30  H   UNL     1      16.108 -10.426  -5.024 -0.00 -0.00    +0.000 HD
DOCKED: ENDBRANCH  19  20
DOCKED: ENDBRANCH  18  19
DOCKED: ENDBRANCH   1  18
DOCKED: TORSDOF 7
DOCKED: TER
DOCKED: ENDMDL
________________________________________________________________________________


	BEGINNING GENETIC ALGORITHM DOCKING 97 of 100
Run: 97 Seed: 126695799 1881878317 [ Run 97 of 100 GA/GALS ]
Beginning LAMARCKIAN GENETIC ALGORITHM (LGA), with a maximum of 2500000 energy evaluations.

Final-Value: -13.563


	FINAL GENETIC ALGORITHM DOCKED STATE
	_______________________________________________


Detailed state:  trans 21.797 -7.879 -5.279 quatxyzw 0.667596 -0.125727 0.722335 -0.129387 center 0.576 -0.005 0.140 ntor 7 -112.0381 175.7958 165.4837 -119.9330 -17.1840 -179.8607 -34.7749
State:	 21.797  -7.879  -5.279   0.673 -0.127  0.728 -165.132   -112.04  175.80  165.48 -119.93  -17.18 -179.86  -34.77

DOCKED: MODEL       97
DOCKED: USER    Run = 97
DOCKED: USER    DPF = ligand_dock.biased.dpf
DOCKED: USER  
DOCKED: USER    Estimated Free Energy of Binding    =   -9.64 kcal/mol  [=(1)+(2)+(3)-(4)]
DOCKED: USER    Estimated Inhibition Constant, Ki   =   86.08 nM (nanomolar)  [Temperature = 298.15 K]
DOCKED: USER    
DOCKED: USER    (1) Final Intermolecular Energy     =  -11.73 kcal/mol
DOCKED: USER        vdW + Hbond + desolv Energy     =  -11.73 kcal/mol
DOCKED: USER        Electrostatic Energy            =   +0.00 kcal/mol
DOCKED: USER    (2) Final Total Internal Energy     =   -1.84 kcal/mol
DOCKED: USER    (3) Torsional Free Energy           =   +2.09 kcal/mol
DOCKED: USER    (4) Unbound System's Energy  [=(2)] =   -1.84 kcal/mol
DOCKED: USER    
DOCKED: USER    
DOCKED: USER    NEWDPF move ligand.pdbqt
DOCKED: USER    NEWDPF about 0.576000 -0.005000 0.140000
DOCKED: USER    NEWDPF tran0 21.797228 -7.879298 -5.278537
DOCKED: USER    NEWDPF quaternion0 0.667596 -0.125727 0.722335 -0.129387
DOCKED: USER    NEWDPF axisangle0 0.673255 -0.126793 0.728458 -165.131676
DOCKED: USER    NEWDPF quat0 0.673255 -0.126793 0.728458 -165.131676
DOCKED: USER    NEWDPF dihe0 -112.04 175.80 165.48 -119.93 -17.18 -179.86 -34.77 
DOCKED: USER  keepresnum = 1 
DOCKED: USER  
DOCKED: REMARK  Name = 
DOCKED: REMARK  8 active torsions:
DOCKED: REMARK  status: ('A' for Active; 'I' for Inactive)
DOCKED: REMARK    1  A    between atoms: C_2  and  C_3
DOCKED: REMARK    2  A    between atoms: C_4  and  C_5
DOCKED: REMARK    3  A    between atoms: C_8  and  C_9
DOCKED: REMARK    4  A    between atoms: C_9  and  N_10
DOCKED: REMARK    5  A    between atoms: N_10  and  C_11
DOCKED: REMARK    6  A    between atoms: C_11  and  C_12
DOCKED: REMARK    7  A    between atoms: C_12  and  C_13
DOCKED: REMARK    8  A    between atoms: C_14  and  C_22
DOCKED: REMARK                            x       y       z     vdW  Elec       q    Type
DOCKED: REMARK                         _______ _______ _______ _____ _____    ______ ____
DOCKED: USER                              x       y       z     vdW  Elec       q    Type
DOCKED: USER                           _______ _______ _______ _____ _____    ______ ____
DOCKED: ROOT
DOCKED: ATOM      1  N   UNL     1      22.093  -8.114  -5.963 -0.21 -0.00    +0.000 N 
DOCKED: ATOM      2  H   UNL     1      22.342  -8.963  -5.454 -0.02 -0.00    +0.000 HD
DOCKED: ATOM      3  H   UNL     1      22.830  -7.412  -5.902 -0.02 -0.00    +0.000 HD
DOCKED: ENDROOT
DOCKED: BRANCH   1   4
DOCKED: ATOM      4  C   UNL     1      20.880  -7.543  -5.363 -0.19 -0.00    +0.000 C 
DOCKED: BRANCH   4   8
DOCKED: ATOM      5  C   UNL     1      20.105  -9.592  -1.633 -0.26 -0.00    +0.000 A 
DOCKED: ATOM      6  C   UNL     1      19.337  -9.876  -2.780 -0.28 -0.00    +0.000 A 
DOCKED: ATOM      7  C   UNL     1      19.582  -9.203  -3.981 -0.26 -0.00    +0.000 A 
DOCKED: ATOM      8  C   UNL     1      20.594  -8.235  -4.059 -0.28 -0.00    +0.000 A 
DOCKED: ATOM      9  C   UNL     1      21.383  -7.974  -2.930 -0.38 -0.00    +0.000 A 
DOCKED: ATOM     10  C   UNL     1      21.140  -8.646  -1.729 -0.47 -0.00    +0.000 A 
DOCKED: BRANCH   5  12
DOCKED: ATOM     11  C   UNL     1      20.860 -10.451   0.582 -0.68 -0.00    +0.000 C 
DOCKED: ATOM     12  C   UNL     1      19.896 -10.284  -0.337 -0.54 -0.00    +0.000 C 
DOCKED: BRANCH  11  14
DOCKED: ATOM     13  O   UNL     1      20.740 -12.398   1.899 -1.66 -0.00    +0.000 OA
DOCKED: ATOM     14  C   UNL     1      20.646 -11.142   1.869 -0.71 -0.00    +0.000 C 
DOCKED: ATOM     15  N   UNL     1      20.309 -10.439   3.071 -0.64 -0.00    +0.000 N 
DOCKED: ATOM     16  O   UNL     1      20.227 -11.105   4.246 -1.03 -0.00    +0.000 OA
DOCKED: ATOM     17  H   UNL     1      20.138  -9.470   3.042 -0.57 -0.00    +0.000 HD
DOCKED: ENDBRANCH  11  14
DOCKED: ENDBRANCH   5  12
DOCKED: ENDBRANCH   4   8
DOCKED: ENDBRANCH   1   4
DOCKED: BRANCH   1  18
DOCKED: ATOM     18  C   UNL     1      21.909  -8.451  -7.383 -0.14 -0.00    +0.000 C 
DOCKED: BRANCH  18  19
DOCKED: ATOM     19  C   UNL     1      21.810  -9.966  -7.621 -0.25 -0.00    +0.000 C 
DOCKED: BRANCH  19  20
DOCKED: ATOM     20  C   UNL     1      20.707 -10.556  -6.789 -0.28 -0.00    +0.000 A 
DOCKED: ATOM     21  C   UNL     1      20.836 -11.305  -5.619 -0.40 -0.00    +0.000 A 
DOCKED: ATOM     22  N   UNL     1      19.625 -11.726  -5.185 -0.47 -0.00    +0.000 N 
DOCKED: ATOM     23  C   UNL     1      18.733 -11.269  -6.081 -0.36 -0.00    +0.000 A 
DOCKED: ATOM     24  C   UNL     1      19.355 -10.558  -7.077 -0.27 -0.00    +0.000 A 
DOCKED: ATOM     25  C   UNL     1      18.638 -10.002  -8.137 -0.19 -0.00    +0.000 A 
DOCKED: ATOM     26  C   UNL     1      17.244 -10.185  -8.155 -0.18 -0.00    +0.000 A 
DOCKED: ATOM     27  C   UNL     1      16.604 -10.913  -7.127 -0.27 -0.00    +0.000 A 
DOCKED: ATOM     28  C   UNL     1      17.353 -11.467  -6.074 -0.26 -0.00    +0.000 A 
DOCKED: ATOM     29  C   UNL     1      22.119 -11.605  -4.912 -0.40 -0.00    +0.000 C 
DOCKED: ATOM     30  H   UNL     1      19.436 -12.259  -4.378 -0.06 -0.00    +0.000 HD
DOCKED: ENDBRANCH  19  20
DOCKED: ENDBRANCH  18  19
DOCKED: ENDBRANCH   1  18
DOCKED: TORSDOF 7
DOCKED: TER
DOCKED: ENDMDL
________________________________________________________________________________


	BEGINNING GENETIC ALGORITHM DOCKING 98 of 100
Run: 98 Seed: 524787503 1070535911 [ Run 98 of 100 GA/GALS ]
Beginning LAMARCKIAN GENETIC ALGORITHM (LGA), with a maximum of 2500000 energy evaluations.

Final-Value: -13.115


	FINAL GENETIC ALGORITHM DOCKED STATE
	_______________________________________________


Detailed state:  trans 12.977 -9.105 4.580 quatxyzw 0.049502 -0.180738 0.428788 0.883756 center 0.576 -0.005 0.140 ntor 7 97.2375 173.3012 -42.4731 -30.8892 -119.3060 161.9486 -32.3429
State:	 12.977  -9.105   4.580   0.106 -0.386  0.916 55.802     97.24  173.30  -42.47  -30.89 -119.31  161.95  -32.34

DOCKED: MODEL       98
DOCKED: USER    Run = 98
DOCKED: USER    DPF = ligand_dock.biased.dpf
DOCKED: USER  
DOCKED: USER    Estimated Free Energy of Binding    =  -10.06 kcal/mol  [=(1)+(2)+(3)-(4)]
DOCKED: USER    Estimated Inhibition Constant, Ki   =   42.11 nM (nanomolar)  [Temperature = 298.15 K]
DOCKED: USER    
DOCKED: USER    (1) Final Intermolecular Energy     =  -12.15 kcal/mol
DOCKED: USER        vdW + Hbond + desolv Energy     =  -12.15 kcal/mol
DOCKED: USER        Electrostatic Energy            =   +0.00 kcal/mol
DOCKED: USER    (2) Final Total Internal Energy     =   -0.96 kcal/mol
DOCKED: USER    (3) Torsional Free Energy           =   +2.09 kcal/mol
DOCKED: USER    (4) Unbound System's Energy  [=(2)] =   -0.96 kcal/mol
DOCKED: USER    
DOCKED: USER    
DOCKED: USER    NEWDPF move ligand.pdbqt
DOCKED: USER    NEWDPF about 0.576000 -0.005000 0.140000
DOCKED: USER    NEWDPF tran0 12.976878 -9.105131 4.579560
DOCKED: USER    NEWDPF quaternion0 0.049502 -0.180738 0.428788 0.883756
DOCKED: USER    NEWDPF axisangle0 0.105785 -0.386235 0.916314 55.802373
DOCKED: USER    NEWDPF quat0 0.105785 -0.386235 0.916314 55.802373
DOCKED: USER    NEWDPF dihe0 97.24 173.30 -42.47 -30.89 -119.31 161.95 -32.34 
DOCKED: USER  keepresnum = 1 
DOCKED: USER  
DOCKED: REMARK  Name = 
DOCKED: REMARK  8 active torsions:
DOCKED: REMARK  status: ('A' for Active; 'I' for Inactive)
DOCKED: REMARK    1  A    between atoms: C_2  and  C_3
DOCKED: REMARK    2  A    between atoms: C_4  and  C_5
DOCKED: REMARK    3  A    between atoms: C_8  and  C_9
DOCKED: REMARK    4  A    between atoms: C_9  and  N_10
DOCKED: REMARK    5  A    between atoms: N_10  and  C_11
DOCKED: REMARK    6  A    between atoms: C_11  and  C_12
DOCKED: REMARK    7  A    between atoms: C_12  and  C_13
DOCKED: REMARK    8  A    between atoms: C_14  and  C_22
DOCKED: REMARK                            x       y       z     vdW  Elec       q    Type
DOCKED: REMARK                         _______ _______ _______ _____ _____    ______ ____
DOCKED: USER                              x       y       z     vdW  Elec       q    Type
DOCKED: USER                           _______ _______ _______ _____ _____    ______ ____
DOCKED: ROOT
DOCKED: ATOM      1  N   UNL     1      12.775  -8.500   5.031 -0.33 +0.00    +0.000 N 
DOCKED: ATOM      2  H   UNL     1      13.768  -8.465   5.262 -0.01 +0.00    +0.000 HD
DOCKED: ATOM      3  H   UNL     1      12.266  -9.121   5.661 -0.03 +0.00    +0.000 HD
DOCKED: ENDROOT
DOCKED: BRANCH   1   4
DOCKED: ATOM      4  C   UNL     1      12.626  -9.024   3.668 -0.25 +0.00    +0.000 C 
DOCKED: BRANCH   4   8
DOCKED: ATOM      5  C   UNL     1      16.368 -10.729   2.327 -0.40 +0.00    +0.000 A 
DOCKED: ATOM      6  C   UNL     1      15.144 -11.179   1.794 -0.38 +0.00    +0.000 A 
DOCKED: ATOM      7  C   UNL     1      13.935 -10.634   2.238 -0.32 +0.00    +0.000 A 
DOCKED: ATOM      8  C   UNL     1      13.925  -9.636   3.222 -0.28 +0.00    +0.000 A 
DOCKED: ATOM      9  C   UNL     1      15.143  -9.162   3.731 -0.35 +0.00    +0.000 A 
DOCKED: ATOM     10  C   UNL     1      16.352  -9.704   3.288 -0.38 +0.00    +0.000 A 
DOCKED: BRANCH   5  12
DOCKED: ATOM     11  C   UNL     1      18.817 -10.551   1.897 -0.57 -0.00    +0.000 C 
DOCKED: ATOM     12  C   UNL     1      17.680 -11.264   1.884 -0.49 +0.00    +0.000 C 
DOCKED: BRANCH  11  14
DOCKED: ATOM     13  O   UNL     1      20.644 -12.020   2.118 -1.92 -0.00    +0.000 OA
DOCKED: ATOM     14  C   UNL     1      20.119 -11.088   1.452 -0.72 -0.00    +0.000 C 
DOCKED: ATOM     15  N   UNL     1      20.814 -10.568   0.311 -0.64 -0.00    +0.000 N 
DOCKED: ATOM     16  O   UNL     1      21.951 -11.162  -0.118 -0.64 -0.00    +0.000 OA
DOCKED: ATOM     17  H   UNL     1      20.462  -9.779  -0.160 -0.03 -0.00    +0.000 HD
DOCKED: ENDBRANCH  11  14
DOCKED: ENDBRANCH   5  12
DOCKED: ENDBRANCH   4   8
DOCKED: ENDBRANCH   1   4
DOCKED: BRANCH   1  18
DOCKED: ATOM     18  C   UNL     1      12.209  -7.151   5.176 -0.28 +0.00    +0.000 C 
DOCKED: BRANCH  18  19
DOCKED: ATOM     19  C   UNL     1      13.227  -6.140   5.729 -0.32 +0.00    +0.000 C 
DOCKED: BRANCH  19  20
DOCKED: ATOM     20  C   UNL     1      13.011  -4.788   5.112 -0.27 +0.00    +0.000 A 
DOCKED: ATOM     21  C   UNL     1      11.803  -4.103   4.973 -0.30 +0.00    +0.000 A 
DOCKED: ATOM     22  N   UNL     1      11.987  -2.940   4.305 -0.37 +0.00    +0.000 N 
DOCKED: ATOM     23  C   UNL     1      13.296  -2.892   4.002 -0.32 -0.00    +0.000 A 
DOCKED: ATOM     24  C   UNL     1      13.951  -4.004   4.471 -0.30 +0.00    +0.000 A 
DOCKED: ATOM     25  C   UNL     1      15.318  -4.193   4.258 -0.39 -0.00    +0.000 A 
DOCKED: ATOM     26  C   UNL     1      16.016  -3.199   3.549 -0.40 -0.00    +0.000 A 
DOCKED: ATOM     27  C   UNL     1      15.342  -2.053   3.072 -0.33 -0.00    +0.000 A 
DOCKED: ATOM     28  C   UNL     1      13.963  -1.892   3.296 -0.27 -0.00    +0.000 A 
DOCKED: ATOM     29  C   UNL     1      10.476  -4.559   5.491 -0.37 +0.00    +0.000 C 
DOCKED: ATOM     30  H   UNL     1      11.302  -2.266   4.086 -0.49 +0.00    +0.000 HD
DOCKED: ENDBRANCH  19  20
DOCKED: ENDBRANCH  18  19
DOCKED: ENDBRANCH   1  18
DOCKED: TORSDOF 7
DOCKED: TER
DOCKED: ENDMDL
________________________________________________________________________________


	BEGINNING GENETIC ALGORITHM DOCKING 99 of 100
Run: 99 Seed: 1370469490 1974664957 [ Run 99 of 100 GA/GALS ]
Beginning LAMARCKIAN GENETIC ALGORITHM (LGA), with a maximum of 2500000 energy evaluations.

Final-Value: -12.999


	FINAL GENETIC ALGORITHM DOCKED STATE
	_______________________________________________


Detailed state:  trans 21.924 -7.212 -4.917 quatxyzw 0.402844 0.303773 0.376143 0.777145 center 0.576 -0.005 0.140 ntor 7 178.4742 176.0264 -175.4697 120.1373 -126.1170 21.1441 51.3206
State:	 21.924  -7.212  -4.917   0.640  0.483  0.598 78.000    178.47  176.03 -175.47  120.14 -126.12   21.14   51.32

DOCKED: MODEL       99
DOCKED: USER    Run = 99
DOCKED: USER    DPF = ligand_dock.biased.dpf
DOCKED: USER  
DOCKED: USER    Estimated Free Energy of Binding    =   -8.54 kcal/mol  [=(1)+(2)+(3)-(4)]
DOCKED: USER    Estimated Inhibition Constant, Ki   =  549.17 nM (nanomolar)  [Temperature = 298.15 K]
DOCKED: USER    
DOCKED: USER    (1) Final Intermolecular Energy     =  -10.63 kcal/mol
DOCKED: USER        vdW + Hbond + desolv Energy     =  -10.63 kcal/mol
DOCKED: USER        Electrostatic Energy            =   +0.00 kcal/mol
DOCKED: USER    (2) Final Total Internal Energy     =   -2.37 kcal/mol
DOCKED: USER    (3) Torsional Free Energy           =   +2.09 kcal/mol
DOCKED: USER    (4) Unbound System's Energy  [=(2)] =   -2.37 kcal/mol
DOCKED: USER    
DOCKED: USER    
DOCKED: USER    NEWDPF move ligand.pdbqt
DOCKED: USER    NEWDPF about 0.576000 -0.005000 0.140000
DOCKED: USER    NEWDPF tran0 21.924313 -7.211709 -4.917131
DOCKED: USER    NEWDPF quaternion0 0.402844 0.303773 0.376143 0.777145
DOCKED: USER    NEWDPF axisangle0 0.640125 0.482700 0.597696 78.000130
DOCKED: USER    NEWDPF quat0 0.640125 0.482700 0.597696 78.000130
DOCKED: USER    NEWDPF dihe0 178.47 176.03 -175.47 120.14 -126.12 21.14 51.32 
DOCKED: USER  keepresnum = 1 
DOCKED: USER  
DOCKED: REMARK  Name = 
DOCKED: REMARK  8 active torsions:
DOCKED: REMARK  status: ('A' for Active; 'I' for Inactive)
DOCKED: REMARK    1  A    between atoms: C_2  and  C_3
DOCKED: REMARK    2  A    between atoms: C_4  and  C_5
DOCKED: REMARK    3  A    between atoms: C_8  and  C_9
DOCKED: REMARK    4  A    between atoms: C_9  and  N_10
DOCKED: REMARK    5  A    between atoms: N_10  and  C_11
DOCKED: REMARK    6  A    between atoms: C_11  and  C_12
DOCKED: REMARK    7  A    between atoms: C_12  and  C_13
DOCKED: REMARK    8  A    between atoms: C_14  and  C_22
DOCKED: REMARK                            x       y       z     vdW  Elec       q    Type
DOCKED: REMARK                         _______ _______ _______ _____ _____    ______ ____
DOCKED: USER                              x       y       z     vdW  Elec       q    Type
DOCKED: USER                           _______ _______ _______ _____ _____    ______ ____
DOCKED: ROOT
DOCKED: ATOM      1  N   UNL     1      21.595  -6.662  -5.365 -0.15 -0.00    +0.000 N 
DOCKED: ATOM      2  H   UNL     1      22.331  -6.059  -4.996 -0.01 -0.00    +0.000 HD
DOCKED: ATOM      3  H   UNL     1      20.768  -6.650  -4.767 -0.00 -0.00    +0.000 HD
DOCKED: ENDROOT
DOCKED: BRANCH   1   4
DOCKED: ATOM      4  C   UNL     1      22.095  -8.042  -5.410 -0.22 -0.00    +0.000 C 
DOCKED: BRANCH   4   8
DOCKED: ATOM      5  C   UNL     1      20.824 -10.194  -1.880 -0.52 -0.00    +0.000 A 
DOCKED: ATOM      6  C   UNL     1      20.964 -10.860  -3.114 -0.39 -0.00    +0.000 A 
DOCKED: ATOM      7  C   UNL     1      21.364 -10.159  -4.256 -0.42 -0.00    +0.000 A 
DOCKED: ATOM      8  C   UNL     1      21.627  -8.783  -4.189 -0.29 -0.00    +0.000 A 
DOCKED: ATOM      9  C   UNL     1      21.522  -8.124  -2.955 -0.35 -0.00    +0.000 A 
DOCKED: ATOM     10  C   UNL     1      21.124  -8.823  -1.814 -0.48 -0.00    +0.000 A 
DOCKED: BRANCH   5  12
DOCKED: ATOM     11  C   UNL     1      20.751 -10.474   0.596 -0.68 -0.00    +0.000 C 
DOCKED: ATOM     12  C   UNL     1      20.415 -10.891  -0.635 -0.57 -0.00    +0.000 C 
DOCKED: BRANCH  11  14
DOCKED: ATOM     13  O   UNL     1      19.902 -12.350   1.737 -1.80 -0.00    +0.000 OA
DOCKED: ATOM     14  C   UNL     1      20.342 -11.174   1.830 -0.75 -0.00    +0.000 C 
DOCKED: ATOM     15  N   UNL     1      20.405 -10.552   3.121 -0.67 -0.00    +0.000 N 
DOCKED: ATOM     16  O   UNL     1      20.119 -11.269   4.233 -1.05 -0.00    +0.000 OA
DOCKED: ATOM     17  H   UNL     1      20.656  -9.604   3.197 -0.59 -0.00    +0.000 HD
DOCKED: ENDBRANCH  11  14
DOCKED: ENDBRANCH   5  12
DOCKED: ENDBRANCH   4   8
DOCKED: ENDBRANCH   1   4
DOCKED: BRANCH   1  18
DOCKED: ATOM     18  C   UNL     1      21.198  -6.167  -6.691 -0.07 -0.00    +0.000 C 
DOCKED: BRANCH  18  19
DOCKED: ATOM     19  C   UNL     1      19.698  -6.361  -6.968 -0.05 -0.00    +0.000 C 
DOCKED: BRANCH  19  20
DOCKED: ATOM     20  C   UNL     1      19.357  -7.823  -7.006 -0.06 -0.00    +0.000 A 
DOCKED: ATOM     21  C   UNL     1      19.460  -8.689  -8.096 -0.08 -0.00    +0.000 A 
DOCKED: ATOM     22  N   UNL     1      18.997  -9.920  -7.774 -0.19 -0.00    +0.000 N 
DOCKED: ATOM     23  C   UNL     1      18.584  -9.835  -6.498 -0.19 -0.00    +0.000 A 
DOCKED: ATOM     24  C   UNL     1      18.780  -8.572  -5.998 -0.12 -0.00    +0.000 A 
DOCKED: ATOM     25  C   UNL     1      18.407  -8.232  -4.697 -0.16 -0.00    +0.000 A 
DOCKED: ATOM     26  C   UNL     1      17.824  -9.232  -3.898 -0.18 -0.00    +0.000 A 
DOCKED: ATOM     27  C   UNL     1      17.627 -10.534  -4.411 -0.20 -0.00    +0.000 A 
DOCKED: ATOM     28  C   UNL     1      18.008 -10.846  -5.729 -0.31 -0.00    +0.000 A 
DOCKED: ATOM     29  C   UNL     1      20.012  -8.338  -9.441 -0.06 -0.00    +0.000 C 
DOCKED: ATOM     30  H   UNL     1      18.969 -10.714  -8.355 -0.02 -0.00    +0.000 HD
DOCKED: ENDBRANCH  19  20
DOCKED: ENDBRANCH  18  19
DOCKED: ENDBRANCH   1  18
DOCKED: TORSDOF 7
DOCKED: TER
DOCKED: ENDMDL
________________________________________________________________________________


	BEGINNING GENETIC ALGORITHM DOCKING 100 of 100
Run: 100 Seed: 8889661 1390703622 [ Run 100 of 100 GA/GALS ]
Beginning LAMARCKIAN GENETIC ALGORITHM (LGA), with a maximum of 2500000 energy evaluations.

Final-Value: -12.990


	FINAL GENETIC ALGORITHM DOCKED STATE
	_______________________________________________


Detailed state:  trans 14.997 -10.888 2.927 quatxyzw -0.132237 -0.748862 0.563221 -0.323266 center 0.576 -0.005 0.140 ntor 7 -15.0187 133.5286 -133.6310 -43.0974 11.7136 -123.7849 8.7476
State:	 14.997 -10.888   2.927  -0.140 -0.791  0.595 -142.279    -15.02  133.53 -133.63  -43.10   11.71 -123.78    8.75

DOCKED: MODEL      100
DOCKED: USER    Run = 100
DOCKED: USER    DPF = ligand_dock.biased.dpf
DOCKED: USER  
DOCKED: USER    Estimated Free Energy of Binding    =   -9.99 kcal/mol  [=(1)+(2)+(3)-(4)]
DOCKED: USER    Estimated Inhibition Constant, Ki   =   47.83 nM (nanomolar)  [Temperature = 298.15 K]
DOCKED: USER    
DOCKED: USER    (1) Final Intermolecular Energy     =  -12.07 kcal/mol
DOCKED: USER        vdW + Hbond + desolv Energy     =  -12.07 kcal/mol
DOCKED: USER        Electrostatic Energy            =   +0.00 kcal/mol
DOCKED: USER    (2) Final Total Internal Energy     =   -0.92 kcal/mol
DOCKED: USER    (3) Torsional Free Energy           =   +2.09 kcal/mol
DOCKED: USER    (4) Unbound System's Energy  [=(2)] =   -0.92 kcal/mol
DOCKED: USER    
DOCKED: USER    
DOCKED: USER    NEWDPF move ligand.pdbqt
DOCKED: USER    NEWDPF about 0.576000 -0.005000 0.140000
DOCKED: USER    NEWDPF tran0 14.997475 -10.887765 2.926905
DOCKED: USER    NEWDPF quaternion0 -0.132237 -0.748862 0.563221 -0.323266
DOCKED: USER    NEWDPF axisangle0 -0.139740 -0.791351 0.595177 -142.278934
DOCKED: USER    NEWDPF quat0 -0.139740 -0.791351 0.595177 -142.278934
DOCKED: USER    NEWDPF dihe0 -15.02 133.53 -133.63 -43.10 11.71 -123.78 8.75 
DOCKED: USER  keepresnum = 1 
DOCKED: USER  
DOCKED: REMARK  Name = 
DOCKED: REMARK  8 active torsions:
DOCKED: REMARK  status: ('A' for Active; 'I' for Inactive)
DOCKED: REMARK    1  A    between atoms: C_2  and  C_3
DOCKED: REMARK    2  A    between atoms: C_4  and  C_5
DOCKED: REMARK    3  A    between atoms: C_8  and  C_9
DOCKED: REMARK    4  A    between atoms: C_9  and  N_10
DOCKED: REMARK    5  A    between atoms: N_10  and  C_11
DOCKED: REMARK    6  A    between atoms: C_11  and  C_12
DOCKED: REMARK    7  A    between atoms: C_12  and  C_13
DOCKED: REMARK    8  A    between atoms: C_14  and  C_22
DOCKED: REMARK                            x       y       z     vdW  Elec       q    Type
DOCKED: REMARK                         _______ _______ _______ _____ _____    ______ ____
DOCKED: USER                              x       y       z     vdW  Elec       q    Type
DOCKED: USER                           _______ _______ _______ _____ _____    ______ ____
DOCKED: ROOT
DOCKED: ATOM      1  N   UNL     1      15.320 -11.478   2.529 -0.47 +0.00    +0.000 N 
DOCKED: ATOM      2  H   UNL     1      14.484 -11.415   1.947 -0.01 +0.00    +0.000 HD
DOCKED: ATOM      3  H   UNL     1      15.177 -12.107   3.320 -0.07 +0.00    +0.000 HD
DOCKED: ENDROOT
DOCKED: BRANCH   1   4
DOCKED: ATOM      4  C   UNL     1      15.623 -10.146   3.066 -0.45 +0.00    +0.000 C 
DOCKED: BRANCH   4   8
DOCKED: ATOM      5  C   UNL     1      12.119  -8.677   5.133 -0.29 +0.00    +0.000 A 
DOCKED: ATOM      6  C   UNL     1      12.168  -8.688   3.724 -0.18 +0.00    +0.000 A 
DOCKED: ATOM      7  C   UNL     1      13.307  -9.152   3.060 -0.22 +0.00    +0.000 A 
DOCKED: ATOM      8  C   UNL     1      14.416  -9.610   3.785 -0.35 +0.00    +0.000 A 
DOCKED: ATOM      9  C   UNL     1      14.358  -9.632   5.186 -0.36 +0.00    +0.000 A 
DOCKED: ATOM     10  C   UNL     1      13.220  -9.170   5.852 -0.42 +0.00    +0.000 A 
DOCKED: BRANCH   5  12
DOCKED: ATOM     11  C   UNL     1      10.135  -9.017   6.603 -0.40 +0.00    +0.000 C 
DOCKED: ATOM     12  C   UNL     1      10.932  -8.206   5.889 -0.25 +0.00    +0.000 C 
DOCKED: BRANCH  11  14
DOCKED: ATOM     13  O   UNL     1       8.289  -9.381   8.018 -0.65 +0.00    +0.000 OA
DOCKED: ATOM     14  C   UNL     1       8.954  -8.543   7.352 -0.51 +0.00    +0.000 C 
DOCKED: ATOM     15  N   UNL     1       8.525  -7.175   7.325 -0.41 +0.00    +0.000 N 
DOCKED: ATOM     16  O   UNL     1       7.500  -6.770   8.110 -1.00 +0.00    +0.000 OA
DOCKED: ATOM     17  H   UNL     1       8.978  -6.531   6.734 -0.01 +0.00    +0.000 HD
DOCKED: ENDBRANCH  11  14
DOCKED: ENDBRANCH   5  12
DOCKED: ENDBRANCH   4   8
DOCKED: ENDBRANCH   1   4
DOCKED: BRANCH   1  18
DOCKED: ATOM     18  C   UNL     1      16.421 -12.018   1.718 -0.41 +0.00    +0.000 C 
DOCKED: BRANCH  18  19
DOCKED: ATOM     19  C   UNL     1      16.904 -11.028   0.646 -0.40 +0.00    +0.000 C 
DOCKED: BRANCH  19  20
DOCKED: ATOM     20  C   UNL     1      18.403 -10.932   0.659 -0.43 -0.00    +0.000 A 
DOCKED: ATOM     21  C   UNL     1      19.238 -10.850   1.775 -0.55 -0.00    +0.000 A 
DOCKED: ATOM     22  N   UNL     1      20.530 -10.708   1.396 -0.63 -0.00    +0.000 N 
DOCKED: ATOM     23  C   UNL     1      20.518 -10.678   0.052 -0.59 -0.00    +0.000 A 
DOCKED: ATOM     24  C   UNL     1      19.240 -10.805  -0.433 -0.44 -0.00    +0.000 A 
DOCKED: ATOM     25  C   UNL     1      18.971 -10.779  -1.802 -0.37 -0.00    +0.000 A 
DOCKED: ATOM     26  C   UNL     1      20.056 -10.627  -2.683 -0.42 -0.00    +0.000 A 
DOCKED: ATOM     27  C   UNL     1      21.372 -10.502  -2.183 -0.50 -0.00    +0.000 A 
DOCKED: ATOM     28  C   UNL     1      21.613 -10.525  -0.798 -0.56 -0.00    +0.000 A 
DOCKED: ATOM     29  C   UNL     1      18.796 -10.919   3.202 -0.58 -0.00    +0.000 C 
DOCKED: ATOM     30  H   UNL     1      21.317 -10.640   1.984 -0.14 -0.00    +0.000 HD
DOCKED: ENDBRANCH  19  20
DOCKED: ENDBRANCH  18  19
DOCKED: ENDBRANCH   1  18
DOCKED: TORSDOF 7
DOCKED: TER
DOCKED: ENDMDL
________________________________________________________________________________

DPF>                           # do this many hybrid GA-LS runs

DPF> analysis                             # perform a ranked cluster analysis


		CLUSTER ANALYSIS OF CONFORMATIONS
		_________________________________

Number of conformations = 100

RMSD cluster analysis will be performed using the ligand atoms only (30 / 30 total atoms).

Outputting structurally similar clusters, ranked in order of increasing energy.


________________________________________________________________________________

Number of distinct conformational clusters found = 25,  out of 100 runs,
Using an rmsd-tolerance of 2.0 A


	CLUSTERING HISTOGRAM
	____________________

________________________________________________________________________________
     |           |     |           |     |                                    
Clus | Lowest    | Run | Mean      | Num | Histogram                          
-ter | Binding   |     | Binding   | in  |                                    
Rank | Energy    |     | Energy    | Clus|    5    10   15   20   25   30   35
_____|___________|_____|___________|_____|____:____|____:____|____:____|____:___
   1 |    -11.84 |  87 |    -10.84 |  44 |############################################
   2 |    -11.24 |  55 |    -10.58 |   6 |######
   3 |    -10.78 |  79 |    -10.55 |   2 |##
   4 |    -10.65 |  11 |     -9.79 |   8 |########
   5 |    -10.64 |  69 |    -10.11 |   2 |##
   6 |    -10.27 |  45 |    -10.27 |   1 |#
   7 |    -10.21 |  34 |    -10.02 |   4 |####
   8 |    -10.21 |   9 |     -9.58 |   9 |#########
   9 |    -10.06 |  98 |     -9.56 |   2 |##
  10 |     -9.88 |  18 |     -9.51 |   3 |###
  11 |     -9.87 |   5 |     -9.87 |   1 |#
  12 |     -9.77 |  10 |     -9.77 |   1 |#
  13 |     -9.64 |  21 |     -9.64 |   1 |#
  14 |     -9.61 |  82 |     -9.12 |   2 |##
  15 |     -9.54 |  49 |     -9.54 |   1 |#
  16 |     -9.51 |  72 |     -9.51 |   1 |#
  17 |     -9.43 |  88 |     -9.28 |   2 |##
  18 |     -9.29 |  63 |     -9.29 |   1 |#
  19 |     -9.28 |  15 |     -9.25 |   2 |##
  20 |     -9.26 |  81 |     -9.26 |   1 |#
  21 |     -9.23 |  16 |     -8.86 |   2 |##
  22 |     -8.88 |   4 |     -8.88 |   1 |#
  23 |     -8.67 |  96 |     -8.67 |   1 |#
  24 |     -8.59 |  30 |     -8.59 |   1 |#
  25 |     -8.58 |  74 |     -8.58 |   1 |#
_____|___________|_____|___________|_____|______________________________________


Number of multi-member conformational clusters found = 13, out of 100 runs.

	RMSD TABLE
	__________

_____________________________________________________________________
     |      |      |           |         |                 |
Rank | Sub- | Run  | Binding   | Cluster | Reference       | Grep
     | Rank |      | Energy    | RMSD    | RMSD            | Pattern
_____|______|______|___________|_________|_________________|___________
   1      1     87      -11.84      0.00     20.27           RANKING
   1      2     41      -11.66      0.62     20.04           RANKING
   1      3     14      -11.60      0.79     20.57           RANKING
   1      4     80      -11.59      1.59     20.24           RANKING
   1      5     12      -11.53      1.25     20.24           RANKING
   1      6     31      -11.51      0.68     20.23           RANKING
   1      7     23      -11.47      1.07     20.36           RANKING
   1      8     65      -11.43      1.05     20.23           RANKING
   1      9     95      -11.40      1.66     20.43           RANKING
   1     10     36      -11.33      0.82     20.28           RANKING
   1     11     26      -11.32      1.03     20.01           RANKING
   1     12     90      -11.28      0.89     20.19           RANKING
   1     13     64      -11.21      1.38     20.62           RANKING
   1     14     84      -11.19      1.29     20.48           RANKING
   1     15     24      -11.18      0.80     20.04           RANKING
   1     16     43      -11.18      1.28     20.63           RANKING
   1     17     44      -11.13      0.96     20.26           RANKING
   1     18     47      -11.10      1.47     20.24           RANKING
   1     19     93      -11.07      1.85     20.26           RANKING
   1     20     86      -11.04      1.20     20.60           RANKING
   1     21      7      -10.94      1.42     20.93           RANKING
   1     22     54      -10.84      1.71     19.95           RANKING
   1     23     57      -10.79      1.94     19.22           RANKING
   1     24      3      -10.74      0.86     20.36           RANKING
   1     25     75      -10.70      1.44     20.36           RANKING
   1     26     92      -10.64      1.55     18.90           RANKING
   1     27     50      -10.63      1.92     19.98           RANKING
   1     28     70      -10.62      1.50     20.73           RANKING
   1     29     71      -10.57      1.44     20.41           RANKING
   1     30     33      -10.55      1.31     20.39           RANKING
   1     31     83      -10.55      1.57     20.18           RANKING
   1     32     48      -10.52      1.90     19.20           RANKING
   1     33     60      -10.47      1.44     20.34           RANKING
   1     34     38      -10.46      1.62     19.38           RANKING
   1     35     85      -10.40      1.71     20.76           RANKING
   1     36      8      -10.33      1.92     19.60           RANKING
   1     37     73      -10.21      1.60     19.39           RANKING
   1     38     42      -10.21      1.78     20.13           RANKING
   1     39     94      -10.08      1.93     18.19           RANKING
   1     40     59      -10.04      1.39     19.85           RANKING
   1     41      6       -9.99      1.73     20.60           RANKING
   1     42     76       -9.90      1.95     19.74           RANKING
   1     43     25       -9.88      1.46     19.78           RANKING
   1     44     37       -9.78      1.81     19.70           RANKING
   2      1     55      -11.24      0.00     14.65           RANKING
   2      2     67      -11.15      1.08     14.68           RANKING
   2      3     35      -11.07      0.55     14.64           RANKING
   2      4     32      -10.18      1.02     14.37           RANKING
   2      5     56       -9.92      1.21     14.72           RANKING
   2      6     19       -9.92      1.57     13.79           RANKING
   3      1     79      -10.78      0.00     15.98           RANKING
   3      2     77      -10.32      1.30     16.39           RANKING
   4      1     11      -10.65      0.00     16.56           RANKING
   4      2     78      -10.26      1.36     16.10           RANKING
   4      3     58      -10.06      1.35     16.42           RANKING
   4      4     17      -10.02      1.61     15.81           RANKING
   4      5     89       -9.59      1.70     16.25           RANKING
   4      6     52       -9.40      1.68     16.98           RANKING
   4      7     66       -9.24      1.60     16.40           RANKING
   4      8     62       -9.08      1.79     16.26           RANKING
   5      1     69      -10.64      0.00     20.46           RANKING
   5      2     27       -9.59      1.28     20.65           RANKING
   6      1     45      -10.27      0.00     20.04           RANKING
   7      1     34      -10.21      0.00     14.53           RANKING
   7      2     13      -10.15      1.10     14.16           RANKING
   7      3    100       -9.99      0.88     14.43           RANKING
   7      4     29       -9.72      1.20     14.50           RANKING
   8      1      9      -10.21      0.00     17.50           RANKING
   8      2     53      -10.21      0.96     18.01           RANKING
   8      3     40      -10.10      0.79     17.78           RANKING
   8      4      2       -9.83      0.79     17.48           RANKING
   8      5     61       -9.81      1.97     18.18           RANKING
   8      6     97       -9.64      0.83     17.34           RANKING
   8      7      1       -9.03      1.96     17.10           RANKING
   8      8     22       -8.87      1.85     16.99           RANKING
   8      9     99       -8.54      1.85     16.87           RANKING
   9      1     98      -10.06      0.00     12.28           RANKING
   9      2     68       -9.06      1.94     12.22           RANKING
  10      1     18       -9.88      0.00     15.67           RANKING
  10      2     51       -9.45      1.95     15.61           RANKING
  10      3     46       -9.20      1.65     15.93           RANKING
  11      1      5       -9.87      0.00     18.24           RANKING
  12      1     10       -9.77      0.00     12.22           RANKING
  13      1     21       -9.64      0.00     11.97           RANKING
  14      1     82       -9.61      0.00     13.40           RANKING
  14      2     28       -8.64      1.18     13.69           RANKING
  15      1     49       -9.54      0.00     19.55           RANKING
  16      1     72       -9.51      0.00     12.30           RANKING
  17      1     88       -9.43      0.00     16.10           RANKING
  17      2     20       -9.13      0.65     16.05           RANKING
  18      1     63       -9.29      0.00     14.92           RANKING
  19      1     15       -9.28      0.00     15.46           RANKING
  19      2     39       -9.22      0.75     15.67           RANKING
  20      1     81       -9.26      0.00     15.67           RANKING
  21      1     16       -9.23      0.00     16.01           RANKING
  21      2     91       -8.50      1.84     16.92           RANKING
  22      1      4       -8.88      0.00     16.41           RANKING
  23      1     96       -8.67      0.00     17.04           RANKING
  24      1     30       -8.59      0.00     14.35           RANKING
  25      1     74       -8.58      0.00     15.76           RANKING
_______________________________________________________________________



	INFORMATION ENTROPY ANALYSIS FOR THIS CLUSTERING
	________________________________________________


Information entropy for this clustering = 0.50  (rmstol = 2.00 Angstrom)

_______________________________________________________________________


	STATISTICAL MECHANICAL ANALYSIS
	_______________________________


Partition function, Q =   101.73            at Temperature, T = 298.15 K
Free energy,        A ~ -2738.67 kcal/mol   at Temperature, T = 298.15 K
Internal energy,    U =   -10.19 kcal/mol   at Temperature, T = 298.15 K
Entropy,            S =     9.15 kcal/mol/K at Temperature, T = 298.15 K

_______________________________________________________________________


	LOWEST ENERGY DOCKED CONFORMATION from EACH CLUSTER
	___________________________________________________



Keeping original residue number (specified in the input PDBQ file) for outputting.

MODEL       87
USER    Run = 87
USER    Cluster Rank = 1
USER    Number of conformations in this cluster = 44
USER  
USER    RMSD from reference structure       = 20.267 A
USER  
USER    Estimated Free Energy of Binding    =  -11.84 kcal/mol  [=(1)+(2)+(3)-(4)]
USER    Estimated Inhibition Constant, Ki   =    2.09 nM (nanomolar)  [Temperature = 298.15 K]
USER    
USER    (1) Final Intermolecular Energy     =  -13.93 kcal/mol
USER        vdW + Hbond + desolv Energy     =  -13.93 kcal/mol
USER        Electrostatic Energy            =   +0.00 kcal/mol
USER    (2) Final Total Internal Energy     =   -1.04 kcal/mol
USER    (3) Torsional Free Energy           =   +2.09 kcal/mol
USER    (4) Unbound System's Energy  [=(2)] =   -1.04 kcal/mol
USER    
USER    
USER  
USER    DPF = ligand_dock.biased.dpf
USER    NEWDPF move	ligand.pdbqt
USER    NEWDPF about	0.576000 -0.005000 0.140000
USER    NEWDPF tran0	20.328656 -10.581429 -6.794362
USER    NEWDPF axisangle0	0.122652 0.905479 -0.406281 -166.015806
USER    NEWDPF quaternion0	0.121740 0.898745 -0.403260 -0.121732
USER    NEWDPF dihe0	26.79 10.11 -26.55 53.21 2.58 -169.07 127.40 
USER  
USER                              x       y       z    vdW   Elec        q     RMS 
ATOM      1  N   UNL     1      21.071 -10.820  -6.851 -0.31 -0.00    +0.000    20.267
ATOM      2  H   UNL     1      20.918 -10.743  -7.856 -0.05 -0.00    +0.000    20.267
ATOM      3  H   UNL     1      20.815 -11.745  -6.504 -0.42 -0.00    +0.000    20.267
ATOM      4  C   UNL     1      20.223  -9.835  -6.168 -0.26 -0.00    +0.000    20.267
ATOM      5  C   UNL     1      20.546 -10.483  -1.903 -0.49 -0.00    +0.000    20.267
ATOM      6  C   UNL     1      19.635 -11.232  -2.675 -0.26 -0.00    +0.000    20.267
ATOM      7  C   UNL     1      19.525 -11.012  -4.051 -0.40 -0.00    +0.000    20.267
ATOM      8  C   UNL     1      20.316 -10.041  -4.681 -0.33 -0.00    +0.000    20.267
ATOM      9  C   UNL     1      21.247  -9.317  -3.922 -0.37 -0.00    +0.000    20.267
ATOM     10  C   UNL     1      21.360  -9.536  -2.548 -0.47 -0.00    +0.000    20.267
ATOM     11  C   UNL     1      19.864 -11.400   0.312 -0.62 -0.00    +0.000    20.267
ATOM     12  C   UNL     1      20.712 -10.684  -0.442 -0.64 -0.00    +0.000    20.267
ATOM     13  O   UNL     1      19.847 -12.745   2.244 -1.56 -0.00    +0.000    20.267
ATOM     14  C   UNL     1      20.034 -11.595   1.766 -0.76 -0.00    +0.000    20.267
ATOM     15  N   UNL     1      20.377 -10.519   2.649 -0.64 -0.00    +0.000    20.267
ATOM     16  O   UNL     1      20.624 -10.768   3.956 -1.09 -0.00    +0.000    20.267
ATOM     17  H   UNL     1      20.433  -9.599   2.304 -0.51 -0.00    +0.000    20.267
ATOM     18  C   UNL     1      22.500 -10.615  -6.573 -0.40 -0.00    +0.000    20.267
ATOM     19  C   UNL     1      23.201  -9.793  -7.667 -0.26 -0.00    +0.000    20.267
ATOM     20  C   UNL     1      24.469 -10.471  -8.101 -0.30 -0.00    +0.000    20.267
ATOM     21  C   UNL     1      24.595 -11.712  -8.727 -0.38 -0.00    +0.000    20.267
ATOM     22  N   UNL     1      25.899 -12.028  -8.906 -0.40 -0.00    +0.000    20.267
ATOM     23  C   UNL     1      26.600 -11.009  -8.379 -0.33 -0.00    +0.000    20.267
ATOM     24  C   UNL     1      25.764 -10.045  -7.873 -0.33 -0.00    +0.000    20.267
ATOM     25  C   UNL     1      26.260  -8.897  -7.252 -0.31 -0.00    +0.000    20.267
ATOM     26  C   UNL     1      27.655  -8.748  -7.165 -0.36 -0.00    +0.000    20.267
ATOM     27  C   UNL     1      28.515  -9.738  -7.691 -0.44 -0.00    +0.000    20.267
ATOM     28  C   UNL     1      27.987 -10.888  -8.306 -0.31 -0.00    +0.000    20.267
ATOM     29  C   UNL     1      23.464 -12.588  -9.164 -0.42 -0.00    +0.000    20.267
ATOM     30  H   UNL     1      26.260 -12.839  -9.333 -0.54 -0.00    +0.000    20.267
TER
ENDMDL
MODEL       55
USER    Run = 55
USER    Cluster Rank = 2
USER    Number of conformations in this cluster = 6
USER  
USER    RMSD from reference structure       = 14.652 A
USER  
USER    Estimated Free Energy of Binding    =  -11.24 kcal/mol  [=(1)+(2)+(3)-(4)]
USER    Estimated Inhibition Constant, Ki   =    5.82 nM (nanomolar)  [Temperature = 298.15 K]
USER    
USER    (1) Final Intermolecular Energy     =  -13.32 kcal/mol
USER        vdW + Hbond + desolv Energy     =  -13.32 kcal/mol
USER        Electrostatic Energy            =   +0.00 kcal/mol
USER    (2) Final Total Internal Energy     =   -1.35 kcal/mol
USER    (3) Torsional Free Energy           =   +2.09 kcal/mol
USER    (4) Unbound System's Energy  [=(2)] =   -1.35 kcal/mol
USER    
USER    
USER  
USER    DPF = ligand_dock.biased.dpf
USER    NEWDPF move	ligand.pdbqt
USER    NEWDPF about	0.576000 -0.005000 0.140000
USER    NEWDPF tran0	15.058716 -12.411684 -0.278115
USER    NEWDPF axisangle0	0.196167 0.876039 -0.440539 -129.853090
USER    NEWDPF quaternion0	0.177681 0.793485 -0.399025 -0.423780
USER    NEWDPF dihe0	139.95 19.10 -1.14 -51.55 179.88 123.55 -175.38 
USER  
USER                              x       y       z    vdW   Elec        q     RMS 
ATOM      1  N   UNL     1      15.706 -12.537   0.142 -0.49 +0.00    +0.000    14.652
ATOM      2  H   UNL     1      16.171 -12.579  -0.764 -0.01 +0.00    +0.000    14.652
ATOM      3  H   UNL     1      15.360 -13.453   0.427 -0.04 +0.00    +0.000    14.652
ATOM      4  C   UNL     1      14.551 -11.636   0.039 -0.42 +0.00    +0.000    14.652
ATOM      5  C   UNL     1      14.628  -8.708   3.223 -0.29 +0.00    +0.000    14.652
ATOM      6  C   UNL     1      15.212  -8.422   1.972 -0.24 +0.00    +0.000    14.652
ATOM      7  C   UNL     1      15.195  -9.375   0.949 -0.25 +0.00    +0.000    14.652
ATOM      8  C   UNL     1      14.602 -10.629   1.155 -0.27 +0.00    +0.000    14.652
ATOM      9  C   UNL     1      13.991 -10.904   2.387 -0.36 +0.00    +0.000    14.652
ATOM     10  C   UNL     1      14.005  -9.953   3.410 -0.31 +0.00    +0.000    14.652
ATOM     11  C   UNL     1      15.195  -6.525   4.283 -0.41 +0.00    +0.000    14.652
ATOM     12  C   UNL     1      14.607  -7.730   4.338 -0.39 +0.00    +0.000    14.652
ATOM     13  O   UNL     1      14.247  -5.642   6.249 -1.08 +0.00    +0.000    14.652
ATOM     14  C   UNL     1      15.172  -5.556   5.398 -0.43 +0.00    +0.000    14.652
ATOM     15  N   UNL     1      16.145  -4.512   5.527 -0.49 -0.00    +0.000    14.652
ATOM     16  O   UNL     1      16.143  -3.715   6.621 -0.69 +0.00    +0.000    14.652
ATOM     17  H   UNL     1      16.815  -4.375   4.819 -0.46 -0.00    +0.000    14.652
ATOM     18  C   UNL     1      16.677 -12.089   1.151 -0.47 +0.00    +0.000    14.652
ATOM     19  C   UNL     1      18.047 -12.767   0.992 -0.35 +0.00    +0.000    14.652
ATOM     20  C   UNL     1      19.129 -11.735   0.849 -0.55 -0.00    +0.000    14.652
ATOM     21  C   UNL     1      19.864 -11.130   1.869 -0.64 -0.00    +0.000    14.652
ATOM     22  N   UNL     1      20.705 -10.196   1.364 -0.54 -0.00    +0.000    14.652
ATOM     23  C   UNL     1      20.494 -10.191   0.037 -0.58 -0.00    +0.000    14.652
ATOM     24  C   UNL     1      19.535 -11.109  -0.315 -0.48 -0.00    +0.000    14.652
ATOM     25  C   UNL     1      19.126 -11.271  -1.639 -0.34 -0.00    +0.000    14.652
ATOM     26  C   UNL     1      19.734 -10.465  -2.618 -0.40 -0.00    +0.000    14.652
ATOM     27  C   UNL     1      20.724  -9.524  -2.256 -0.47 -0.00    +0.000    14.652
ATOM     28  C   UNL     1      21.112  -9.378  -0.913 -0.57 -0.00    +0.000    14.652
ATOM     29  C   UNL     1      19.768 -11.456   3.325 -0.71 -0.00    +0.000    14.652
ATOM     30  H   UNL     1      21.341  -9.637   1.866 -0.57 -0.00    +0.000    14.652
TER
ENDMDL
MODEL       79
USER    Run = 79
USER    Cluster Rank = 3
USER    Number of conformations in this cluster = 2
USER  
USER    RMSD from reference structure       = 15.981 A
USER  
USER    Estimated Free Energy of Binding    =  -10.78 kcal/mol  [=(1)+(2)+(3)-(4)]
USER    Estimated Inhibition Constant, Ki   =   12.56 nM (nanomolar)  [Temperature = 298.15 K]
USER    
USER    (1) Final Intermolecular Energy     =  -12.87 kcal/mol
USER        vdW + Hbond + desolv Energy     =  -12.87 kcal/mol
USER        Electrostatic Energy            =   +0.00 kcal/mol
USER    (2) Final Total Internal Energy     =   -1.11 kcal/mol
USER    (3) Torsional Free Energy           =   +2.09 kcal/mol
USER    (4) Unbound System's Energy  [=(2)] =   -1.11 kcal/mol
USER    
USER    
USER  
USER    DPF = ligand_dock.biased.dpf
USER    NEWDPF move	ligand.pdbqt
USER    NEWDPF about	0.576000 -0.005000 0.140000
USER    NEWDPF tran0	21.061321 -11.062478 1.619150
USER    NEWDPF axisangle0	-0.798223 0.008951 -0.602296 -117.813088
USER    NEWDPF quaternion0	-0.683539 0.007665 -0.515762 -0.516436
USER    NEWDPF dihe0	-134.27 -144.54 135.29 26.75 22.57 -168.38 139.35 
USER  
USER                              x       y       z    vdW   Elec        q     RMS 
ATOM      1  N   UNL     1      21.011 -10.520   1.058 -0.62 -0.00    +0.000    15.981
ATOM      2  H   UNL     1      22.005 -10.704   0.925 -0.33 -0.00    +0.000    15.981
ATOM      3  H   UNL     1      20.856  -9.793   1.757 -0.51 -0.00    +0.000    15.981
ATOM      4  C   UNL     1      20.365 -11.747   1.540 -0.77 -0.00    +0.000    15.981
ATOM      5  C   UNL     1      16.095 -11.077   1.698 -0.37 +0.00    +0.000    15.981
ATOM      6  C   UNL     1      16.966 -10.347   2.532 -0.42 +0.00    +0.000    15.981
ATOM      7  C   UNL     1      18.345 -10.575   2.487 -0.50 -0.00    +0.000    15.981
ATOM      8  C   UNL     1      18.878 -11.534   1.614 -0.55 -0.00    +0.000    15.981
ATOM      9  C   UNL     1      18.018 -12.238   0.758 -0.49 -0.00    +0.000    15.981
ATOM     10  C   UNL     1      16.640 -12.011   0.801 -0.43 +0.00    +0.000    15.981
ATOM     11  C   UNL     1      13.755 -11.700   1.105 -0.45 +0.00    +0.000    15.981
ATOM     12  C   UNL     1      14.625 -10.867   1.696 -0.38 +0.00    +0.000    15.981
ATOM     13  O   UNL     1      11.839 -10.454   0.541 -0.26 +0.00    +0.000    15.981
ATOM     14  C   UNL     1      12.294 -11.485   1.104 -0.43 +0.00    +0.000    15.981
ATOM     15  N   UNL     1      11.385 -12.390   1.743 -0.44 +0.00    +0.000    15.981
ATOM     16  O   UNL     1      10.050 -12.206   1.626 -0.51 +0.00    +0.000    15.981
ATOM     17  H   UNL     1      11.733 -13.147   2.268 -0.65 +0.00    +0.000    15.981
ATOM     18  C   UNL     1      20.442 -10.051  -0.214 -0.62 -0.00    +0.000    15.981
ATOM     19  C   UNL     1      21.243 -10.536  -1.433 -0.62 -0.00    +0.000    15.981
ATOM     20  C   UNL     1      20.996  -9.641  -2.612 -0.48 -0.00    +0.000    15.981
ATOM     21  C   UNL     1      20.723 -10.025  -3.926 -0.40 -0.00    +0.000    15.981
ATOM     22  N   UNL     1      20.624  -8.941  -4.731 -0.25 -0.00    +0.000    15.981
ATOM     23  C   UNL     1      20.854  -7.876  -3.944 -0.29 -0.00    +0.000    15.981
ATOM     24  C   UNL     1      21.091  -8.262  -2.648 -0.41 -0.00    +0.000    15.981
ATOM     25  C   UNL     1      21.378  -7.333  -1.647 -0.34 -0.00    +0.000    15.981
ATOM     26  C   UNL     1      21.411  -5.973  -2.003 -0.43 -0.00    +0.000    15.981
ATOM     27  C   UNL     1      21.161  -5.576  -3.336 -0.27 -0.00    +0.000    15.981
ATOM     28  C   UNL     1      20.880  -6.535  -4.325 -0.21 -0.00    +0.000    15.981
ATOM     29  C   UNL     1      20.545 -11.431  -4.405 -0.45 -0.00    +0.000    15.981
ATOM     30  H   UNL     1      20.426  -8.934  -5.696 +0.01 -0.00    +0.000    15.981
TER
ENDMDL
MODEL       11
USER    Run = 11
USER    Cluster Rank = 4
USER    Number of conformations in this cluster = 8
USER  
USER    RMSD from reference structure       = 16.560 A
USER  
USER    Estimated Free Energy of Binding    =  -10.65 kcal/mol  [=(1)+(2)+(3)-(4)]
USER    Estimated Inhibition Constant, Ki   =   15.67 nM (nanomolar)  [Temperature = 298.15 K]
USER    
USER    (1) Final Intermolecular Energy     =  -12.74 kcal/mol
USER        vdW + Hbond + desolv Energy     =  -12.74 kcal/mol
USER        Electrostatic Energy            =   +0.00 kcal/mol
USER    (2) Final Total Internal Energy     =   -1.33 kcal/mol
USER    (3) Torsional Free Energy           =   +2.09 kcal/mol
USER    (4) Unbound System's Energy  [=(2)] =   -1.33 kcal/mol
USER    
USER    
USER  
USER    DPF = ligand_dock.biased.dpf
USER    NEWDPF move	ligand.pdbqt
USER    NEWDPF about	0.576000 -0.005000 0.140000
USER    NEWDPF tran0	20.287829 -10.491613 -6.387318
USER    NEWDPF axisangle0	0.977777 0.146155 0.150301 -126.474999
USER    NEWDPF quaternion0	0.873038 0.130499 0.134201 -0.450293
USER    NEWDPF dihe0	35.90 -116.99 4.84 9.60 171.29 -23.07 -91.50 
USER  
USER                              x       y       z    vdW   Elec        q     RMS 
ATOM      1  N   UNL     1      19.749 -11.037  -6.542 -0.32 -0.00    +0.000    16.560
ATOM      2  H   UNL     1      20.464 -11.694  -6.231 -0.35 -0.00    +0.000    16.560
ATOM      3  H   UNL     1      19.824 -10.848  -7.542 -0.03 -0.00    +0.000    16.560
ATOM      4  C   UNL     1      19.936  -9.765  -5.831 -0.25 -0.00    +0.000    16.560
ATOM      5  C   UNL     1      20.616 -10.472  -1.619 -0.51 -0.00    +0.000    16.560
ATOM      6  C   UNL     1      21.683 -10.539  -2.538 -0.35 -0.00    +0.000    16.560
ATOM      7  C   UNL     1      21.457 -10.321  -3.901 -0.44 -0.00    +0.000    16.560
ATOM      8  C   UNL     1      20.167 -10.038  -4.371 -0.34 -0.00    +0.000    16.560
ATOM      9  C   UNL     1      19.109  -9.938  -3.455 -0.30 -0.00    +0.000    16.560
ATOM     10  C   UNL     1      19.333 -10.153  -2.093 -0.31 -0.00    +0.000    16.560
ATOM     11  C   UNL     1      19.941 -11.369   0.607 -0.67 -0.00    +0.000    16.560
ATOM     12  C   UNL     1      20.801 -10.682  -0.161 -0.67 -0.00    +0.000    16.560
ATOM     13  O   UNL     1      20.080 -12.747   2.511 -1.53 -0.00    +0.000    16.560
ATOM     14  C   UNL     1      20.130 -11.573   2.057 -0.77 -0.00    +0.000    16.560
ATOM     15  N   UNL     1      20.339 -10.483   2.965 -0.64 -0.00    +0.000    16.560
ATOM     16  O   UNL     1      20.611 -10.728   4.267 -0.95 -0.00    +0.000    16.560
ATOM     17  H   UNL     1      20.285  -9.556   2.639 -0.54 -0.00    +0.000    16.560
ATOM     18  C   UNL     1      18.425 -11.626  -6.294 -0.30 -0.00    +0.000    16.560
ATOM     19  C   UNL     1      17.282 -10.621  -6.510 -0.29 -0.00    +0.000    16.560
ATOM     20  C   UNL     1      15.967 -11.232  -6.123 -0.26 -0.00    +0.000    16.560
ATOM     21  C   UNL     1      15.307 -11.120  -4.898 -0.22 -0.00    +0.000    16.560
ATOM     22  N   UNL     1      14.176 -11.865  -4.892 -0.29 -0.00    +0.000    16.560
ATOM     23  C   UNL     1      14.125 -12.464  -6.094 -0.28 -0.00    +0.000    16.560
ATOM     24  C   UNL     1      15.202 -12.109  -6.869 -0.30 -0.00    +0.000    16.560
ATOM     25  C   UNL     1      15.382 -12.624  -8.154 -0.35 +0.00    +0.000    16.560
ATOM     26  C   UNL     1      14.415 -13.520  -8.644 -0.36 +0.00    +0.000    16.560
ATOM     27  C   UNL     1      13.304 -13.880  -7.848 -0.25 +0.00    +0.000    16.560
ATOM     28  C   UNL     1      13.152 -13.351  -6.554 -0.33 -0.00    +0.000    16.560
ATOM     29  C   UNL     1      15.756 -10.288  -3.739 -0.25 -0.00    +0.000    16.560
ATOM     30  H   UNL     1      13.526 -11.950  -4.158 -0.28 -0.00    +0.000    16.560
TER
ENDMDL
MODEL       69
USER    Run = 69
USER    Cluster Rank = 5
USER    Number of conformations in this cluster = 2
USER  
USER    RMSD from reference structure       = 20.459 A
USER  
USER    Estimated Free Energy of Binding    =  -10.64 kcal/mol  [=(1)+(2)+(3)-(4)]
USER    Estimated Inhibition Constant, Ki   =   15.90 nM (nanomolar)  [Temperature = 298.15 K]
USER    
USER    (1) Final Intermolecular Energy     =  -12.73 kcal/mol
USER        vdW + Hbond + desolv Energy     =  -12.73 kcal/mol
USER        Electrostatic Energy            =   +0.00 kcal/mol
USER    (2) Final Total Internal Energy     =   -1.12 kcal/mol
USER    (3) Torsional Free Energy           =   +2.09 kcal/mol
USER    (4) Unbound System's Energy  [=(2)] =   -1.12 kcal/mol
USER    
USER    
USER  
USER    DPF = ligand_dock.biased.dpf
USER    NEWDPF move	ligand.pdbqt
USER    NEWDPF about	0.576000 -0.005000 0.140000
USER    NEWDPF tran0	19.763990 -10.697712 -8.263879
USER    NEWDPF axisangle0	-0.064888 -0.931995 0.356616 167.125755
USER    NEWDPF quaternion0	-0.064479 -0.926119 0.354367 0.112113
USER    NEWDPF dihe0	-145.65 154.47 -171.11 84.72 -172.23 147.70 138.17 
USER  
USER                              x       y       z    vdW   Elec        q     RMS 
ATOM      1  N   UNL     1      20.523 -10.842  -8.383 -0.24 -0.00    +0.000    20.459
ATOM      2  H   UNL     1      20.299 -10.688  -9.366 -0.02 -0.00    +0.000    20.459
ATOM      3  H   UNL     1      20.394 -11.819  -8.119 -0.28 -0.00    +0.000    20.459
ATOM      4  C   UNL     1      19.616 -10.032  -7.560 -0.24 -0.00    +0.000    20.459
ATOM      5  C   UNL     1      20.659 -10.376  -3.376 -0.45 -0.00    +0.000    20.459
ATOM      6  C   UNL     1      21.053  -9.247  -4.122 -0.35 -0.00    +0.000    20.459
ATOM      7  C   UNL     1      20.724  -9.145  -5.478 -0.22 -0.00    +0.000    20.459
ATOM      8  C   UNL     1      20.002 -10.165  -6.113 -0.26 -0.00    +0.000    20.459
ATOM      9  C   UNL     1      19.579 -11.274  -5.366 -0.42 -0.00    +0.000    20.459
ATOM     10  C   UNL     1      19.905 -11.378  -4.011 -0.41 -0.00    +0.000    20.459
ATOM     11  C   UNL     1      20.062 -10.887  -1.011 -0.52 -0.00    +0.000    20.459
ATOM     12  C   UNL     1      20.969 -10.531  -1.933 -0.57 -0.00    +0.000    20.459
ATOM     13  O   UNL     1      20.974 -10.095   1.010 -0.71 -0.00    +0.000    20.459
ATOM     14  C   UNL     1      20.377 -11.037   0.424 -0.67 -0.00    +0.000    20.459
ATOM     15  N   UNL     1      20.053 -12.223   1.161 -0.65 -0.00    +0.000    20.459
ATOM     16  O   UNL     1      20.267 -12.272   2.496 -1.98 -0.00    +0.000    20.459
ATOM     17  H   UNL     1      19.674 -13.003   0.694 -0.49 -0.00    +0.000    20.459
ATOM     18  C   UNL     1      21.936 -10.500  -8.162 -0.27 -0.00    +0.000    20.459
ATOM     19  C   UNL     1      22.748 -10.474  -9.467 -0.19 -0.00    +0.000    20.459
ATOM     20  C   UNL     1      23.518 -11.753  -9.629 -0.26 -0.00    +0.000    20.459
ATOM     21  C   UNL     1      24.732 -12.095  -9.030 -0.38 -0.00    +0.000    20.459
ATOM     22  N   UNL     1      25.157 -13.304  -9.467 -0.35 -0.00    +0.000    20.459
ATOM     23  C   UNL     1      24.236 -13.721 -10.352 -0.35 -0.00    +0.000    20.459
ATOM     24  C   UNL     1      23.225 -12.800 -10.483 -0.28 -0.00    +0.000    20.459
ATOM     25  C   UNL     1      22.162 -13.000 -11.365 -0.18 -0.00    +0.000    20.459
ATOM     26  C   UNL     1      22.148 -14.188 -12.118 -0.29 +0.00    +0.000    20.459
ATOM     27  C   UNL     1      23.185 -15.137 -11.978 -0.32 +0.00    +0.000    20.459
ATOM     28  C   UNL     1      24.248 -14.906 -11.087 -0.35 +0.00    +0.000    20.459
ATOM     29  C   UNL     1      25.475 -11.266  -8.031 -0.39 -0.00    +0.000    20.459
ATOM     30  H   UNL     1      25.975 -13.779  -9.192 -0.64 -0.00    +0.000    20.459
TER
ENDMDL
MODEL       45
USER    Run = 45
USER    Cluster Rank = 6
USER    Number of conformations in this cluster = 1
USER  
USER    RMSD from reference structure       = 20.038 A
USER  
USER    Estimated Free Energy of Binding    =  -10.27 kcal/mol  [=(1)+(2)+(3)-(4)]
USER    Estimated Inhibition Constant, Ki   =   29.48 nM (nanomolar)  [Temperature = 298.15 K]
USER    
USER    (1) Final Intermolecular Energy     =  -12.36 kcal/mol
USER        vdW + Hbond + desolv Energy     =  -12.36 kcal/mol
USER        Electrostatic Energy            =   +0.00 kcal/mol
USER    (2) Final Total Internal Energy     =   -1.21 kcal/mol
USER    (3) Torsional Free Energy           =   +2.09 kcal/mol
USER    (4) Unbound System's Energy  [=(2)] =   -1.21 kcal/mol
USER    
USER    
USER  
USER    DPF = ligand_dock.biased.dpf
USER    NEWDPF move	ligand.pdbqt
USER    NEWDPF about	0.576000 -0.005000 0.140000
USER    NEWDPF tran0	22.510524 -8.477295 -5.503060
USER    NEWDPF axisangle0	-0.627345 0.065546 -0.775978 -172.992081
USER    NEWDPF quaternion0	-0.626172 0.065423 -0.774527 -0.061118
USER    NEWDPF dihe0	0.98 165.64 163.96 -122.71 -176.14 63.67 -7.20 
USER  
USER                              x       y       z    vdW   Elec        q     RMS 
ATOM      1  N   UNL     1      22.959  -8.479  -6.143 -0.20 -0.00    +0.000    20.038
ATOM      2  H   UNL     1      23.429  -9.265  -5.695 -0.02 -0.00    +0.000    20.038
ATOM      3  H   UNL     1      23.377  -7.589  -5.870 -0.02 -0.00    +0.000    20.038
ATOM      4  C   UNL     1      21.554  -8.463  -5.717 -0.24 -0.00    +0.000    20.038
ATOM      5  C   UNL     1      21.230  -9.520  -1.535 -0.54 -0.00    +0.000    20.038
ATOM      6  C   UNL     1      21.246  -8.168  -1.934 -0.43 -0.00    +0.000    20.038
ATOM      7  C   UNL     1      21.362  -7.830  -3.285 -0.36 -0.00    +0.000    20.038
ATOM      8  C   UNL     1      21.469  -8.831  -4.262 -0.31 -0.00    +0.000    20.038
ATOM      9  C   UNL     1      21.420 -10.177  -3.872 -0.44 -0.00    +0.000    20.038
ATOM     10  C   UNL     1      21.302 -10.517  -2.522 -0.49 -0.00    +0.000    20.038
ATOM     11  C   UNL     1      20.398 -11.010   0.281 -0.66 -0.00    +0.000    20.038
ATOM     12  C   UNL     1      21.096  -9.935  -0.117 -0.69 -0.00    +0.000    20.038
ATOM     13  O   UNL     1      19.893 -12.593   1.949 -1.69 -0.00    +0.000    20.038
ATOM     14  C   UNL     1      20.266 -11.417   1.695 -0.77 -0.00    +0.000    20.038
ATOM     15  N   UNL     1      20.521 -10.516   2.780 -0.63 -0.00    +0.000    20.038
ATOM     16  O   UNL     1      20.489 -10.965   4.056 -1.07 -0.00    +0.000    20.038
ATOM     17  H   UNL     1      20.719  -9.569   2.596 -0.54 -0.00    +0.000    20.038
ATOM     18  C   UNL     1      23.100  -8.612  -7.601 -0.18 -0.00    +0.000    20.038
ATOM     19  C   UNL     1      24.168  -7.669  -8.178 -0.12 -0.00    +0.000    20.038
ATOM     20  C   UNL     1      25.469  -7.843  -7.450 -0.18 -0.00    +0.000    20.038
ATOM     21  C   UNL     1      26.040  -6.978  -6.514 -0.14 -0.00    +0.000    20.038
ATOM     22  N   UNL     1      27.253  -7.432  -6.120 -0.31 -0.00    +0.000    20.038
ATOM     23  C   UNL     1      27.465  -8.564  -6.813 -0.38 -0.00    +0.000    20.038
ATOM     24  C   UNL     1      26.404  -8.844  -7.639 -0.27 -0.00    +0.000    20.038
ATOM     25  C   UNL     1      26.403  -9.959  -8.478 -0.30 -0.00    +0.000    20.038
ATOM     26  C   UNL     1      27.526 -10.804  -8.450 -0.36 -0.00    +0.000    20.038
ATOM     27  C   UNL     1      28.615 -10.519  -7.596 -0.44 -0.00    +0.000    20.038
ATOM     28  C   UNL     1      28.592  -9.384  -6.766 -0.44 -0.00    +0.000    20.038
ATOM     29  C   UNL     1      25.415  -5.725  -5.990 -0.13 -0.00    +0.000    20.038
ATOM     30  H   UNL     1      27.857  -7.018  -5.461 -0.03 -0.00    +0.000    20.038
TER
ENDMDL
MODEL       34
USER    Run = 34
USER    Cluster Rank = 7
USER    Number of conformations in this cluster = 4
USER  
USER    RMSD from reference structure       = 14.531 A
USER  
USER    Estimated Free Energy of Binding    =  -10.21 kcal/mol  [=(1)+(2)+(3)-(4)]
USER    Estimated Inhibition Constant, Ki   =   32.54 nM (nanomolar)  [Temperature = 298.15 K]
USER    
USER    (1) Final Intermolecular Energy     =  -12.30 kcal/mol
USER        vdW + Hbond + desolv Energy     =  -12.30 kcal/mol
USER        Electrostatic Energy            =   +0.00 kcal/mol
USER    (2) Final Total Internal Energy     =   -0.83 kcal/mol
USER    (3) Torsional Free Energy           =   +2.09 kcal/mol
USER    (4) Unbound System's Energy  [=(2)] =   -0.83 kcal/mol
USER    
USER    
USER  
USER    DPF = ligand_dock.biased.dpf
USER    NEWDPF move	ligand.pdbqt
USER    NEWDPF about	0.576000 -0.005000 0.140000
USER    NEWDPF tran0	15.411465 -11.200737 3.633425
USER    NEWDPF axisangle0	-0.200204 0.934582 -0.294067 146.563605
USER    NEWDPF quaternion0	-0.191742 0.895078 -0.281638 0.287665
USER    NEWDPF dihe0	-115.32 139.30 -38.50 48.11 74.78 77.28 -54.27 
USER  
USER                              x       y       z    vdW   Elec        q     RMS 
ATOM      1  N   UNL     1      15.765 -11.167   2.937 -0.47 +0.00    +0.000    14.531
ATOM      2  H   UNL     1      14.820 -11.067   2.569 -0.01 +0.00    +0.000    14.531
ATOM      3  H   UNL     1      16.035 -12.149   3.012 -0.03 +0.00    +0.000    14.531
ATOM      4  C   UNL     1      15.811 -10.588   4.285 -0.46 +0.00    +0.000    14.531
ATOM      5  C   UNL     1      12.051  -8.616   5.113 -0.29 +0.00    +0.000    14.531
ATOM      6  C   UNL     1      12.374  -9.023   3.803 -0.19 +0.00    +0.000    14.531
ATOM      7  C   UNL     1      13.595  -9.649   3.537 -0.27 +0.00    +0.000    14.531
ATOM      8  C   UNL     1      14.516  -9.878   4.569 -0.38 +0.00    +0.000    14.531
ATOM      9  C   UNL     1      14.185  -9.505   5.880 -0.33 +0.00    +0.000    14.531
ATOM     10  C   UNL     1      12.965  -8.880   6.148 -0.31 +0.00    +0.000    14.531
ATOM     11  C   UNL     1       9.852  -8.493   6.278 -0.38 +0.00    +0.000    14.531
ATOM     12  C   UNL     1      10.765  -7.958   5.453 -0.29 +0.00    +0.000    14.531
ATOM     13  O   UNL     1       7.615  -7.935   5.799 -0.29 +0.00    +0.000    14.531
ATOM     14  C   UNL     1       8.573  -7.834   6.612 -0.39 +0.00    +0.000    14.531
ATOM     15  N   UNL     1       8.394  -7.067   7.809 -0.50 +0.00    +0.000    14.531
ATOM     16  O   UNL     1       7.174  -6.571   8.121 -1.11 +0.00    +0.000    14.531
ATOM     17  H   UNL     1       9.160  -6.900   8.404 -0.06 +0.00    +0.000    14.531
ATOM     18  C   UNL     1      16.704 -10.512   2.015 -0.44 +0.00    +0.000    14.531
ATOM     19  C   UNL     1      17.215 -11.463   0.919 -0.47 +0.00    +0.000    14.531
ATOM     20  C   UNL     1      18.695 -11.296   0.729 -0.48 -0.00    +0.000    14.531
ATOM     21  C   UNL     1      19.686 -11.337   1.711 -0.63 -0.00    +0.000    14.531
ATOM     22  N   UNL     1      20.902 -11.076   1.174 -0.65 -0.00    +0.000    14.531
ATOM     23  C   UNL     1      20.686 -10.849  -0.133 -0.58 -0.00    +0.000    14.531
ATOM     24  C   UNL     1      19.353 -10.967  -0.441 -0.47 -0.00    +0.000    14.531
ATOM     25  C   UNL     1      18.879 -10.753  -1.736 -0.36 -0.00    +0.000    14.531
ATOM     26  C   UNL     1      19.814 -10.418  -2.732 -0.41 -0.00    +0.000    14.531
ATOM     27  C   UNL     1      21.186 -10.303  -2.415 -0.50 -0.00    +0.000    14.531
ATOM     28  C   UNL     1      21.635 -10.518  -1.099 -0.51 -0.00    +0.000    14.531
ATOM     29  C   UNL     1      19.468 -11.638   3.159 -0.68 -0.00    +0.000    14.531
ATOM     30  H   UNL     1      21.766 -11.056   1.645 -0.35 -0.00    +0.000    14.531
TER
ENDMDL
MODEL        9
USER    Run = 9
USER    Cluster Rank = 8
USER    Number of conformations in this cluster = 9
USER  
USER    RMSD from reference structure       = 17.497 A
USER  
USER    Estimated Free Energy of Binding    =  -10.21 kcal/mol  [=(1)+(2)+(3)-(4)]
USER    Estimated Inhibition Constant, Ki   =   32.65 nM (nanomolar)  [Temperature = 298.15 K]
USER    
USER    (1) Final Intermolecular Energy     =  -12.30 kcal/mol
USER        vdW + Hbond + desolv Energy     =  -12.30 kcal/mol
USER        Electrostatic Energy            =   +0.00 kcal/mol
USER    (2) Final Total Internal Energy     =   -1.82 kcal/mol
USER    (3) Torsional Free Energy           =   +2.09 kcal/mol
USER    (4) Unbound System's Energy  [=(2)] =   -1.82 kcal/mol
USER    
USER    
USER  
USER    DPF = ligand_dock.biased.dpf
USER    NEWDPF move	ligand.pdbqt
USER    NEWDPF about	0.576000 -0.005000 0.140000
USER    NEWDPF tran0	22.341304 -7.800395 -5.246557
USER    NEWDPF axisangle0	0.755708 -0.170217 0.632401 -156.309271
USER    NEWDPF quaternion0	0.739616 -0.166592 0.618934 -0.205271
USER    NEWDPF dihe0	39.96 -48.38 153.35 -110.08 51.89 165.51 -37.14 
USER  
USER                              x       y       z    vdW   Elec        q     RMS 
ATOM      1  N   UNL     1      22.414  -8.066  -5.978 -0.21 -0.00    +0.000    17.497
ATOM      2  H   UNL     1      22.632  -8.956  -5.531 -0.02 -0.00    +0.000    17.497
ATOM      3  H   UNL     1      23.252  -7.501  -6.115 -0.02 -0.00    +0.000    17.497
ATOM      4  C   UNL     1      21.503  -7.311  -5.108 -0.22 -0.00    +0.000    17.497
ATOM      5  C   UNL     1      21.254  -9.313  -1.281 -0.54 -0.00    +0.000    17.497
ATOM      6  C   UNL     1      21.380 -10.056  -2.472 -0.49 -0.00    +0.000    17.497
ATOM      7  C   UNL     1      21.448  -9.406  -3.708 -0.38 -0.00    +0.000    17.497
ATOM      8  C   UNL     1      21.389  -8.007  -3.780 -0.32 -0.00    +0.000    17.497
ATOM      9  C   UNL     1      21.298  -7.263  -2.595 -0.40 -0.00    +0.000    17.497
ATOM     10  C   UNL     1      21.230  -7.910  -1.359 -0.27 -0.00    +0.000    17.497
ATOM     11  C   UNL     1      20.132 -10.650   0.498 -0.65 -0.00    +0.000    17.497
ATOM     12  C   UNL     1      21.189  -9.950   0.057 -0.68 -0.00    +0.000    17.497
ATOM     13  O   UNL     1      19.857 -12.519   1.902 -1.72 -0.00    +0.000    17.497
ATOM     14  C   UNL     1      20.073 -11.280   1.832 -0.74 -0.00    +0.000    17.497
ATOM     15  N   UNL     1      20.224 -10.528   3.043 -0.68 -0.00    +0.000    17.497
ATOM     16  O   UNL     1      20.266 -11.166   4.236 -1.06 -0.00    +0.000    17.497
ATOM     17  H   UNL     1      20.296  -9.548   3.007 -0.57 -0.00    +0.000    17.497
ATOM     18  C   UNL     1      21.830  -8.332  -7.301 -0.14 -0.00    +0.000    17.497
ATOM     19  C   UNL     1      21.748  -9.834  -7.618 -0.24 -0.00    +0.000    17.497
ATOM     20  C   UNL     1      20.789 -10.515  -6.685 -0.29 -0.00    +0.000    17.497
ATOM     21  C   UNL     1      21.080 -11.502  -5.742 -0.30 -0.00    +0.000    17.497
ATOM     22  N   UNL     1      19.950 -11.928  -5.130 -0.49 -0.00    +0.000    17.497
ATOM     23  C   UNL     1      18.944 -11.235  -5.692 -0.37 -0.00    +0.000    17.497
ATOM     24  C   UNL     1      19.415 -10.369  -6.648 -0.27 -0.00    +0.000    17.497
ATOM     25  C   UNL     1      18.555  -9.557  -7.388 -0.15 -0.00    +0.000    17.497
ATOM     26  C   UNL     1      17.177  -9.642  -7.120 -0.13 -0.00    +0.000    17.497
ATOM     27  C   UNL     1      16.694 -10.529  -6.132 -0.22 -0.00    +0.000    17.497
ATOM     28  C   UNL     1      17.584 -11.341  -5.406 -0.12 -0.00    +0.000    17.497
ATOM     29  C   UNL     1      22.443 -12.027  -5.420 -0.49 -0.00    +0.000    17.497
ATOM     30  H   UNL     1      19.879 -12.606  -4.420 -0.10 -0.00    +0.000    17.497
TER
ENDMDL
MODEL       98
USER    Run = 98
USER    Cluster Rank = 9
USER    Number of conformations in this cluster = 2
USER  
USER    RMSD from reference structure       = 12.275 A
USER  
USER    Estimated Free Energy of Binding    =  -10.06 kcal/mol  [=(1)+(2)+(3)-(4)]
USER    Estimated Inhibition Constant, Ki   =   42.11 nM (nanomolar)  [Temperature = 298.15 K]
USER    
USER    (1) Final Intermolecular Energy     =  -12.15 kcal/mol
USER        vdW + Hbond + desolv Energy     =  -12.15 kcal/mol
USER        Electrostatic Energy            =   +0.00 kcal/mol
USER    (2) Final Total Internal Energy     =   -0.96 kcal/mol
USER    (3) Torsional Free Energy           =   +2.09 kcal/mol
USER    (4) Unbound System's Energy  [=(2)] =   -0.96 kcal/mol
USER    
USER    
USER  
USER    DPF = ligand_dock.biased.dpf
USER    NEWDPF move	ligand.pdbqt
USER    NEWDPF about	0.576000 -0.005000 0.140000
USER    NEWDPF tran0	12.976878 -9.105131 4.579560
USER    NEWDPF axisangle0	0.105785 -0.386235 0.916314 55.802373
USER    NEWDPF quaternion0	0.049502 -0.180738 0.428788 0.883756
USER    NEWDPF dihe0	97.24 173.30 -42.47 -30.89 -119.31 161.95 -32.34 
USER  
USER                              x       y       z    vdW   Elec        q     RMS 
ATOM      1  N   UNL     1      12.775  -8.500   5.031 -0.33 +0.00    +0.000    12.275
ATOM      2  H   UNL     1      13.768  -8.465   5.262 -0.01 +0.00    +0.000    12.275
ATOM      3  H   UNL     1      12.266  -9.121   5.661 -0.03 +0.00    +0.000    12.275
ATOM      4  C   UNL     1      12.626  -9.024   3.668 -0.25 +0.00    +0.000    12.275
ATOM      5  C   UNL     1      16.368 -10.729   2.327 -0.40 +0.00    +0.000    12.275
ATOM      6  C   UNL     1      15.144 -11.179   1.794 -0.38 +0.00    +0.000    12.275
ATOM      7  C   UNL     1      13.935 -10.634   2.238 -0.32 +0.00    +0.000    12.275
ATOM      8  C   UNL     1      13.925  -9.636   3.222 -0.28 +0.00    +0.000    12.275
ATOM      9  C   UNL     1      15.143  -9.162   3.731 -0.35 +0.00    +0.000    12.275
ATOM     10  C   UNL     1      16.352  -9.704   3.288 -0.38 +0.00    +0.000    12.275
ATOM     11  C   UNL     1      18.817 -10.551   1.897 -0.57 -0.00    +0.000    12.275
ATOM     12  C   UNL     1      17.680 -11.264   1.884 -0.49 +0.00    +0.000    12.275
ATOM     13  O   UNL     1      20.644 -12.020   2.118 -1.92 -0.00    +0.000    12.275
ATOM     14  C   UNL     1      20.119 -11.088   1.452 -0.72 -0.00    +0.000    12.275
ATOM     15  N   UNL     1      20.814 -10.568   0.311 -0.64 -0.00    +0.000    12.275
ATOM     16  O   UNL     1      21.951 -11.162  -0.118 -0.64 -0.00    +0.000    12.275
ATOM     17  H   UNL     1      20.462  -9.779  -0.160 -0.03 -0.00    +0.000    12.275
ATOM     18  C   UNL     1      12.209  -7.151   5.176 -0.28 +0.00    +0.000    12.275
ATOM     19  C   UNL     1      13.227  -6.140   5.729 -0.32 +0.00    +0.000    12.275
ATOM     20  C   UNL     1      13.011  -4.788   5.112 -0.27 +0.00    +0.000    12.275
ATOM     21  C   UNL     1      11.803  -4.103   4.973 -0.30 +0.00    +0.000    12.275
ATOM     22  N   UNL     1      11.987  -2.940   4.305 -0.37 +0.00    +0.000    12.275
ATOM     23  C   UNL     1      13.296  -2.892   4.002 -0.32 -0.00    +0.000    12.275
ATOM     24  C   UNL     1      13.951  -4.004   4.471 -0.30 +0.00    +0.000    12.275
ATOM     25  C   UNL     1      15.318  -4.193   4.258 -0.39 -0.00    +0.000    12.275
ATOM     26  C   UNL     1      16.016  -3.199   3.549 -0.40 -0.00    +0.000    12.275
ATOM     27  C   UNL     1      15.342  -2.053   3.072 -0.33 -0.00    +0.000    12.275
ATOM     28  C   UNL     1      13.963  -1.892   3.296 -0.27 -0.00    +0.000    12.275
ATOM     29  C   UNL     1      10.476  -4.559   5.491 -0.37 +0.00    +0.000    12.275
ATOM     30  H   UNL     1      11.302  -2.266   4.086 -0.49 +0.00    +0.000    12.275
TER
ENDMDL
MODEL       18
USER    Run = 18
USER    Cluster Rank = 10
USER    Number of conformations in this cluster = 3
USER  
USER    RMSD from reference structure       = 15.675 A
USER  
USER    Estimated Free Energy of Binding    =   -9.88 kcal/mol  [=(1)+(2)+(3)-(4)]
USER    Estimated Inhibition Constant, Ki   =   57.68 nM (nanomolar)  [Temperature = 298.15 K]
USER    
USER    (1) Final Intermolecular Energy     =  -11.96 kcal/mol
USER        vdW + Hbond + desolv Energy     =  -11.96 kcal/mol
USER        Electrostatic Energy            =   +0.00 kcal/mol
USER    (2) Final Total Internal Energy     =   -1.64 kcal/mol
USER    (3) Torsional Free Energy           =   +2.09 kcal/mol
USER    (4) Unbound System's Energy  [=(2)] =   -1.64 kcal/mol
USER    
USER    
USER  
USER    DPF = ligand_dock.biased.dpf
USER    NEWDPF move	ligand.pdbqt
USER    NEWDPF about	0.576000 -0.005000 0.140000
USER    NEWDPF tran0	20.408257 -10.498500 3.108308
USER    NEWDPF axisangle0	-0.904676 -0.100361 0.414113 -56.390969
USER    NEWDPF quaternion0	-0.427442 -0.047419 0.195661 -0.881341
USER    NEWDPF dihe0	88.20 -15.04 0.81 1.56 1.80 157.70 -107.24 
USER  
USER                              x       y       z    vdW   Elec        q     RMS 
ATOM      1  N   UNL     1      19.643 -10.479   3.267 -0.64 -0.00    +0.000    15.675
ATOM      2  H   UNL     1      19.720  -9.486   3.048 -0.54 -0.00    +0.000    15.675
ATOM      3  H   UNL     1      19.829 -10.659   4.254 -0.05 -0.00    +0.000    15.675
ATOM      4  C   UNL     1      20.642 -11.215   2.482 -0.66 -0.00    +0.000    15.675
ATOM      5  C   UNL     1      19.806 -10.597  -1.716 -0.43 -0.00    +0.000    15.675
ATOM      6  C   UNL     1      19.149 -11.616  -0.997 -0.28 -0.00    +0.000    15.675
ATOM      7  C   UNL     1      19.431 -11.821   0.357 -0.51 -0.00    +0.000    15.675
ATOM      8  C   UNL     1      20.372 -11.017   1.017 -0.63 -0.00    +0.000    15.675
ATOM      9  C   UNL     1      21.002  -9.981   0.313 -0.59 -0.00    +0.000    15.675
ATOM     10  C   UNL     1      20.722  -9.774  -1.039 -0.56 -0.00    +0.000    15.675
ATOM     11  C   UNL     1      19.303 -11.289  -4.057 -0.40 -0.00    +0.000    15.675
ATOM     12  C   UNL     1      19.536 -10.328  -3.151 -0.42 -0.00    +0.000    15.675
ATOM     13  O   UNL     1      17.907 -10.566  -5.809 -0.29 -0.00    +0.000    15.675
ATOM     14  C   UNL     1      19.038 -11.015  -5.484 -0.40 -0.00    +0.000    15.675
ATOM     15  N   UNL     1      20.009 -11.268  -6.507 -0.29 -0.00    +0.000    15.675
ATOM     16  O   UNL     1      19.757 -10.903  -7.786 -0.34 -0.00    +0.000    15.675
ATOM     17  H   UNL     1      20.859 -11.708  -6.279 -0.38 -0.00    +0.000    15.675
ATOM     18  C   UNL     1      18.270 -10.922   2.981 -0.53 -0.00    +0.000    15.675
ATOM     19  C   UNL     1      17.329  -9.750   2.658 -0.45 +0.00    +0.000    15.675
ATOM     20  C   UNL     1      15.960 -10.259   2.308 -0.36 +0.00    +0.000    15.675
ATOM     21  C   UNL     1      14.885 -10.466   3.175 -0.40 +0.00    +0.000    15.675
ATOM     22  N   UNL     1      13.832 -10.999   2.511 -0.38 +0.00    +0.000    15.675
ATOM     23  C   UNL     1      14.237 -11.151   1.239 -0.34 +0.00    +0.000    15.675
ATOM     24  C   UNL     1      15.530 -10.718   1.077 -0.30 +0.00    +0.000    15.675
ATOM     25  C   UNL     1      16.181 -10.798  -0.155 -0.29 +0.00    +0.000    15.675
ATOM     26  C   UNL     1      15.466 -11.331  -1.242 -0.30 +0.00    +0.000    15.675
ATOM     27  C   UNL     1      14.134 -11.771  -1.076 -0.35 +0.00    +0.000    15.675
ATOM     28  C   UNL     1      13.506 -11.685   0.179 -0.37 +0.00    +0.000    15.675
ATOM     29  C   UNL     1      14.866 -10.141   4.634 -0.45 +0.00    +0.000    15.675
ATOM     30  H   UNL     1      12.950 -11.229   2.885 -0.04 +0.00    +0.000    15.675
TER
ENDMDL
MODEL        5
USER    Run = 5
USER    Cluster Rank = 11
USER    Number of conformations in this cluster = 1
USER  
USER    RMSD from reference structure       = 18.238 A
USER  
USER    Estimated Free Energy of Binding    =   -9.87 kcal/mol  [=(1)+(2)+(3)-(4)]
USER    Estimated Inhibition Constant, Ki   =   58.69 nM (nanomolar)  [Temperature = 298.15 K]
USER    
USER    (1) Final Intermolecular Energy     =  -11.95 kcal/mol
USER        vdW + Hbond + desolv Energy     =  -11.95 kcal/mol
USER        Electrostatic Energy            =   +0.00 kcal/mol
USER    (2) Final Total Internal Energy     =   -1.23 kcal/mol
USER    (3) Torsional Free Energy           =   +2.09 kcal/mol
USER    (4) Unbound System's Energy  [=(2)] =   -1.23 kcal/mol
USER    
USER    
USER  
USER    DPF = ligand_dock.biased.dpf
USER    NEWDPF move	ligand.pdbqt
USER    NEWDPF about	0.576000 -0.005000 0.140000
USER    NEWDPF tran0	21.206352 -7.569780 -6.039327
USER    NEWDPF axisangle0	-0.957839 -0.111788 0.264667 -166.662675
USER    NEWDPF quaternion0	-0.951358 -0.111032 0.262876 -0.116128
USER    NEWDPF dihe0	142.13 25.04 -165.78 168.72 -7.55 -169.94 -165.66 
USER  
USER                              x       y       z    vdW   Elec        q     RMS 
ATOM      1  N   UNL     1      20.470  -7.828  -5.992 -0.11 -0.00    +0.000    18.238
ATOM      2  H   UNL     1      20.669  -8.270  -6.889 +0.00 -0.00    +0.000    18.238
ATOM      3  H   UNL     1      20.115  -6.879  -6.114 +0.00 -0.00    +0.000    18.238
ATOM      4  C   UNL     1      21.716  -7.743  -5.220 -0.24 -0.00    +0.000    18.238
ATOM      5  C   UNL     1      21.202  -9.974  -1.550 -0.56 -0.00    +0.000    18.238
ATOM      6  C   UNL     1      20.971  -8.584  -1.582 -0.43 -0.00    +0.000    18.238
ATOM      7  C   UNL     1      21.149  -7.864  -2.768 -0.39 -0.00    +0.000    18.238
ATOM      8  C   UNL     1      21.564  -8.514  -3.939 -0.30 -0.00    +0.000    18.238
ATOM      9  C   UNL     1      21.763  -9.902  -3.919 -0.34 -0.00    +0.000    18.238
ATOM     10  C   UNL     1      21.584 -10.624  -2.736 -0.36 -0.00    +0.000    18.238
ATOM     11  C   UNL     1      20.574 -10.289   0.841 -0.64 -0.00    +0.000    18.238
ATOM     12  C   UNL     1      21.017 -10.788  -0.324 -0.65 -0.00    +0.000    18.238
ATOM     13  O   UNL     1      20.267 -12.352   1.934 -1.84 -0.00    +0.000    18.238
ATOM     14  C   UNL     1      20.393 -11.105   2.059 -0.73 -0.00    +0.000    18.238
ATOM     15  N   UNL     1      20.328 -10.524   3.368 -0.70 -0.00    +0.000    18.238
ATOM     16  O   UNL     1      20.267 -11.321   4.460 -0.94 -0.00    +0.000    18.238
ATOM     17  H   UNL     1      20.328  -9.546   3.472 -0.57 -0.00    +0.000    18.238
ATOM     18  C   UNL     1      19.435  -8.609  -5.299 -0.18 -0.00    +0.000    18.238
ATOM     19  C   UNL     1      19.380 -10.070  -5.777 -0.28 -0.00    +0.000    18.238
ATOM     20  C   UNL     1      20.123 -10.225  -7.073 -0.24 -0.00    +0.000    18.238
ATOM     21  C   UNL     1      19.704  -9.828  -8.344 -0.18 -0.00    +0.000    18.238
ATOM     22  N   UNL     1      20.609 -10.194  -9.282 -0.18 -0.00    +0.000    18.238
ATOM     23  C   UNL     1      21.586 -10.838  -8.619 -0.23 -0.00    +0.000    18.238
ATOM     24  C   UNL     1      21.322 -10.883  -7.273 -0.24 -0.00    +0.000    18.238
ATOM     25  C   UNL     1      22.182 -11.522  -6.379 -0.37 -0.00    +0.000    18.238
ATOM     26  C   UNL     1      23.345 -12.118  -6.898 -0.47 -0.00    +0.000    18.238
ATOM     27  C   UNL     1      23.619 -12.067  -8.283 -0.42 -0.00    +0.000    18.238
ATOM     28  C   UNL     1      22.730 -11.421  -9.162 -0.26 -0.00    +0.000    18.238
ATOM     29  C   UNL     1      18.443  -9.087  -8.655 -0.12 -0.00    +0.000    18.238
ATOM     30  H   UNL     1      20.561 -10.024 -10.251 -0.01 -0.00    +0.000    18.238
TER
ENDMDL
MODEL       10
USER    Run = 10
USER    Cluster Rank = 12
USER    Number of conformations in this cluster = 1
USER  
USER    RMSD from reference structure       = 12.220 A
USER  
USER    Estimated Free Energy of Binding    =   -9.77 kcal/mol  [=(1)+(2)+(3)-(4)]
USER    Estimated Inhibition Constant, Ki   =   68.95 nM (nanomolar)  [Temperature = 298.15 K]
USER    
USER    (1) Final Intermolecular Energy     =  -11.86 kcal/mol
USER        vdW + Hbond + desolv Energy     =  -11.86 kcal/mol
USER        Electrostatic Energy            =   +0.00 kcal/mol
USER    (2) Final Total Internal Energy     =   -1.38 kcal/mol
USER    (3) Torsional Free Energy           =   +2.09 kcal/mol
USER    (4) Unbound System's Energy  [=(2)] =   -1.38 kcal/mol
USER    
USER    
USER  
USER    DPF = ligand_dock.biased.dpf
USER    NEWDPF move	ligand.pdbqt
USER    NEWDPF about	0.576000 -0.005000 0.140000
USER    NEWDPF tran0	13.670042 -5.733940 3.470462
USER    NEWDPF axisangle0	0.662694 -0.475461 0.578596 78.140417
USER    NEWDPF quaternion0	0.417677 -0.299670 0.364673 0.776374
USER    NEWDPF dihe0	-149.02 93.99 -171.00 -153.48 -39.97 111.46 -2.28 
USER  
USER                              x       y       z    vdW   Elec        q     RMS 
ATOM      1  N   UNL     1      13.551  -4.977   3.624 -0.19 +0.00    +0.000    12.220
ATOM      2  H   UNL     1      14.474  -4.847   3.211 -0.00 -0.00    +0.000    12.220
ATOM      3  H   UNL     1      13.612  -5.156   4.626 +0.00 +0.00    +0.000    12.220
ATOM      4  C   UNL     1      12.914  -6.143   2.999 -0.14 +0.00    +0.000    12.220
ATOM      5  C   UNL     1      15.848  -9.304   2.668 -0.34 +0.00    +0.000    12.220
ATOM      6  C   UNL     1      15.119  -8.882   1.538 -0.25 +0.00    +0.000    12.220
ATOM      7  C   UNL     1      14.163  -7.868   1.651 -0.21 +0.00    +0.000    12.220
ATOM      8  C   UNL     1      13.915  -7.261   2.891 -0.20 +0.00    +0.000    12.220
ATOM      9  C   UNL     1      14.662  -7.655   4.010 -0.32 +0.00    +0.000    12.220
ATOM     10  C   UNL     1      15.618  -8.666   3.899 -0.30 +0.00    +0.000    12.220
ATOM     11  C   UNL     1      18.078 -10.206   2.015 -0.47 -0.00    +0.000    12.220
ATOM     12  C   UNL     1      16.882 -10.367   2.603 -0.48 +0.00    +0.000    12.220
ATOM     13  O   UNL     1      18.751 -12.421   1.585 -1.02 -0.00    +0.000    12.220
ATOM     14  C   UNL     1      19.102 -11.267   1.951 -0.65 -0.00    +0.000    12.220
ATOM     15  N   UNL     1      20.470 -11.038   2.315 -0.67 -0.00    +0.000    12.220
ATOM     16  O   UNL     1      21.391 -12.013   2.140 -1.32 -0.00    +0.000    12.220
ATOM     17  H   UNL     1      20.738 -10.169   2.692 -0.42 -0.00    +0.000    12.220
ATOM     18  C   UNL     1      12.770  -3.745   3.434 -0.25 +0.00    +0.000    12.220
ATOM     19  C   UNL     1      13.485  -2.503   3.990 -0.38 -0.00    +0.000    12.220
ATOM     20  C   UNL     1      14.963  -2.748   4.085 -0.38 -0.00    +0.000    12.220
ATOM     21  C   UNL     1      15.646  -3.435   5.090 -0.47 -0.00    +0.000    12.220
ATOM     22  N   UNL     1      16.982  -3.395   4.875 -0.50 -0.00    +0.000    12.220
ATOM     23  C   UNL     1      17.153  -2.671   3.755 -0.41 -0.00    +0.000    12.220
ATOM     24  C   UNL     1      15.947  -2.254   3.249 -0.38 -0.00    +0.000    12.220
ATOM     25  C   UNL     1      15.868  -1.465   2.100 -0.26 -0.00    +0.000    12.220
ATOM     26  C   UNL     1      17.070  -1.111   1.462 -0.26 -0.00    +0.000    12.220
ATOM     27  C   UNL     1      18.310  -1.546   1.981 -0.35 -0.00    +0.000    12.220
ATOM     28  C   UNL     1      18.360  -2.335   3.144 -0.44 -0.00    +0.000    12.220
ATOM     29  C   UNL     1      15.015  -4.140   6.249 -0.47 +0.00    +0.000    12.220
ATOM     30  H   UNL     1      17.684  -3.810   5.426 -0.32 -0.00    +0.000    12.220
TER
ENDMDL
MODEL       21
USER    Run = 21
USER    Cluster Rank = 13
USER    Number of conformations in this cluster = 1
USER  
USER    RMSD from reference structure       = 11.973 A
USER  
USER    Estimated Free Energy of Binding    =   -9.64 kcal/mol  [=(1)+(2)+(3)-(4)]
USER    Estimated Inhibition Constant, Ki   =   85.25 nM (nanomolar)  [Temperature = 298.15 K]
USER    
USER    (1) Final Intermolecular Energy     =  -11.73 kcal/mol
USER        vdW + Hbond + desolv Energy     =  -11.73 kcal/mol
USER        Electrostatic Energy            =   +0.00 kcal/mol
USER    (2) Final Total Internal Energy     =   -1.16 kcal/mol
USER    (3) Torsional Free Energy           =   +2.09 kcal/mol
USER    (4) Unbound System's Energy  [=(2)] =   -1.16 kcal/mol
USER    
USER    
USER  
USER    DPF = ligand_dock.biased.dpf
USER    NEWDPF move	ligand.pdbqt
USER    NEWDPF about	0.576000 -0.005000 0.140000
USER    NEWDPF tran0	12.597292 -7.581999 5.505872
USER    NEWDPF axisangle0	0.901007 0.412979 0.132799 103.939719
USER    NEWDPF quaternion0	0.709711 0.325298 0.104604 0.616076
USER    NEWDPF dihe0	16.52 3.52 0.79 168.40 -62.26 64.07 -86.55 
USER  
USER                              x       y       z    vdW   Elec        q     RMS 
ATOM      1  N   UNL     1      12.048  -7.533   4.952 -0.24 +0.00    +0.000    11.973
ATOM      2  H   UNL     1      12.679  -6.857   4.521 +0.00 +0.00    +0.000    11.973
ATOM      3  H   UNL     1      11.408  -7.082   5.606 -0.01 +0.00    +0.000    11.973
ATOM      4  C   UNL     1      12.845  -8.509   5.706 -0.42 +0.00    +0.000    11.973
ATOM      5  C   UNL     1      16.348  -9.547   3.391 -0.33 +0.00    +0.000    11.973
ATOM      6  C   UNL     1      15.760 -10.487   4.261 -0.40 +0.00    +0.000    11.973
ATOM      7  C   UNL     1      14.634 -10.144   5.017 -0.24 +0.00    +0.000    11.973
ATOM      8  C   UNL     1      14.078  -8.861   4.922 -0.39 +0.00    +0.000    11.973
ATOM      9  C   UNL     1      14.641  -7.934   4.032 -0.32 +0.00    +0.000    11.973
ATOM     10  C   UNL     1      15.764  -8.275   3.275 -0.24 +0.00    +0.000    11.973
ATOM     11  C   UNL     1      18.368 -10.884   2.805 -0.58 -0.00    +0.000    11.973
ATOM     12  C   UNL     1      17.535  -9.862   2.557 -0.47 +0.00    +0.000    11.973
ATOM     13  O   UNL     1      19.890 -12.396   1.834 -1.80 -0.00    +0.000    11.973
ATOM     14  C   UNL     1      19.549 -11.191   1.972 -0.70 -0.00    +0.000    11.973
ATOM     15  N   UNL     1      20.331 -10.167   1.343 -0.55 -0.00    +0.000    11.973
ATOM     16  O   UNL     1      21.340 -10.503   0.506 -0.75 -0.00    +0.000    11.973
ATOM     17  H   UNL     1      20.133  -9.220   1.520 -0.33 -0.00    +0.000    11.973
ATOM     18  C   UNL     1      11.241  -8.165   3.898 -0.17 +0.00    +0.000    11.973
ATOM     19  C   UNL     1       9.813  -7.599   3.829 -0.12 +0.00    +0.000    11.973
ATOM     20  C   UNL     1       9.491  -6.838   5.083 -0.16 +0.00    +0.000    11.973
ATOM     21  C   UNL     1       9.677  -5.475   5.319 -0.23 +0.00    +0.000    11.973
ATOM     22  N   UNL     1       9.335  -5.158   6.590 -0.42 +0.00    +0.000    11.973
ATOM     23  C   UNL     1       8.954  -6.311   7.166 -0.35 +0.00    +0.000    11.973
ATOM     24  C   UNL     1       9.042  -7.358   6.282 -0.28 +0.00    +0.000    11.973
ATOM     25  C   UNL     1       8.721  -8.663   6.658 -0.41 +0.00    +0.000    11.973
ATOM     26  C   UNL     1       8.292  -8.880   7.979 -0.50 +0.00    +0.000    11.973
ATOM     27  C   UNL     1       8.196  -7.801   8.887 -0.61 +0.00    +0.000    11.973
ATOM     28  C   UNL     1       8.532  -6.497   8.482 -0.42 +0.00    +0.000    11.973
ATOM     29  C   UNL     1      10.172  -4.476   4.321 -0.25 +0.00    +0.000    11.973
ATOM     30  H   UNL     1       9.360  -4.266   7.006 -0.05 +0.00    +0.000    11.973
TER
ENDMDL
MODEL       82
USER    Run = 82
USER    Cluster Rank = 14
USER    Number of conformations in this cluster = 2
USER  
USER    RMSD from reference structure       = 13.396 A
USER  
USER    Estimated Free Energy of Binding    =   -9.61 kcal/mol  [=(1)+(2)+(3)-(4)]
USER    Estimated Inhibition Constant, Ki   =   90.05 nM (nanomolar)  [Temperature = 298.15 K]
USER    
USER    (1) Final Intermolecular Energy     =  -11.70 kcal/mol
USER        vdW + Hbond + desolv Energy     =  -11.70 kcal/mol
USER        Electrostatic Energy            =   +0.00 kcal/mol
USER    (2) Final Total Internal Energy     =   -3.01 kcal/mol
USER    (3) Torsional Free Energy           =   +2.09 kcal/mol
USER    (4) Unbound System's Energy  [=(2)] =   -3.01 kcal/mol
USER    
USER    
USER  
USER    DPF = ligand_dock.biased.dpf
USER    NEWDPF move	ligand.pdbqt
USER    NEWDPF about	0.576000 -0.005000 0.140000
USER    NEWDPF tran0	12.218266 -10.948756 -1.998900
USER    NEWDPF axisangle0	0.646391 -0.322536 -0.691483 -90.270615
USER    NEWDPF quaternion0	0.458146 -0.228606 -0.490106 -0.705435
USER    NEWDPF dihe0	-180.00 -147.48 -179.61 -138.71 168.84 156.71 -73.33 
USER  
USER                              x       y       z    vdW   Elec        q     RMS 
ATOM      1  N   UNL     1      11.746 -10.427  -1.658 -0.22 -0.00    +0.000    13.396
ATOM      2  H   UNL     1      11.838 -11.024  -0.837 -0.03 +0.00    +0.000    13.396
ATOM      3  H   UNL     1      10.969 -10.723  -2.250 -0.01 -0.00    +0.000    13.396
ATOM      4  C   UNL     1      12.976 -10.526  -2.453 -0.23 -0.00    +0.000    13.396
ATOM      5  C   UNL     1      16.336 -11.534   0.077 -0.36 +0.00    +0.000    13.396
ATOM      6  C   UNL     1      15.461 -12.538  -0.386 -0.47 +0.00    +0.000    13.396
ATOM      7  C   UNL     1      14.369 -12.206  -1.194 -0.34 +0.00    +0.000    13.396
ATOM      8  C   UNL     1      14.129 -10.872  -1.552 -0.29 -0.00    +0.000    13.396
ATOM      9  C   UNL     1      15.016  -9.875  -1.121 -0.24 -0.00    +0.000    13.396
ATOM     10  C   UNL     1      16.108 -10.204  -0.314 -0.25 -0.00    +0.000    13.396
ATOM     11  C   UNL     1      18.253 -10.887   1.533 -0.52 -0.00    +0.000    13.396
ATOM     12  C   UNL     1      17.517 -11.831   0.927 -0.51 +0.00    +0.000    13.396
ATOM     13  O   UNL     1      19.953 -12.330   2.288 -1.80 -0.00    +0.000    13.396
ATOM     14  C   UNL     1      19.427 -11.188   2.376 -0.70 -0.00    +0.000    13.396
ATOM     15  N   UNL     1      19.969 -10.240   3.305 -0.62 -0.00    +0.000    13.396
ATOM     16  O   UNL     1      21.109 -10.525   3.977 -0.73 -0.00    +0.000    13.396
ATOM     17  H   UNL     1      19.511  -9.382   3.453 -0.52 -0.00    +0.000    13.396
ATOM     18  C   UNL     1      11.475  -9.051  -1.215 -0.16 -0.00    +0.000    13.396
ATOM     19  C   UNL     1      11.174  -8.965   0.290 -0.11 +0.00    +0.000    13.396
ATOM     20  C   UNL     1      12.029  -9.937   1.051 -0.18 +0.00    +0.000    13.396
ATOM     21  C   UNL     1      11.735 -11.267   1.355 -0.35 +0.00    +0.000    13.396
ATOM     22  N   UNL     1      12.715 -11.812   2.116 -0.35 +0.00    +0.000    13.396
ATOM     23  C   UNL     1      13.614 -10.833   2.313 -0.33 +0.00    +0.000    13.396
ATOM     24  C   UNL     1      13.228  -9.674   1.686 -0.19 +0.00    +0.000    13.396
ATOM     25  C   UNL     1      13.991  -8.508   1.767 -0.20 +0.00    +0.000    13.396
ATOM     26  C   UNL     1      15.185  -8.554   2.509 -0.29 +0.00    +0.000    13.396
ATOM     27  C   UNL     1      15.584  -9.748   3.150 -0.38 +0.00    +0.000    13.396
ATOM     28  C   UNL     1      14.792 -10.906   3.056 -0.42 +0.00    +0.000    13.396
ATOM     29  C   UNL     1      10.522 -12.018   0.906 -0.39 +0.00    +0.000    13.396
ATOM     30  H   UNL     1      12.758 -12.735   2.455 -0.51 +0.00    +0.000    13.396
TER
ENDMDL
MODEL       49
USER    Run = 49
USER    Cluster Rank = 15
USER    Number of conformations in this cluster = 1
USER  
USER    RMSD from reference structure       = 19.554 A
USER  
USER    Estimated Free Energy of Binding    =   -9.54 kcal/mol  [=(1)+(2)+(3)-(4)]
USER    Estimated Inhibition Constant, Ki   =  101.67 nM (nanomolar)  [Temperature = 298.15 K]
USER    
USER    (1) Final Intermolecular Energy     =  -11.63 kcal/mol
USER        vdW + Hbond + desolv Energy     =  -11.63 kcal/mol
USER        Electrostatic Energy            =   +0.00 kcal/mol
USER    (2) Final Total Internal Energy     =   -1.39 kcal/mol
USER    (3) Torsional Free Energy           =   +2.09 kcal/mol
USER    (4) Unbound System's Energy  [=(2)] =   -1.39 kcal/mol
USER    
USER    
USER  
USER    DPF = ligand_dock.biased.dpf
USER    NEWDPF move	ligand.pdbqt
USER    NEWDPF about	0.576000 -0.005000 0.140000
USER    NEWDPF tran0	22.683988 -8.441825 -5.678734
USER    NEWDPF axisangle0	0.531325 -0.061096 0.844962 162.671070
USER    NEWDPF quaternion0	0.525261 -0.060399 0.835319 0.150648
USER    NEWDPF dihe0	-177.29 -19.23 164.80 -82.73 169.47 -180.00 -9.63 
USER  
USER                              x       y       z    vdW   Elec        q     RMS 
ATOM      1  N   UNL     1      23.266  -8.315  -6.184 -0.13 -0.00    +0.000    19.554
ATOM      2  H   UNL     1      23.720  -9.095  -5.708 +0.01 -0.00    +0.000    19.554
ATOM      3  H   UNL     1      23.483  -7.425  -5.735 -0.02 -0.00    +0.000    19.554
ATOM      4  C   UNL     1      21.812  -8.507  -6.122 -0.23 -0.00    +0.000    19.554
ATOM      5  C   UNL     1      20.677 -10.238  -2.324 -0.49 -0.00    +0.000    19.554
ATOM      6  C   UNL     1      20.896  -8.851  -2.442 -0.43 -0.00    +0.000    19.554
ATOM      7  C   UNL     1      21.274  -8.296  -3.669 -0.34 -0.00    +0.000    19.554
ATOM      8  C   UNL     1      21.444  -9.113  -4.796 -0.30 -0.00    +0.000    19.554
ATOM      9  C   UNL     1      21.194 -10.489  -4.690 -0.43 -0.00    +0.000    19.554
ATOM     10  C   UNL     1      20.815 -11.044  -3.466 -0.28 -0.00    +0.000    19.554
ATOM     11  C   UNL     1      20.776 -10.554   0.146 -0.69 -0.00    +0.000    19.554
ATOM     12  C   UNL     1      20.262 -10.877  -1.051 -0.51 -0.00    +0.000    19.554
ATOM     13  O   UNL     1      19.780 -12.312   1.354 -1.59 -0.00    +0.000    19.554
ATOM     14  C   UNL     1      20.361 -11.196   1.410 -0.74 -0.00    +0.000    19.554
ATOM     15  N   UNL     1      20.571 -10.581   2.688 -0.63 -0.00    +0.000    19.554
ATOM     16  O   UNL     1      20.268 -11.255   3.822 -1.25 -0.00    +0.000    19.554
ATOM     17  H   UNL     1      20.936  -9.669   2.740 -0.59 -0.00    +0.000    19.554
ATOM     18  C   UNL     1      23.763  -8.252  -7.567 -0.18 -0.00    +0.000    19.554
ATOM     19  C   UNL     1      24.526  -9.523  -7.978 -0.26 -0.00    +0.000    19.554
ATOM     20  C   UNL     1      23.597 -10.499  -8.641 -0.22 -0.00    +0.000    19.554
ATOM     21  C   UNL     1      23.069 -11.671  -8.096 -0.38 -0.00    +0.000    19.554
ATOM     22  N   UNL     1      22.325 -12.332  -9.013 -0.28 -0.00    +0.000    19.554
ATOM     23  C   UNL     1      22.394 -11.601 -10.139 -0.21 -0.00    +0.000    19.554
ATOM     24  C   UNL     1      23.166 -10.481  -9.954 -0.12 -0.00    +0.000    19.554
ATOM     25  C   UNL     1      23.406  -9.577 -10.989 -0.04 -0.00    +0.000    19.554
ATOM     26  C   UNL     1      22.822  -9.841 -12.241 -0.03 -0.00    +0.000    19.554
ATOM     27  C   UNL     1      22.023 -10.991 -12.429 -0.08 -0.00    +0.000    19.554
ATOM     28  C   UNL     1      21.804 -11.889 -11.369 -0.10 -0.00    +0.000    19.554
ATOM     29  C   UNL     1      23.269 -12.148  -6.693 -0.52 -0.00    +0.000    19.554
ATOM     30  H   UNL     1      21.833 -13.175  -8.882 -0.57 -0.00    +0.000    19.554
TER
ENDMDL
MODEL       72
USER    Run = 72
USER    Cluster Rank = 16
USER    Number of conformations in this cluster = 1
USER  
USER    RMSD from reference structure       = 12.302 A
USER  
USER    Estimated Free Energy of Binding    =   -9.51 kcal/mol  [=(1)+(2)+(3)-(4)]
USER    Estimated Inhibition Constant, Ki   =  106.04 nM (nanomolar)  [Temperature = 298.15 K]
USER    
USER    (1) Final Intermolecular Energy     =  -11.60 kcal/mol
USER        vdW + Hbond + desolv Energy     =  -11.60 kcal/mol
USER        Electrostatic Energy            =   +0.00 kcal/mol
USER    (2) Final Total Internal Energy     =   -1.33 kcal/mol
USER    (3) Torsional Free Energy           =   +2.09 kcal/mol
USER    (4) Unbound System's Energy  [=(2)] =   -1.33 kcal/mol
USER    
USER    
USER  
USER    DPF = ligand_dock.biased.dpf
USER    NEWDPF move	ligand.pdbqt
USER    NEWDPF about	0.576000 -0.005000 0.140000
USER    NEWDPF tran0	13.128432 -3.751285 3.943321
USER    NEWDPF axisangle0	0.166189 -0.920239 -0.354318 177.200205
USER    NEWDPF quaternion0	0.166139 -0.919965 -0.354212 0.024430
USER    NEWDPF dihe0	177.68 -71.95 -147.50 -68.40 -139.30 9.99 109.77 
USER  
USER                              x       y       z    vdW   Elec        q     RMS 
ATOM      1  N   UNL     1      13.736  -3.261   3.908 -0.31 -0.00    +0.000    12.302
ATOM      2  H   UNL     1      13.023  -2.534   3.854 -0.04 -0.00    +0.000    12.302
ATOM      3  H   UNL     1      13.983  -3.612   2.982 +0.00 -0.00    +0.000    12.302
ATOM      4  C   UNL     1      13.204  -4.387   4.685 -0.33 +0.00    +0.000    12.302
ATOM      5  C   UNL     1      15.230  -8.048   3.589 -0.33 +0.00    +0.000    12.302
ATOM      6  C   UNL     1      15.024  -7.721   4.945 -0.24 +0.00    +0.000    12.302
ATOM      7  C   UNL     1      14.380  -6.531   5.296 -0.40 +0.00    +0.000    12.302
ATOM      8  C   UNL     1      13.932  -5.646   4.304 -0.26 +0.00    +0.000    12.302
ATOM      9  C   UNL     1      14.105  -5.984   2.954 -0.21 +0.00    +0.000    12.302
ATOM     10  C   UNL     1      14.747  -7.173   2.602 -0.23 +0.00    +0.000    12.302
ATOM     11  C   UNL     1      17.206  -9.392   2.883 -0.36 +0.00    +0.000    12.302
ATOM     12  C   UNL     1      15.896  -9.303   3.161 -0.43 +0.00    +0.000    12.302
ATOM     13  O   UNL     1      17.140 -11.604   2.079 -0.49 +0.00    +0.000    12.302
ATOM     14  C   UNL     1      17.864 -10.643   2.455 -0.53 +0.00    +0.000    12.302
ATOM     15  N   UNL     1      19.287 -10.809   2.479 -0.59 -0.00    +0.000    12.302
ATOM     16  O   UNL     1      19.847 -11.935   1.978 -1.72 -0.00    +0.000    12.302
ATOM     17  H   UNL     1      19.857 -10.104   2.860 -0.25 -0.00    +0.000    12.302
ATOM     18  C   UNL     1      14.950  -2.689   4.509 -0.42 -0.00    +0.000    12.302
ATOM     19  C   UNL     1      16.220  -3.468   4.128 -0.50 -0.00    +0.000    12.302
ATOM     20  C   UNL     1      17.044  -2.680   3.151 -0.43 -0.00    +0.000    12.302
ATOM     21  C   UNL     1      16.644  -2.189   1.907 -0.30 -0.00    +0.000    12.302
ATOM     22  N   UNL     1      17.679  -1.585   1.276 -0.26 -0.00    +0.000    12.302
ATOM     23  C   UNL     1      18.734  -1.706   2.101 -0.38 -0.00    +0.000    12.302
ATOM     24  C   UNL     1      18.388  -2.374   3.250 -0.43 -0.00    +0.000    12.302
ATOM     25  C   UNL     1      19.323  -2.643   4.250 -0.24 -0.00    +0.000    12.302
ATOM     26  C   UNL     1      20.643  -2.200   4.052 -0.75 -0.00    +0.000    12.302
ATOM     27  C   UNL     1      20.997  -1.509   2.872 -0.56 -0.00    +0.000    12.302
ATOM     28  C   UNL     1      20.035  -1.257   1.878 -0.39 -0.00    +0.000    12.302
ATOM     29  C   UNL     1      15.269  -2.291   1.330 -0.26 -0.00    +0.000    12.302
ATOM     30  H   UNL     1      17.662  -1.146   0.395 +0.00 -0.00    +0.000    12.302
TER
ENDMDL
MODEL       88
USER    Run = 88
USER    Cluster Rank = 17
USER    Number of conformations in this cluster = 2
USER  
USER    RMSD from reference structure       = 16.103 A
USER  
USER    Estimated Free Energy of Binding    =   -9.43 kcal/mol  [=(1)+(2)+(3)-(4)]
USER    Estimated Inhibition Constant, Ki   =  121.74 nM (nanomolar)  [Temperature = 298.15 K]
USER    
USER    (1) Final Intermolecular Energy     =  -11.52 kcal/mol
USER        vdW + Hbond + desolv Energy     =  -11.52 kcal/mol
USER        Electrostatic Energy            =   +0.00 kcal/mol
USER    (2) Final Total Internal Energy     =   -1.84 kcal/mol
USER    (3) Torsional Free Energy           =   +2.09 kcal/mol
USER    (4) Unbound System's Energy  [=(2)] =   -1.84 kcal/mol
USER    
USER    
USER  
USER    DPF = ligand_dock.biased.dpf
USER    NEWDPF move	ligand.pdbqt
USER    NEWDPF about	0.576000 -0.005000 0.140000
USER    NEWDPF tran0	18.211849 -11.251398 -6.944070
USER    NEWDPF axisangle0	-0.634430 0.711954 -0.301032 78.456444
USER    NEWDPF quaternion0	-0.401220 0.450248 -0.190376 0.774633
USER    NEWDPF dihe0	-161.51 -127.94 -163.96 146.33 -141.97 -173.58 -13.21 
USER  
USER                              x       y       z    vdW   Elec        q     RMS 
ATOM      1  N   UNL     1      17.596 -11.374  -7.409 -0.36 -0.00    +0.000    16.103
ATOM      2  H   UNL     1      17.071 -11.435  -6.537 -0.02 -0.00    +0.000    16.103
ATOM      3  H   UNL     1      17.967 -12.283  -7.686 -0.05 -0.00    +0.000    16.103
ATOM      4  C   UNL     1      18.733 -10.466  -7.213 -0.29 -0.00    +0.000    16.103
ATOM      5  C   UNL     1      20.157 -10.709  -3.136 -0.42 -0.00    +0.000    16.103
ATOM      6  C   UNL     1      21.058 -10.794  -4.216 -0.46 -0.00    +0.000    16.103
ATOM      7  C   UNL     1      20.593 -10.728  -5.533 -0.38 -0.00    +0.000    16.103
ATOM      8  C   UNL     1      19.224 -10.578  -5.797 -0.31 -0.00    +0.000    16.103
ATOM      9  C   UNL     1      18.328 -10.459  -4.724 -0.28 -0.00    +0.000    16.103
ATOM     10  C   UNL     1      18.791 -10.524  -3.408 -0.32 -0.00    +0.000    16.103
ATOM     11  C   UNL     1      19.837 -11.239  -0.722 -0.42 -0.00    +0.000    16.103
ATOM     12  C   UNL     1      20.597 -10.761  -1.720 -0.47 -0.00    +0.000    16.103
ATOM     13  O   UNL     1      21.012 -10.357   1.118 -0.75 -0.00    +0.000    16.103
ATOM     14  C   UNL     1      20.280 -11.287   0.686 -0.70 -0.00    +0.000    16.103
ATOM     15  N   UNL     1      19.929 -12.364   1.565 -0.70 -0.00    +0.000    16.103
ATOM     16  O   UNL     1      20.270 -12.311   2.873 -1.78 -0.00    +0.000    16.103
ATOM     17  H   UNL     1      19.439 -13.143   1.215 -0.52 -0.00    +0.000    16.103
ATOM     18  C   UNL     1      16.691 -10.915  -8.474 -0.23 -0.00    +0.000    16.103
ATOM     19  C   UNL     1      15.438 -10.215  -7.922 -0.14 -0.00    +0.000    16.103
ATOM     20  C   UNL     1      14.961 -10.903  -6.675 -0.19 -0.00    +0.000    16.103
ATOM     21  C   UNL     1      14.313 -12.135  -6.581 -0.29 -0.00    +0.000    16.103
ATOM     22  N   UNL     1      13.972 -12.400  -5.298 -0.23 -0.00    +0.000    16.103
ATOM     23  C   UNL     1      14.379 -11.338  -4.582 -0.26 -0.00    +0.000    16.103
ATOM     24  C   UNL     1      14.980 -10.401  -5.387 -0.19 -0.00    +0.000    16.103
ATOM     25  C   UNL     1      15.464  -9.197  -4.874 -0.14 -0.00    +0.000    16.103
ATOM     26  C   UNL     1      15.328  -8.969  -3.493 -0.17 -0.00    +0.000    16.103
ATOM     27  C   UNL     1      14.714  -9.935  -2.665 -0.23 -0.00    +0.000    16.103
ATOM     28  C   UNL     1      14.229 -11.137  -3.211 -0.28 -0.00    +0.000    16.103
ATOM     29  C   UNL     1      14.032 -13.063  -7.721 -0.38 -0.00    +0.000    16.103
ATOM     30  H   UNL     1      13.518 -13.206  -4.959 -0.56 -0.00    +0.000    16.103
TER
ENDMDL
MODEL       63
USER    Run = 63
USER    Cluster Rank = 18
USER    Number of conformations in this cluster = 1
USER  
USER    RMSD from reference structure       = 14.924 A
USER  
USER    Estimated Free Energy of Binding    =   -9.29 kcal/mol  [=(1)+(2)+(3)-(4)]
USER    Estimated Inhibition Constant, Ki   =  154.69 nM (nanomolar)  [Temperature = 298.15 K]
USER    
USER    (1) Final Intermolecular Energy     =  -11.38 kcal/mol
USER        vdW + Hbond + desolv Energy     =  -11.38 kcal/mol
USER        Electrostatic Energy            =   +0.00 kcal/mol
USER    (2) Final Total Internal Energy     =   -1.90 kcal/mol
USER    (3) Torsional Free Energy           =   +2.09 kcal/mol
USER    (4) Unbound System's Energy  [=(2)] =   -1.90 kcal/mol
USER    
USER    
USER  
USER    DPF = ligand_dock.biased.dpf
USER    NEWDPF move	ligand.pdbqt
USER    NEWDPF about	0.576000 -0.005000 0.140000
USER    NEWDPF tran0	18.173888 -9.330598 2.570800
USER    NEWDPF axisangle0	0.599918 0.736772 0.311875 -149.071842
USER    NEWDPF quaternion0	0.578199 0.710099 0.300585 -0.266634
USER    NEWDPF dihe0	53.53 120.98 -174.82 162.75 178.73 74.53 107.33 
USER  
USER                              x       y       z    vdW   Elec        q     RMS 
ATOM      1  N   UNL     1      18.610  -9.972   2.475 -0.54 -0.00    +0.000    14.924
ATOM      2  H   UNL     1      19.399  -9.335   2.587 -0.48 -0.00    +0.000    14.924
ATOM      3  H   UNL     1      18.321 -10.039   1.498 -0.02 -0.00    +0.000    14.924
ATOM      4  C   UNL     1      17.472  -9.454   3.243 -0.06 +0.00    +0.000    14.924
ATOM      5  C   UNL     1      13.742 -10.805   1.521 -0.30 +0.00    +0.000    14.924
ATOM      6  C   UNL     1      14.372 -11.549   2.538 -0.42 +0.00    +0.000    14.924
ATOM      7  C   UNL     1      15.584 -11.116   3.085 -0.47 +0.00    +0.000    14.924
ATOM      8  C   UNL     1      16.189  -9.937   2.625 -0.38 +0.00    +0.000    14.924
ATOM      9  C   UNL     1      15.548  -9.177   1.637 -0.26 +0.00    +0.000    14.924
ATOM     10  C   UNL     1      14.337  -9.608   1.091 -0.21 +0.00    +0.000    14.924
ATOM     11  C   UNL     1      11.263 -10.703   1.280 -0.31 +0.00    +0.000    14.924
ATOM     12  C   UNL     1      12.449 -11.212   0.915 -0.40 +0.00    +0.000    14.924
ATOM     13  O   UNL     1       9.376 -10.294  -0.067 -0.20 +0.00    +0.000    14.924
ATOM     14  C   UNL     1       9.980 -11.114   0.674 -0.33 +0.00    +0.000    14.924
ATOM     15  N   UNL     1       9.390 -12.396   0.922 -0.35 -0.00    +0.000    14.924
ATOM     16  O   UNL     1       8.268 -12.765   0.262 -0.38 -0.00    +0.000    14.924
ATOM     17  H   UNL     1       9.802 -13.008   1.574 -0.51 -0.00    +0.000    14.924
ATOM     18  C   UNL     1      19.019 -11.314   2.916 -0.63 -0.00    +0.000    14.924
ATOM     19  C   UNL     1      19.570 -12.171   1.764 -0.72 -0.00    +0.000    14.924
ATOM     20  C   UNL     1      19.081 -11.649   0.443 -0.53 -0.00    +0.000    14.924
ATOM     21  C   UNL     1      17.868 -11.933  -0.185 -0.44 -0.00    +0.000    14.924
ATOM     22  N   UNL     1      17.805 -11.335  -1.398 -0.28 -0.00    +0.000    14.924
ATOM     23  C   UNL     1      18.975 -10.692  -1.552 -0.37 -0.00    +0.000    14.924
ATOM     24  C   UNL     1      19.782 -10.866  -0.455 -0.50 -0.00    +0.000    14.924
ATOM     25  C   UNL     1      21.062 -10.312  -0.391 -0.62 -0.00    +0.000    14.924
ATOM     26  C   UNL     1      21.505  -9.555  -1.490 -0.43 -0.00    +0.000    14.924
ATOM     27  C   UNL     1      20.672  -9.372  -2.616 -0.44 -0.00    +0.000    14.924
ATOM     28  C   UNL     1      19.390  -9.947  -2.656 -0.29 -0.00    +0.000    14.924
ATOM     29  C   UNL     1      16.765 -12.768   0.385 -0.52 +0.00    +0.000    14.924
ATOM     30  H   UNL     1      17.055 -11.364  -2.036 +0.00 -0.00    +0.000    14.924
TER
ENDMDL
MODEL       15
USER    Run = 15
USER    Cluster Rank = 19
USER    Number of conformations in this cluster = 2
USER  
USER    RMSD from reference structure       = 15.458 A
USER  
USER    Estimated Free Energy of Binding    =   -9.28 kcal/mol  [=(1)+(2)+(3)-(4)]
USER    Estimated Inhibition Constant, Ki   =  156.88 nM (nanomolar)  [Temperature = 298.15 K]
USER    
USER    (1) Final Intermolecular Energy     =  -11.37 kcal/mol
USER        vdW + Hbond + desolv Energy     =  -11.37 kcal/mol
USER        Electrostatic Energy            =   +0.00 kcal/mol
USER    (2) Final Total Internal Energy     =   -1.94 kcal/mol
USER    (3) Torsional Free Energy           =   +2.09 kcal/mol
USER    (4) Unbound System's Energy  [=(2)] =   -1.94 kcal/mol
USER    
USER    
USER  
USER    DPF = ligand_dock.biased.dpf
USER    NEWDPF move	ligand.pdbqt
USER    NEWDPF about	0.576000 -0.005000 0.140000
USER    NEWDPF tran0	17.966854 -10.332771 2.014664
USER    NEWDPF axisangle0	-0.769649 0.450645 0.452282 -105.623386
USER    NEWDPF quaternion0	-0.613144 0.359008 0.360312 -0.604437
USER    NEWDPF dihe0	104.16 -172.03 -162.65 159.09 168.11 -147.36 4.32 
USER  
USER                              x       y       z    vdW   Elec        q     RMS 
ATOM      1  N   UNL     1      17.516 -10.025   2.574 -0.46 +0.00    +0.000    15.458
ATOM      2  H   UNL     1      17.127  -9.463   1.818 -0.02 -0.00    +0.000    15.458
ATOM      3  H   UNL     1      18.327  -9.571   2.997 -0.06 -0.00    +0.000    15.458
ATOM      4  C   UNL     1      17.960 -11.313   2.026 -0.50 +0.00    +0.000    15.458
ATOM      5  C   UNL     1      20.477 -10.696  -1.437 -0.45 -0.00    +0.000    15.458
ATOM      6  C   UNL     1      21.007 -10.578  -0.135 -0.62 -0.00    +0.000    15.458
ATOM      7  C   UNL     1      20.187 -10.766   0.982 -0.60 -0.00    +0.000    15.458
ATOM      8  C   UNL     1      18.828 -11.072   0.823 -0.48 -0.00    +0.000    15.458
ATOM      9  C   UNL     1      18.305 -11.224  -0.470 -0.41 -0.00    +0.000    15.458
ATOM     10  C   UNL     1      19.123 -11.037  -1.588 -0.38 -0.00    +0.000    15.458
ATOM     11  C   UNL     1      20.912 -10.899  -3.882 -0.51 -0.00    +0.000    15.458
ATOM     12  C   UNL     1      21.304 -10.519  -2.656 -0.55 -0.00    +0.000    15.458
ATOM     13  O   UNL     1      22.096  -9.556  -5.411 -0.37 -0.00    +0.000    15.458
ATOM     14  C   UNL     1      21.740 -10.722  -5.092 -0.49 -0.00    +0.000    15.458
ATOM     15  N   UNL     1      22.126 -11.822  -5.926 -0.52 -0.00    +0.000    15.458
ATOM     16  O   UNL     1      22.971 -11.623  -6.964 -0.56 -0.00    +0.000    15.458
ATOM     17  H   UNL     1      21.775 -12.724  -5.743 -0.60 -0.00    +0.000    15.458
ATOM     18  C   UNL     1      16.495 -10.184   3.620 -0.41 +0.00    +0.000    15.458
ATOM     19  C   UNL     1      15.119 -10.562   3.047 -0.46 +0.00    +0.000    15.458
ATOM     20  C   UNL     1      14.995 -10.091   1.627 -0.27 +0.00    +0.000    15.458
ATOM     21  C   UNL     1      14.845  -8.777   1.179 -0.24 +0.00    +0.000    15.458
ATOM     22  N   UNL     1      14.697  -8.744  -0.166 -0.24 -0.00    +0.000    15.458
ATOM     23  C   UNL     1      14.731 -10.025  -0.571 -0.24 +0.00    +0.000    15.458
ATOM     24  C   UNL     1      14.904 -10.876   0.493 -0.28 +0.00    +0.000    15.458
ATOM     25  C   UNL     1      14.948 -12.260   0.325 -0.44 +0.00    +0.000    15.458
ATOM     26  C   UNL     1      14.817 -12.768  -0.980 -0.38 +0.00    +0.000    15.458
ATOM     27  C   UNL     1      14.644 -11.893  -2.075 -0.27 -0.00    +0.000    15.458
ATOM     28  C   UNL     1      14.597 -10.501  -1.875 -0.27 -0.00    +0.000    15.458
ATOM     29  C   UNL     1      14.855  -7.555   2.041 -0.24 +0.00    +0.000    15.458
ATOM     30  H   UNL     1      14.586  -7.945  -0.731 -0.02 -0.00    +0.000    15.458
TER
ENDMDL
MODEL       81
USER    Run = 81
USER    Cluster Rank = 20
USER    Number of conformations in this cluster = 1
USER  
USER    RMSD from reference structure       = 15.669 A
USER  
USER    Estimated Free Energy of Binding    =   -9.26 kcal/mol  [=(1)+(2)+(3)-(4)]
USER    Estimated Inhibition Constant, Ki   =  161.90 nM (nanomolar)  [Temperature = 298.15 K]
USER    
USER    (1) Final Intermolecular Energy     =  -11.35 kcal/mol
USER        vdW + Hbond + desolv Energy     =  -11.35 kcal/mol
USER        Electrostatic Energy            =   +0.00 kcal/mol
USER    (2) Final Total Internal Energy     =   -1.93 kcal/mol
USER    (3) Torsional Free Energy           =   +2.09 kcal/mol
USER    (4) Unbound System's Energy  [=(2)] =   -1.93 kcal/mol
USER    
USER    
USER  
USER    DPF = ligand_dock.biased.dpf
USER    NEWDPF move	ligand.pdbqt
USER    NEWDPF about	0.576000 -0.005000 0.140000
USER    NEWDPF tran0	13.817538 -10.063999 -1.008094
USER    NEWDPF axisangle0	-0.559729 -0.402535 0.724340 128.569962
USER    NEWDPF quaternion0	-0.504296 -0.362669 0.652604 0.433895
USER    NEWDPF dihe0	-70.18 159.07 174.38 -97.92 -128.59 139.59 -68.83 
USER  
USER                              x       y       z    vdW   Elec        q     RMS 
ATOM      1  N   UNL     1      13.907 -10.244  -0.253 -0.21 +0.00    +0.000    15.669
ATOM      2  H   UNL     1      14.308 -11.112  -0.606 +0.00 +0.00    +0.000    15.669
ATOM      3  H   UNL     1      12.896 -10.320  -0.137 +0.00 +0.00    +0.000    15.669
ATOM      4  C   UNL     1      14.166  -9.174  -1.224 -0.23 -0.00    +0.000    15.669
ATOM      5  C   UNL     1      17.602 -10.175  -3.653 -0.23 -0.00    +0.000    15.669
ATOM      6  C   UNL     1      16.511  -9.477  -4.208 -0.19 -0.00    +0.000    15.669
ATOM      7  C   UNL     1      15.397  -9.165  -3.423 -0.18 -0.00    +0.000    15.669
ATOM      8  C   UNL     1      15.349  -9.546  -2.074 -0.22 -0.00    +0.000    15.669
ATOM      9  C   UNL     1      16.447 -10.212  -1.510 -0.20 -0.00    +0.000    15.669
ATOM     10  C   UNL     1      17.561 -10.523  -2.292 -0.20 -0.00    +0.000    15.669
ATOM     11  C   UNL     1      20.065 -10.380  -3.973 -0.43 -0.00    +0.000    15.669
ATOM     12  C   UNL     1      18.814 -10.521  -4.437 -0.35 -0.00    +0.000    15.669
ATOM     13  O   UNL     1      22.165  -9.851  -4.896 -0.41 -0.00    +0.000    15.669
ATOM     14  C   UNL     1      21.268 -10.724  -4.758 -0.51 -0.00    +0.000    15.669
ATOM     15  N   UNL     1      21.434 -12.001  -5.388 -0.53 -0.00    +0.000    15.669
ATOM     16  O   UNL     1      22.598 -12.305  -6.008 -0.72 -0.00    +0.000    15.669
ATOM     17  H   UNL     1      20.700 -12.657  -5.368 -0.57 -0.00    +0.000    15.669
ATOM     18  C   UNL     1      14.489  -9.956   1.066 -0.27 +0.00    +0.000    15.669
ATOM     19  C   UNL     1      14.947 -11.228   1.799 -0.44 +0.00    +0.000    15.669
ATOM     20  C   UNL     1      16.256 -11.710   1.242 -0.40 +0.00    +0.000    15.669
ATOM     21  C   UNL     1      16.454 -12.677   0.256 -0.47 +0.00    +0.000    15.669
ATOM     22  N   UNL     1      17.776 -12.898   0.061 -0.40 +0.00    +0.000    15.669
ATOM     23  C   UNL     1      18.415 -12.096   0.929 -0.52 -0.00    +0.000    15.669
ATOM     24  C   UNL     1      17.524 -11.362   1.671 -0.41 +0.00    +0.000    15.669
ATOM     25  C   UNL     1      17.950 -10.472   2.658 -0.47 -0.00    +0.000    15.669
ATOM     26  C   UNL     1      19.334 -10.339   2.870 -0.54 -0.00    +0.000    15.669
ATOM     27  C   UNL     1      20.251 -11.091   2.102 -0.66 -0.00    +0.000    15.669
ATOM     28  C   UNL     1      19.792 -11.985   1.118 -0.62 -0.00    +0.000    15.669
ATOM     29  C   UNL     1      15.376 -13.379  -0.507 -0.59 +0.00    +0.000    15.669
ATOM     30  H   UNL     1      18.184 -13.520  -0.585 -0.39 -0.00    +0.000    15.669
TER
ENDMDL
MODEL       16
USER    Run = 16
USER    Cluster Rank = 21
USER    Number of conformations in this cluster = 2
USER  
USER    RMSD from reference structure       = 16.009 A
USER  
USER    Estimated Free Energy of Binding    =   -9.23 kcal/mol  [=(1)+(2)+(3)-(4)]
USER    Estimated Inhibition Constant, Ki   =  171.29 nM (nanomolar)  [Temperature = 298.15 K]
USER    
USER    (1) Final Intermolecular Energy     =  -11.32 kcal/mol
USER        vdW + Hbond + desolv Energy     =  -11.32 kcal/mol
USER        Electrostatic Energy            =   +0.00 kcal/mol
USER    (2) Final Total Internal Energy     =   -1.60 kcal/mol
USER    (3) Torsional Free Energy           =   +2.09 kcal/mol
USER    (4) Unbound System's Energy  [=(2)] =   -1.60 kcal/mol
USER    
USER    
USER  
USER    DPF = ligand_dock.biased.dpf
USER    NEWDPF move	ligand.pdbqt
USER    NEWDPF about	0.576000 -0.005000 0.140000
USER    NEWDPF tran0	21.141057 -8.212907 -6.301862
USER    NEWDPF axisangle0	0.925067 -0.234681 -0.298622 178.910992
USER    NEWDPF quaternion0	0.925026 -0.234671 -0.298608 0.009503
USER    NEWDPF dihe0	-24.32 28.19 -171.47 -69.20 173.67 128.61 -151.73 
USER  
USER                              x       y       z    vdW   Elec        q     RMS 
ATOM      1  N   UNL     1      20.416  -7.969  -6.144 -0.11 -0.00    +0.000    16.009
ATOM      2  H   UNL     1      20.130  -8.703  -6.791 +0.01 -0.00    +0.000    16.009
ATOM      3  H   UNL     1      20.591  -7.089  -6.631 +0.00 -0.00    +0.000    16.009
ATOM      4  C   UNL     1      21.666  -8.374  -5.490 -0.25 -0.00    +0.000    16.009
ATOM      5  C   UNL     1      20.917  -9.582  -1.405 -0.55 -0.00    +0.000    16.009
ATOM      6  C   UNL     1      20.793 -10.508  -2.460 -0.48 -0.00    +0.000    16.009
ATOM      7  C   UNL     1      21.024 -10.111  -3.781 -0.43 -0.00    +0.000    16.009
ATOM      8  C   UNL     1      21.380  -8.787  -4.073 -0.34 -0.00    +0.000    16.009
ATOM      9  C   UNL     1      21.537  -7.871  -3.023 -0.33 -0.00    +0.000    16.009
ATOM     10  C   UNL     1      21.308  -8.265  -1.703 -0.44 -0.00    +0.000    16.009
ATOM     11  C   UNL     1      20.464 -11.207   0.430 -0.67 -0.00    +0.000    16.009
ATOM     12  C   UNL     1      20.695  -9.952   0.015 -0.65 -0.00    +0.000    16.009
ATOM     13  O   UNL     1      19.888 -12.747   2.115 -1.60 -0.00    +0.000    16.009
ATOM     14  C   UNL     1      20.242 -11.568   1.844 -0.78 -0.00    +0.000    16.009
ATOM     15  N   UNL     1      20.387 -10.621   2.910 -0.66 -0.00    +0.000    16.009
ATOM     16  O   UNL     1      20.276 -11.026   4.197 -1.05 -0.00    +0.000    16.009
ATOM     17  H   UNL     1      20.569  -9.676   2.706 -0.56 -0.00    +0.000    16.009
ATOM     18  C   UNL     1      19.330  -7.739  -5.179 -0.17 -0.00    +0.000    16.009
ATOM     19  C   UNL     1      17.938  -7.840  -5.824 -0.12 -0.00    +0.000    16.009
ATOM     20  C   UNL     1      17.262  -9.117  -5.414 -0.14 -0.00    +0.000    16.009
ATOM     21  C   UNL     1      17.456 -10.390  -5.952 -0.24 -0.00    +0.000    16.009
ATOM     22  N   UNL     1      16.620 -11.286  -5.375 -0.25 -0.00    +0.000    16.009
ATOM     23  C   UNL     1      15.885 -10.588  -4.492 -0.20 -0.00    +0.000    16.009
ATOM     24  C   UNL     1      16.242  -9.262  -4.492 -0.17 -0.00    +0.000    16.009
ATOM     25  C   UNL     1      15.601  -8.331  -3.673 -0.13 -0.00    +0.000    16.009
ATOM     26  C   UNL     1      14.574  -8.793  -2.831 -0.17 -0.00    +0.000    16.009
ATOM     27  C   UNL     1      14.211 -10.159  -2.828 -0.24 -0.00    +0.000    16.009
ATOM     28  C   UNL     1      14.870 -11.073  -3.669 -0.23 -0.00    +0.000    16.009
ATOM     29  C   UNL     1      18.450 -10.748  -7.010 -0.33 -0.00    +0.000    16.009
ATOM     30  H   UNL     1      16.563 -12.251  -5.564 -0.02 +0.00    +0.000    16.009
TER
ENDMDL
MODEL        4
USER    Run = 4
USER    Cluster Rank = 22
USER    Number of conformations in this cluster = 1
USER  
USER    RMSD from reference structure       = 16.415 A
USER  
USER    Estimated Free Energy of Binding    =   -8.88 kcal/mol  [=(1)+(2)+(3)-(4)]
USER    Estimated Inhibition Constant, Ki   =  310.50 nM (nanomolar)  [Temperature = 298.15 K]
USER    
USER    (1) Final Intermolecular Energy     =  -10.97 kcal/mol
USER        vdW + Hbond + desolv Energy     =  -10.97 kcal/mol
USER        Electrostatic Energy            =   +0.00 kcal/mol
USER    (2) Final Total Internal Energy     =   -1.83 kcal/mol
USER    (3) Torsional Free Energy           =   +2.09 kcal/mol
USER    (4) Unbound System's Energy  [=(2)] =   -1.83 kcal/mol
USER    
USER    
USER  
USER    DPF = ligand_dock.biased.dpf
USER    NEWDPF move	ligand.pdbqt
USER    NEWDPF about	0.576000 -0.005000 0.140000
USER    NEWDPF tran0	20.536367 -8.902170 -1.552431
USER    NEWDPF axisangle0	0.443226 0.046872 -0.895184 165.820911
USER    NEWDPF quaternion0	0.439837 0.046514 -0.888339 0.123420
USER    NEWDPF dihe0	84.21 179.54 174.92 130.20 -11.78 165.42 -49.13 
USER  
USER                              x       y       z    vdW   Elec        q     RMS 
ATOM      1  N   UNL     1      20.685  -9.196  -0.843 -0.53 -0.00    +0.000    16.415
ATOM      2  H   UNL     1      19.832  -9.734  -0.992 -0.02 -0.00    +0.000    16.415
ATOM      3  H   UNL     1      20.487  -8.292  -0.413 -0.04 -0.00    +0.000    16.415
ATOM      4  C   UNL     1      21.317  -8.942  -2.144 -0.52 -0.00    +0.000    16.415
ATOM      5  C   UNL     1      18.999 -10.941  -5.200 -0.36 -0.00    +0.000    16.415
ATOM      6  C   UNL     1      20.173 -11.532  -4.690 -0.46 -0.00    +0.000    16.415
ATOM      7  C   UNL     1      20.926 -10.877  -3.711 -0.44 -0.00    +0.000    16.415
ATOM      8  C   UNL     1      20.526  -9.624  -3.226 -0.41 -0.00    +0.000    16.415
ATOM      9  C   UNL     1      19.340  -9.049  -3.707 -0.21 -0.00    +0.000    16.415
ATOM     10  C   UNL     1      18.586  -9.702  -4.684 -0.23 -0.00    +0.000    16.415
ATOM     11  C   UNL     1      16.856 -11.320  -6.415 -0.35 -0.00    +0.000    16.415
ATOM     12  C   UNL     1      18.156 -11.597  -6.231 -0.32 -0.00    +0.000    16.415
ATOM     13  O   UNL     1      16.114 -11.583  -8.634 -0.27 -0.00    +0.000    16.415
ATOM     14  C   UNL     1      16.021 -11.977  -7.441 -0.38 -0.00    +0.000    16.415
ATOM     15  N   UNL     1      15.096 -13.024  -7.122 -0.34 -0.00    +0.000    16.415
ATOM     16  O   UNL     1      14.431 -13.666  -8.110 -0.46 +0.00    +0.000    16.415
ATOM     17  H   UNL     1      14.944 -13.276  -6.182 -0.03 -0.00    +0.000    16.415
ATOM     18  C   UNL     1      21.563  -9.944   0.068 -0.60 -0.00    +0.000    16.415
ATOM     19  C   UNL     1      20.937 -11.269   0.534 -0.64 -0.00    +0.000    16.415
ATOM     20  C   UNL     1      19.583 -11.025   1.134 -0.57 -0.00    +0.000    16.415
ATOM     21  C   UNL     1      19.273 -10.845   2.484 -0.59 -0.00    +0.000    16.415
ATOM     22  N   UNL     1      17.936 -10.718   2.655 -0.49 +0.00    +0.000    16.415
ATOM     23  C   UNL     1      17.395 -10.838   1.430 -0.39 +0.00    +0.000    16.415
ATOM     24  C   UNL     1      18.366 -11.033   0.479 -0.42 -0.00    +0.000    16.415
ATOM     25  C   UNL     1      18.046 -11.209  -0.868 -0.37 -0.00    +0.000    16.415
ATOM     26  C   UNL     1      16.688 -11.173  -1.232 -0.23 -0.00    +0.000    16.415
ATOM     27  C   UNL     1      15.691 -10.967  -0.253 -0.29 +0.00    +0.000    16.415
ATOM     28  C   UNL     1      16.042 -10.799   1.099 -0.32 +0.00    +0.000    16.415
ATOM     29  C   UNL     1      20.261 -10.782   3.604 -0.67 -0.00    +0.000    16.415
ATOM     30  H   UNL     1      17.458 -10.570   3.503 -0.02 +0.00    +0.000    16.415
TER
ENDMDL
MODEL       96
USER    Run = 96
USER    Cluster Rank = 23
USER    Number of conformations in this cluster = 1
USER  
USER    RMSD from reference structure       = 17.044 A
USER  
USER    Estimated Free Energy of Binding    =   -8.67 kcal/mol  [=(1)+(2)+(3)-(4)]
USER    Estimated Inhibition Constant, Ki   =  443.87 nM (nanomolar)  [Temperature = 298.15 K]
USER    
USER    (1) Final Intermolecular Energy     =  -10.75 kcal/mol
USER        vdW + Hbond + desolv Energy     =  -10.75 kcal/mol
USER        Electrostatic Energy            =   +0.00 kcal/mol
USER    (2) Final Total Internal Energy     =   -2.31 kcal/mol
USER    (3) Torsional Free Energy           =   +2.09 kcal/mol
USER    (4) Unbound System's Energy  [=(2)] =   -2.31 kcal/mol
USER    
USER    
USER  
USER    DPF = ligand_dock.biased.dpf
USER    NEWDPF move	ligand.pdbqt
USER    NEWDPF about	0.576000 -0.005000 0.140000
USER    NEWDPF tran0	21.140207 -10.943262 -6.930859
USER    NEWDPF axisangle0	0.625869 -0.725082 0.287305 -110.073509
USER    NEWDPF quaternion0	0.512912 -0.594219 0.235452 -0.573051
USER    NEWDPF dihe0	88.80 -179.94 140.04 -127.76 79.91 165.14 -37.91 
USER  
USER                              x       y       z    vdW   Elec        q     RMS 
ATOM      1  N   UNL     1      20.770 -10.924  -7.619 -0.25 -0.00    +0.000    17.044
ATOM      2  H   UNL     1      19.989 -11.327  -7.101 -0.13 -0.00    +0.000    17.044
ATOM      3  H   UNL     1      21.387 -11.648  -7.987 -0.46 -0.00    +0.000    17.044
ATOM      4  C   UNL     1      21.559 -10.086  -6.708 -0.31 -0.00    +0.000    17.044
ATOM      5  C   UNL     1      20.178 -10.691  -2.654 -0.41 -0.00    +0.000    17.044
ATOM      6  C   UNL     1      19.482 -11.259  -3.740 -0.38 -0.00    +0.000    17.044
ATOM      7  C   UNL     1      19.925 -11.051  -5.050 -0.42 -0.00    +0.000    17.044
ATOM      8  C   UNL     1      21.064 -10.273  -5.300 -0.36 -0.00    +0.000    17.044
ATOM      9  C   UNL     1      21.778  -9.734  -4.220 -0.32 -0.00    +0.000    17.044
ATOM     10  C   UNL     1      21.338  -9.941  -2.911 -0.47 -0.00    +0.000    17.044
ATOM     11  C   UNL     1      20.589 -10.758  -0.196 -0.65 -0.00    +0.000    17.044
ATOM     12  C   UNL     1      19.760 -10.889  -1.243 -0.49 -0.00    +0.000    17.044
ATOM     13  O   UNL     1      19.468 -10.067   1.755 -0.64 -0.00    +0.000    17.044
ATOM     14  C   UNL     1      20.168 -10.958   1.205 -0.70 -0.00    +0.000    17.044
ATOM     15  N   UNL     1      20.549 -12.114   1.963 -0.72 -0.00    +0.000    17.044
ATOM     16  O   UNL     1      20.052 -12.302   3.208 -1.55 -0.00    +0.000    17.044
ATOM     17  H   UNL     1      21.173 -12.770   1.578 -0.58 -0.00    +0.000    17.044
ATOM     18  C   UNL     1      20.238 -10.164  -8.760 -0.20 -0.00    +0.000    17.044
ATOM     19  C   UNL     1      18.705 -10.229  -8.849 -0.13 -0.00    +0.000    17.044
ATOM     20  C   UNL     1      18.090  -9.945  -7.509 -0.19 -0.00    +0.000    17.044
ATOM     21  C   UNL     1      17.124 -10.700  -6.841 -0.27 -0.00    +0.000    17.044
ATOM     22  N   UNL     1      16.760 -10.097  -5.685 -0.18 -0.00    +0.000    17.044
ATOM     23  C   UNL     1      17.470  -8.957  -5.625 -0.13 -0.00    +0.000    17.044
ATOM     24  C   UNL     1      18.286  -8.826  -6.721 -0.10 -0.00    +0.000    17.044
ATOM     25  C   UNL     1      19.105  -7.709  -6.895 -0.06 -0.00    +0.000    17.044
ATOM     26  C   UNL     1      19.079  -6.714  -5.902 -0.09 -0.00    +0.000    17.044
ATOM     27  C   UNL     1      18.242  -6.852  -4.772 -0.05 -0.00    +0.000    17.044
ATOM     28  C   UNL     1      17.423  -7.986  -4.626 -0.12 -0.00    +0.000    17.044
ATOM     29  C   UNL     1      16.561 -12.005  -7.307 -0.37 -0.00    +0.000    17.044
ATOM     30  H   UNL     1      16.108 -10.426  -5.024 -0.00 -0.00    +0.000    17.044
TER
ENDMDL
MODEL       30
USER    Run = 30
USER    Cluster Rank = 24
USER    Number of conformations in this cluster = 1
USER  
USER    RMSD from reference structure       = 14.353 A
USER  
USER    Estimated Free Energy of Binding    =   -8.59 kcal/mol  [=(1)+(2)+(3)-(4)]
USER    Estimated Inhibition Constant, Ki   =  503.25 nM (nanomolar)  [Temperature = 298.15 K]
USER    
USER    (1) Final Intermolecular Energy     =  -10.68 kcal/mol
USER        vdW + Hbond + desolv Energy     =  -10.68 kcal/mol
USER        Electrostatic Energy            =   +0.00 kcal/mol
USER    (2) Final Total Internal Energy     =   -1.51 kcal/mol
USER    (3) Torsional Free Energy           =   +2.09 kcal/mol
USER    (4) Unbound System's Energy  [=(2)] =   -1.51 kcal/mol
USER    
USER    
USER  
USER    DPF = ligand_dock.biased.dpf
USER    NEWDPF move	ligand.pdbqt
USER    NEWDPF about	0.576000 -0.005000 0.140000
USER    NEWDPF tran0	14.982861 -11.785813 -1.101839
USER    NEWDPF axisangle0	-0.179206 0.960272 0.213923 173.460095
USER    NEWDPF quaternion0	-0.178914 0.958708 0.213575 0.057040
USER    NEWDPF dihe0	-62.16 118.34 135.21 39.47 -53.87 15.30 -91.54 
USER  
USER                              x       y       z    vdW   Elec        q     RMS 
ATOM      1  N   UNL     1      15.546 -11.304  -1.349 -0.30 +0.00    +0.000    14.353
ATOM      2  H   UNL     1      14.778 -10.664  -1.549 -0.00 -0.00    +0.000    14.353
ATOM      3  H   UNL     1      15.739 -11.915  -2.143 +0.00 +0.00    +0.000    14.353
ATOM      4  C   UNL     1      15.169 -12.154  -0.213 -0.49 +0.00    +0.000    14.353
ATOM      5  C   UNL     1      13.479  -9.660   2.891 -0.24 +0.00    +0.000    14.353
ATOM      6  C   UNL     1      14.329 -10.735   3.219 -0.37 +0.00    +0.000    14.353
ATOM      7  C   UNL     1      14.865 -11.547   2.214 -0.43 +0.00    +0.000    14.353
ATOM      8  C   UNL     1      14.560 -11.303   0.867 -0.35 +0.00    +0.000    14.353
ATOM      9  C   UNL     1      13.742 -10.214   0.535 -0.21 +0.00    +0.000    14.353
ATOM     10  C   UNL     1      13.207  -9.401   1.537 -0.16 +0.00    +0.000    14.353
ATOM     11  C   UNL     1      13.432  -7.582   4.266 -0.28 +0.00    +0.000    14.353
ATOM     12  C   UNL     1      12.894  -8.760   3.916 -0.27 +0.00    +0.000    14.353
ATOM     13  O   UNL     1      13.611  -6.182   6.151 -0.99 +0.00    +0.000    14.353
ATOM     14  C   UNL     1      12.846  -6.691   5.288 -0.32 +0.00    +0.000    14.353
ATOM     15  N   UNL     1      11.442  -6.411   5.348 -0.25 +0.00    +0.000    14.353
ATOM     16  O   UNL     1      10.968  -5.508   6.237 -0.28 +0.00    +0.000    14.353
ATOM     17  H   UNL     1      10.822  -6.877   4.742 +0.00 +0.00    +0.000    14.353
ATOM     18  C   UNL     1      16.760 -10.518  -1.082 -0.30 -0.00    +0.000    14.353
ATOM     19  C   UNL     1      18.046 -11.272  -1.459 -0.27 -0.00    +0.000    14.353
ATOM     20  C   UNL     1      19.149 -10.940  -0.497 -0.45 -0.00    +0.000    14.353
ATOM     21  C   UNL     1      20.472 -10.615  -0.803 -0.53 -0.00    +0.000    14.353
ATOM     22  N   UNL     1      21.197 -10.444   0.328 -0.65 -0.00    +0.000    14.353
ATOM     23  C   UNL     1      20.350 -10.678   1.346 -0.60 -0.00    +0.000    14.353
ATOM     24  C   UNL     1      19.096 -10.990   0.883 -0.51 -0.00    +0.000    14.353
ATOM     25  C   UNL     1      18.049 -11.297   1.754 -0.45 -0.00    +0.000    14.353
ATOM     26  C   UNL     1      18.314 -11.270   3.135 -0.33 +0.00    +0.000    14.353
ATOM     27  C   UNL     1      19.603 -10.944   3.610 -0.51 -0.00    +0.000    14.353
ATOM     28  C   UNL     1      20.641 -10.645   2.709 -0.39 -0.00    +0.000    14.353
ATOM     29  C   UNL     1      21.036 -10.458  -2.179 -0.57 -0.00    +0.000    14.353
ATOM     30  H   UNL     1      22.148 -10.199   0.392 -0.18 -0.00    +0.000    14.353
TER
ENDMDL
MODEL       74
USER    Run = 74
USER    Cluster Rank = 25
USER    Number of conformations in this cluster = 1
USER  
USER    RMSD from reference structure       = 15.760 A
USER  
USER    Estimated Free Energy of Binding    =   -8.58 kcal/mol  [=(1)+(2)+(3)-(4)]
USER    Estimated Inhibition Constant, Ki   =  515.90 nM (nanomolar)  [Temperature = 298.15 K]
USER    
USER    (1) Final Intermolecular Energy     =  -10.67 kcal/mol
USER        vdW + Hbond + desolv Energy     =  -10.67 kcal/mol
USER        Electrostatic Energy            =   +0.00 kcal/mol
USER    (2) Final Total Internal Energy     =   -1.40 kcal/mol
USER    (3) Torsional Free Energy           =   +2.09 kcal/mol
USER    (4) Unbound System's Energy  [=(2)] =   -1.40 kcal/mol
USER    
USER    
USER  
USER    DPF = ligand_dock.biased.dpf
USER    NEWDPF move	ligand.pdbqt
USER    NEWDPF about	0.576000 -0.005000 0.140000
USER    NEWDPF tran0	14.552153 -10.470151 1.354676
USER    NEWDPF axisangle0	-0.205774 0.170767 -0.963585 170.031226
USER    NEWDPF quaternion0	-0.204996 0.170121 -0.959941 0.086884
USER    NEWDPF dihe0	-180.00 -162.59 49.90 47.86 -4.60 116.90 -158.12 
USER  
USER                              x       y       z    vdW   Elec        q     RMS 
ATOM      1  N   UNL     1      15.274 -10.762   1.282 -0.29 +0.00    +0.000    15.760
ATOM      2  H   UNL     1      14.891 -11.572   1.769 -0.01 +0.00    +0.000    15.760
ATOM      3  H   UNL     1      15.635 -10.069   1.938 +0.00 +0.00    +0.000    15.760
ATOM      4  C   UNL     1      14.201 -10.127   0.506 -0.25 +0.00    +0.000    15.760
ATOM      5  C   UNL     1      15.053 -10.668  -3.699 -0.24 -0.00    +0.000    15.760
ATOM      6  C   UNL     1      15.504  -9.519  -3.019 -0.21 -0.00    +0.000    15.760
ATOM      7  C   UNL     1      15.217  -9.342  -1.662 -0.20 -0.00    +0.000    15.760
ATOM      8  C   UNL     1      14.473 -10.303  -0.962 -0.25 +0.00    +0.000    15.760
ATOM      9  C   UNL     1      14.052 -11.463  -1.627 -0.33 +0.00    +0.000    15.760
ATOM     10  C   UNL     1      14.339 -11.643  -2.982 -0.24 -0.00    +0.000    15.760
ATOM     11  C   UNL     1      15.012 -12.045  -5.777 -0.27 -0.00    +0.000    15.760
ATOM     12  C   UNL     1      15.341 -10.913  -5.135 -0.27 -0.00    +0.000    15.760
ATOM     13  O   UNL     1      16.150 -11.548  -7.777 -0.33 -0.00    +0.000    15.760
ATOM     14  C   UNL     1      15.302 -12.283  -7.205 -0.37 -0.00    +0.000    15.760
ATOM     15  N   UNL     1      14.635 -13.300  -7.964 -0.41 +0.00    +0.000    15.760
ATOM     16  O   UNL     1      15.010 -13.549  -9.241 -0.40 +0.00    +0.000    15.760
ATOM     17  H   UNL     1      13.903 -13.816  -7.557 -0.03 +0.00    +0.000    15.760
ATOM     18  C   UNL     1      16.391 -11.204   0.434 -0.40 +0.00    +0.000    15.760
ATOM     19  C   UNL     1      17.399 -12.080   1.196 -0.48 +0.00    +0.000    15.760
ATOM     20  C   UNL     1      18.805 -11.677   0.856 -0.52 -0.00    +0.000    15.760
ATOM     21  C   UNL     1      19.895 -11.591   1.723 -0.66 -0.00    +0.000    15.760
ATOM     22  N   UNL     1      20.988 -11.127   1.072 -0.66 -0.00    +0.000    15.760
ATOM     23  C   UNL     1      20.594 -10.898  -0.193 -0.57 -0.00    +0.000    15.760
ATOM     24  C   UNL     1      19.269 -11.214  -0.361 -0.47 -0.00    +0.000    15.760
ATOM     25  C   UNL     1      18.624 -11.039  -1.586 -0.35 -0.00    +0.000    15.760
ATOM     26  C   UNL     1      19.378 -10.532  -2.659 -0.38 -0.00    +0.000    15.760
ATOM     27  C   UNL     1      20.743 -10.212  -2.486 -0.49 -0.00    +0.000    15.760
ATOM     28  C   UNL     1      21.365 -10.393  -1.238 -0.58 -0.00    +0.000    15.760
ATOM     29  C   UNL     1      19.891 -11.966   3.170 -0.68 -0.00    +0.000    15.760
ATOM     30  H   UNL     1      21.887 -10.986   1.448 -0.35 -0.00    +0.000    15.760
TER
ENDMDL


AVSFLD: # AVS field file
AVSFLD: #
AVSFLD: # Created by AutoDock
AVSFLD: #
AVSFLD: ndim=2           # number of dimensions in the field
AVSFLD: nspace=1         # number of physical coordinates
AVSFLD: veclen=7         # vector size
AVSFLD: dim1=30          # atoms
AVSFLD: dim2=25          # conformations
AVSFLD: data=Real       # data type (byte,integer,Real,double)
AVSFLD: field=uniform    # field coordinate layout
AVSFLD: label= x y z vdW Elec q RMS
AVSFLD: variable 1 file = ligand_dock.biased.dlg.pdb filetype = ascii offset = 5 stride = 12
AVSFLD: variable 2 file = ligand_dock.biased.dlg.pdb filetype = ascii offset = 6 stride = 12
AVSFLD: variable 3 file = ligand_dock.biased.dlg.pdb filetype = ascii offset = 7 stride = 12
AVSFLD: variable 4 file = ligand_dock.biased.dlg.pdb filetype = ascii offset = 8 stride = 12
AVSFLD: variable 5 file = ligand_dock.biased.dlg.pdb filetype = ascii offset = 9 stride = 12
AVSFLD: variable 6 file = ligand_dock.biased.dlg.pdb filetype = ascii offset = 10 stride = 12
AVSFLD: variable 7 file = ligand_dock.biased.dlg.pdb filetype = ascii offset = 11 stride = 12
AVSFLD: # end of file

>>> Closing the docking parameter file (DPF)...
This docking finished at:			5:20 38" p.m., 11/03/2024


________________________________________________________________________________

autodock4: Successful Completion on "ThinkStation-P620"

Real= 14m 17.02s,  CPU= 14m 14.34s,  System= 0.19s
________________________________________________________________________________

