REMARK  Name = 
REMARK  7 active torsions:
REMARK  status: ('A' for Active; 'I' for Inactive)
REMARK    1  A    between atoms: C_2  and  C_5
REMARK    2  A    between atoms: N_3  and  O_4
REMARK    3  A    between atoms: C_5  and  C_6
REMARK    4  A    between atoms: C_6  and  C_7
REMARK    5  A    between atoms: C_7  and  C_8
REMARK    6  A    between atoms: C_8  and  C_9
REMARK    7  A    between atoms: C_9  and  N_10
REMARK                            x       y       z     vdW  Elec       q    Type
REMARK                         _______ _______ _______ _____ _____    ______ ____
ROOT
ATOM      1  N   UNL     1      -0.453  -0.757  -1.218  0.00  0.00    +0.000 N 
ATOM      2  C   UNL     1      -1.159   0.211  -2.019  0.00  0.00    +0.000 C 
ATOM      3  C   UNL     1      -2.501   0.680  -1.605  0.00  0.00    +0.000 A 
ATOM      4  C   UNL     1      -3.187   1.643  -2.366  0.00  0.00    +0.000 A 
ATOM      5  C   UNL     1      -4.451   2.087  -1.974  0.00  0.00    +0.000 A 
ATOM      6  C   UNL     1      -5.049   1.580  -0.821  0.00  0.00    +0.000 A 
ATOM      7  C   UNL     1      -4.386   0.619  -0.046  0.00  0.00    +0.000 A 
ATOM      8  C   UNL     1      -4.988   0.108   1.112  0.00  0.00    +0.000 A 
ATOM      9  C   UNL     1      -4.328  -0.849   1.883  0.00  0.00    +0.000 A 
ATOM     10  C   UNL     1      -3.064  -1.306   1.507  0.00  0.00    +0.000 A 
ATOM     11  C   UNL     1      -2.439  -0.809   0.350  0.00  0.00    +0.000 A 
ATOM     12  C   UNL     1      -3.100   0.161  -0.436  0.00  0.00    +0.000 A 
ATOM     13  O   UNL     1      -0.636   0.658  -3.077  0.00  0.00    +0.000 OA
ATOM     14  C   UNL     1      -1.097  -1.295  -0.046  0.00  0.00    +0.000 C 
ATOM     15  O   UNL     1      -0.522  -2.180   0.644  0.00  0.00    +0.000 OA
ENDROOT
BRANCH   1  16
ATOM     16  C   UNL     1       0.918  -1.157  -1.581  0.00  0.00    +0.000 C 
BRANCH  16  17
ATOM     17  C   UNL     1       1.941  -0.071  -1.203  0.00  0.00    +0.000 C 
BRANCH  17  18
ATOM     18  C   UNL     1       2.047   0.197   0.310  0.00  0.00    +0.000 C 
BRANCH  18  19
ATOM     19  C   UNL     1       2.674  -0.952   1.128  0.00  0.00    +0.000 C 
BRANCH  19  20
ATOM     20  C   UNL     1       4.156  -1.219   0.819  0.00  0.00    +0.000 C 
BRANCH  20  22
ATOM     21  O   UNL     1       5.334   0.200   2.339  0.00  0.00    +0.000 OA
ATOM     22  C   UNL     1       5.021  -0.035   1.141  0.00  0.00    +0.000 C 
ATOM     23  N   UNL     1       5.461   0.844   0.103  0.00  0.00    +0.000 N 
ATOM     24  H   UNL     1       5.208   0.662  -0.831  0.00  0.00    +0.000 HD
BRANCH  23  25
ATOM     25  O   UNL     1       6.224   1.925   0.394  0.00  0.00    +0.000 OA
ATOM     26  H   UNL     1       6.383   1.961   1.350  0.00  0.00    +0.000 HD
ENDBRANCH  23  25
ENDBRANCH  20  22
ENDBRANCH  19  20
ENDBRANCH  18  19
ENDBRANCH  17  18
ENDBRANCH  16  17
ENDBRANCH   1  16
TORSDOF 7
