          AutoDock 4.2 Release 4.2.6   
         (C) 1989-2012 The Scripps Research Institute
        AutoDock comes with ABSOLUTELY NO WARRANTY.
        AutoDock is free software, and you are welcome
        to redistribute it under certain conditions;
        for details type 'autodock4 -C'

                     main.cc  $Revision: 1.213 $

                   Compiled on Feb 20 2022 at 09:48:33


This file was created at:			10:03 16" a.m., 11/08/2024
                   on host:		"ThinkStation-P620"
Current Working Directory = "/home/antonio/Documenti/buccheri/IDROSSAMICO HDAC/HDAC 2/P/Ligand_6"

      ________________________________________________________________

                   SETTING UP DEFAULT PARAMETER LIBRARY
      ________________________________________________________________


Random number generator was seeded with values 328174, 1731056596.
Docking parameter file (DPF) used for this docking:		ligand_dock.biased.dpf
DPF> autodock_parameter_version 4.2       # used by autodock to validate parameter set

	Autodock parameter version 4.2.
DPF> outlev 1                             # diagnostic output level

Output Level = 1  ADT-COMPATIBLE OUTPUT DURING DOCKING.
DPF> intelec                              # calculate internal electrostatics

Electrostatic energies will be calculated for all non-bonds between moving atoms.
DPF> seed pid time                        # seeds for random generator

Random number generator was seeded with values 328174, 1731056596.
DPF> ligand_types A C HD OA N             # atoms types in ligand

DPF> fld receptor.maps.fld                # grid_data_file

Opening Grid Map Dimensions file:		receptor.maps.fld
Grid Point Spacing =				0.375 Angstroms

Even Number of User-specified Grid Points =	70 x-points
						70 y-points
						70 z-points

Coordinates of Central Grid Point of Maps =	(24.757, -16.735, 0.794)
Macromolecule file used to create Grid Maps =	receptor.pdbqt
Grid Parameter file used to create Grid Maps =	receptor.gpf
Minimum coordinates in grid = (11.632, -29.860, -12.331)
Maximum coordinates in grid = (37.882, -3.610, 13.919)

DPF> map receptor.A.map                   # atom-specific affinity map

DPF> map receptor.C.map                   # atom-specific affinity map

DPF> map receptor.HD.biased.map

DPF> map receptor.OA.biased.map

DPF> map receptor.N.map                   # atom-specific affinity map

DPF> elecmap receptor.e.map               # electrostatics map

DPF> desolvmap receptor.d.map             # desolvation map

DPF> move ligand.pdbqt                    # small molecule

1,4-interactions will be _ignored_ in the non-bonded internal energy calculation.

Ligand PDBQT file = "ligand.pdbqt"

INPUT LIGAND PDBQT FILE:
________________________

INPUT-LIGAND-PDBQT: REMARK  Name = 
INPUT-LIGAND-PDBQT: REMARK  7 active torsions:
INPUT-LIGAND-PDBQT: REMARK  status: ('A' for Active; 'I' for Inactive)
INPUT-LIGAND-PDBQT: REMARK    1  A    between atoms: C_2  and  C_5
INPUT-LIGAND-PDBQT: REMARK    2  A    between atoms: N_3  and  O_4
INPUT-LIGAND-PDBQT: REMARK    3  A    between atoms: C_5  and  C_6
INPUT-LIGAND-PDBQT: REMARK    4  A    between atoms: C_6  and  C_7
INPUT-LIGAND-PDBQT: REMARK    5  A    between atoms: C_7  and  C_8
INPUT-LIGAND-PDBQT: REMARK    6  A    between atoms: C_8  and  C_9
INPUT-LIGAND-PDBQT: REMARK    7  A    between atoms: C_9  and  N_10
INPUT-LIGAND-PDBQT: REMARK                            x       y       z     vdW  Elec       q    Type
INPUT-LIGAND-PDBQT: REMARK                         _______ _______ _______ _____ _____    ______ ____
INPUT-LIGAND-PDBQT: ROOT
INPUT-LIGAND-PDBQT: ATOM      1  N   UNL     1      -0.453  -0.757  -1.218  0.00  0.00    +0.000 N 
INPUT-LIGAND-PDBQT: ATOM      2  C   UNL     1      -1.159   0.211  -2.019  0.00  0.00    +0.000 C 
INPUT-LIGAND-PDBQT: ATOM      3  C   UNL     1      -2.501   0.680  -1.605  0.00  0.00    +0.000 A 
INPUT-LIGAND-PDBQT: ATOM      4  C   UNL     1      -3.187   1.643  -2.366  0.00  0.00    +0.000 A 
INPUT-LIGAND-PDBQT: ATOM      5  C   UNL     1      -4.451   2.087  -1.974  0.00  0.00    +0.000 A 
INPUT-LIGAND-PDBQT: ATOM      6  C   UNL     1      -5.049   1.580  -0.821  0.00  0.00    +0.000 A 
INPUT-LIGAND-PDBQT: ATOM      7  C   UNL     1      -4.386   0.619  -0.046  0.00  0.00    +0.000 A 
INPUT-LIGAND-PDBQT: ATOM      8  C   UNL     1      -4.988   0.108   1.112  0.00  0.00    +0.000 A 
INPUT-LIGAND-PDBQT: ATOM      9  C   UNL     1      -4.328  -0.849   1.883  0.00  0.00    +0.000 A 
INPUT-LIGAND-PDBQT: ATOM     10  C   UNL     1      -3.064  -1.306   1.507  0.00  0.00    +0.000 A 
INPUT-LIGAND-PDBQT: ATOM     11  C   UNL     1      -2.439  -0.809   0.350  0.00  0.00    +0.000 A 
INPUT-LIGAND-PDBQT: ATOM     12  C   UNL     1      -3.100   0.161  -0.436  0.00  0.00    +0.000 A 
INPUT-LIGAND-PDBQT: ATOM     13  O   UNL     1      -0.636   0.658  -3.077  0.00  0.00    +0.000 OA
INPUT-LIGAND-PDBQT: ATOM     14  C   UNL     1      -1.097  -1.295  -0.046  0.00  0.00    +0.000 C 
INPUT-LIGAND-PDBQT: ATOM     15  O   UNL     1      -0.522  -2.180   0.644  0.00  0.00    +0.000 OA
INPUT-LIGAND-PDBQT: ENDROOT
INPUT-LIGAND-PDBQT: BRANCH   1  16
INPUT-LIGAND-PDBQT: ATOM     16  C   UNL     1       0.918  -1.157  -1.581  0.00  0.00    +0.000 C 
INPUT-LIGAND-PDBQT: BRANCH  16  17
INPUT-LIGAND-PDBQT: ATOM     17  C   UNL     1       1.941  -0.071  -1.203  0.00  0.00    +0.000 C 
INPUT-LIGAND-PDBQT: BRANCH  17  18
INPUT-LIGAND-PDBQT: ATOM     18  C   UNL     1       2.047   0.197   0.310  0.00  0.00    +0.000 C 
INPUT-LIGAND-PDBQT: BRANCH  18  19
INPUT-LIGAND-PDBQT: ATOM     19  C   UNL     1       2.674  -0.952   1.128  0.00  0.00    +0.000 C 
INPUT-LIGAND-PDBQT: BRANCH  19  20
INPUT-LIGAND-PDBQT: ATOM     20  C   UNL     1       4.156  -1.219   0.819  0.00  0.00    +0.000 C 
INPUT-LIGAND-PDBQT: BRANCH  20  22
INPUT-LIGAND-PDBQT: ATOM     21  O   UNL     1       5.334   0.200   2.339  0.00  0.00    +0.000 OA
INPUT-LIGAND-PDBQT: ATOM     22  C   UNL     1       5.021  -0.035   1.141  0.00  0.00    +0.000 C 
INPUT-LIGAND-PDBQT: ATOM     23  N   UNL     1       5.461   0.844   0.103  0.00  0.00    +0.000 N 
INPUT-LIGAND-PDBQT: ATOM     24  H   UNL     1       5.208   0.662  -0.831  0.00  0.00    +0.000 HD
INPUT-LIGAND-PDBQT: BRANCH  23  25
INPUT-LIGAND-PDBQT: ATOM     25  O   UNL     1       6.224   1.925   0.394  0.00  0.00    +0.000 OA
INPUT-LIGAND-PDBQT: ATOM     26  H   UNL     1       6.383   1.961   1.350  0.00  0.00    +0.000 HD
INPUT-LIGAND-PDBQT: ENDBRANCH  23  25
INPUT-LIGAND-PDBQT: ENDBRANCH  20  22
INPUT-LIGAND-PDBQT: ENDBRANCH  19  20
INPUT-LIGAND-PDBQT: ENDBRANCH  18  19
INPUT-LIGAND-PDBQT: ENDBRANCH  17  18
INPUT-LIGAND-PDBQT: ENDBRANCH  16  17
INPUT-LIGAND-PDBQT: ENDBRANCH   1  16
INPUT-LIGAND-PDBQT: TORSDOF 7
________________________________________________________________________________

Total charge on ligand                               =	+0.000 e
REMARK  Name = 
REMARK  7 active torsions:
REMARK  status: ('A' for Active; 'I' for Inactive)
REMARK    1  A    between atoms: C_2  and  C_5
REMARK    2  A    between atoms: N_3  and  O_4
REMARK    3  A    between atoms: C_5  and  C_6
REMARK    4  A    between atoms: C_6  and  C_7
REMARK    5  A    between atoms: C_7  and  C_8
REMARK    6  A    between atoms: C_8  and  C_9
REMARK    7  A    between atoms: C_9  and  N_10
REMARK                            x       y       z     vdW  Elec       q    Type
REMARK                         _______ _______ _______ _____ _____    ______ ____


Number of Rotatable Bonds in Small Molecule =	7 torsions
Number of atoms in ligand:  26

Number of non-hydrogen atoms in ligand:  24

Number of vibrational degrees of freedom of ligand:  72


Number of torsional degrees of freedom = 7
Estimated loss of torsional free energy upon binding = +2.0881 kcal/mol


DPF> about 0.154 0.112 -0.159            # small molecule center

Small molecule center of rotation =	(+0.154, +0.112, -0.159)

DPF> tran0 random                         # initial coordinates/A or random

Initial translation =			(34.149, -15.141, -9.409) Angstroms
DPF> quaternion0 random                   # initial orientation

Each run will begin with a new, random initial orientation.
Initial quaternion,  (x,y,z,w) =	( 0.460, -0.538, -0.122, 0.696 ),
DPF> dihe0 random                         # initial dihedrals (relative) or random

DPF> torsdof 7                            # torsional degrees of freedom

Number of torsional degrees of freedom = 7
Free energy coefficient for torsional degrees of freedom = 0.2983, the factory default value.

Estimated loss of torsional free energy upon binding = +2.0881 kcal/mol

DPF> rmstol 2.0                           # cluster_tolerance/A

Maximum RMS tolerance for conformational cluster analysis = 2.00 Angstroms
DPF> extnrg 1000.0                        # external grid energy

External grid energy (beyond grid map walls) = 1000.00

DPF> e0max 0.0 10000                      # max initial energy; max number of retries

Using user-specified maximum number of retries for simanneal initialization, 10000 retries.
If the simanneal initial energy is greater than e0max, 0.000,
then a new, random initial state will be created.

DPF> ga_pop_size 150                      # number of individuals in population

A population of 150 individuals will be used
DPF> ga_num_evals 2500000                 # maximum number of energy evaluations

There will be at most 2500000 function evaluations used.
DPF> ga_num_generations 27000             # maximum number of generations

The GA will run for at most 27000 generations.
DPF> ga_elitism 1                         # number of top individuals to survive to next generation

The 1 best will be preserved each GA generation.
DPF> ga_mutation_rate 0.02                # rate of gene mutation

The mutation rate is 0.020000.
DPF> ga_crossover_rate 0.8                # rate of crossover

The crossover rate is 0.800000.
DPF> ga_window_size 10                    # 

The GA's selection window is 10 generations.
DPF> ga_cauchy_alpha 0.0                  # Alpha parameter of Cauchy distribution

The alpha parameter (for the Cauchy distribution) is being set to 0.000000.
DPF> ga_cauchy_beta 1.0                   # Beta parameter Cauchy distribution

The beta parameter (for the Cauchy distribution) is being set to 1.000000.
DPF> set_ga                               # set the above parameters for GA or LGA

DPF> sw_max_its 300                       # iterations of Solis & Wets local search

Solis & Wets algorithms will perform at most 300 iterations.
DPF> sw_max_succ 4                        # consecutive successes before changing rho

Solis & Wets algorithms expand rho every 4 in a row successes.
DPF> sw_max_fail 4                        # consecutive failures before changing rho

Solis & Wets algorithms contract rho every 4 in a row failures.
DPF> sw_rho 1.0                           # size of local search space to sample

rho is set to 1.000000.
DPF> sw_lb_rho 0.01                       # lower bound on rho

rho will never get smaller than 0.010000.
DPF> ls_search_freq 0.06                  # probability of performing local search on individual

Local search will be performed with frequency 0.060000.
DPF> set_psw1                             # set the above pseudo-Solis & Wets parameters

Creating a new Local Search object using the pseudo-Solis-Wets algorithm (pSW1) with the current settings.

DPF> unbound_model bound                  # state of unbound ligand

DPF> ga_run 100

centering ligand on specified point: 0.154 0.112 -0.159
Furthest true ligand atom from "about" center is 6.671 Angstroms (maxrad).
Number of requested GA dockings = 100 runs
Unbound model to be used is 'same as bound' [AutoDock 4.2 default].

	BEGINNING GENETIC ALGORITHM DOCKING 1 of 100
Run: 1 Seed: 122484679 456078854 [ Run 1 of 100 GA/GALS ]
Beginning LAMARCKIAN GENETIC ALGORITHM (LGA), with a maximum of 2500000 energy evaluations.

Final-Value: -14.253


	FINAL GENETIC ALGORITHM DOCKED STATE
	_______________________________________________


Detailed state:  trans 27.977 -15.368 -0.898 quatxyzw -0.372841 -0.627483 -0.449453 -0.515020 center 0.154 0.112 -0.159 ntor 7 17.4505 160.3300 120.4073 104.0073 56.4878 165.6572 -171.8108
State:	 27.977 -15.368  -0.898  -0.435 -0.732 -0.524 -118.002     17.45  160.33  120.41  104.01   56.49  165.66 -171.81

DOCKED: MODEL        1
DOCKED: USER    Run = 1
DOCKED: USER    DPF = ligand_dock.biased.dpf
DOCKED: USER  
DOCKED: USER    Estimated Free Energy of Binding    =  -11.00 kcal/mol  [=(1)+(2)+(3)-(4)]
DOCKED: USER    Estimated Inhibition Constant, Ki   =    8.71 nM (nanomolar)  [Temperature = 298.15 K]
DOCKED: USER    
DOCKED: USER    (1) Final Intermolecular Energy     =  -13.08 kcal/mol
DOCKED: USER        vdW + Hbond + desolv Energy     =  -13.08 kcal/mol
DOCKED: USER        Electrostatic Energy            =   +0.00 kcal/mol
DOCKED: USER    (2) Final Total Internal Energy     =   -1.17 kcal/mol
DOCKED: USER    (3) Torsional Free Energy           =   +2.09 kcal/mol
DOCKED: USER    (4) Unbound System's Energy  [=(2)] =   -1.17 kcal/mol
DOCKED: USER    
DOCKED: USER    
DOCKED: USER    NEWDPF move ligand.pdbqt
DOCKED: USER    NEWDPF about 0.154000 0.112000 -0.159000
DOCKED: USER    NEWDPF tran0 27.977239 -15.367595 -0.898176
DOCKED: USER    NEWDPF quaternion0 -0.372841 -0.627483 -0.449453 -0.515020
DOCKED: USER    NEWDPF axisangle0 -0.434963 -0.732034 -0.524341 -118.002366
DOCKED: USER    NEWDPF quat0 -0.434963 -0.732034 -0.524341 -118.002366
DOCKED: USER    NEWDPF dihe0 17.45 160.33 120.41 104.01 56.49 165.66 -171.81 
DOCKED: USER  keepresnum = 1 
DOCKED: USER  
DOCKED: REMARK  Name = 
DOCKED: REMARK  7 active torsions:
DOCKED: REMARK  status: ('A' for Active; 'I' for Inactive)
DOCKED: REMARK    1  A    between atoms: C_2  and  C_5
DOCKED: REMARK    2  A    between atoms: N_3  and  O_4
DOCKED: REMARK    3  A    between atoms: C_5  and  C_6
DOCKED: REMARK    4  A    between atoms: C_6  and  C_7
DOCKED: REMARK    5  A    between atoms: C_7  and  C_8
DOCKED: REMARK    6  A    between atoms: C_8  and  C_9
DOCKED: REMARK    7  A    between atoms: C_9  and  N_10
DOCKED: REMARK                            x       y       z     vdW  Elec       q    Type
DOCKED: REMARK                         _______ _______ _______ _____ _____    ______ ____
DOCKED: USER                              x       y       z     vdW  Elec       q    Type
DOCKED: USER                           _______ _______ _______ _____ _____    ______ ____
DOCKED: ROOT
DOCKED: ATOM      1  N   UNL     1      27.614 -16.651  -1.581 -0.34 -0.00    +0.000 N 
DOCKED: ATOM      2  C   UNL     1      28.900 -17.106  -2.047 -0.25 -0.00    +0.000 C 
DOCKED: ATOM      3  C   UNL     1      29.464 -16.571  -3.307 -0.21 -0.00    +0.000 A 
DOCKED: ATOM      4  C   UNL     1      30.729 -16.990  -3.757 -0.16 -0.00    +0.000 A 
DOCKED: ATOM      5  C   UNL     1      31.262 -16.483  -4.944 -0.12 -0.00    +0.000 A 
DOCKED: ATOM      6  C   UNL     1      30.546 -15.554  -5.697 -0.19 -0.00    +0.000 A 
DOCKED: ATOM      7  C   UNL     1      29.283 -15.122  -5.270 -0.26 -0.00    +0.000 A 
DOCKED: ATOM      8  C   UNL     1      28.563 -14.189  -6.029 -0.31 -0.00    +0.000 A 
DOCKED: ATOM      9  C   UNL     1      27.305 -13.759  -5.604 -0.14 -0.00    +0.000 A 
DOCKED: ATOM     10  C   UNL     1      26.755 -14.255  -4.421 -0.39 -0.00    +0.000 A 
DOCKED: ATOM     11  C   UNL     1      27.458 -15.191  -3.642 -0.32 -0.00    +0.000 A 
DOCKED: ATOM     12  C   UNL     1      28.732 -15.631  -4.065 -0.26 -0.00    +0.000 A 
DOCKED: ATOM     13  O   UNL     1      29.545 -17.964  -1.384 -0.29 -0.00    +0.000 OA
DOCKED: ATOM     14  C   UNL     1      26.872 -15.714  -2.387 -0.39 -0.00    +0.000 C 
DOCKED: ATOM     15  O   UNL     1      25.723 -15.338  -2.027 -0.46 -0.00    +0.000 OA
DOCKED: ENDROOT
DOCKED: BRANCH   1  16
DOCKED: ATOM     16  C   UNL     1      27.092 -17.115  -0.284 -0.49 -0.00    +0.000 C 
DOCKED: BRANCH  16  17
DOCKED: ATOM     17  C   UNL     1      26.146 -18.317  -0.454 -0.62 -0.00    +0.000 C 
DOCKED: BRANCH  17  18
DOCKED: ATOM     18  C   UNL     1      24.803 -18.173   0.286 -0.49 -0.00    +0.000 C 
DOCKED: BRANCH  18  19
DOCKED: ATOM     19  C   UNL     1      23.553 -18.353  -0.602 -0.81 -0.00    +0.000 C 
DOCKED: BRANCH  19  20
DOCKED: ATOM     20  C   UNL     1      22.229 -18.448   0.174 -0.73 -0.00    +0.000 C 
DOCKED: BRANCH  20  22
DOCKED: ATOM     21  O   UNL     1      20.102 -17.861  -0.744 -2.06 -0.00    +0.000 OA
DOCKED: ATOM     22  C   UNL     1      21.058 -18.682  -0.736 -0.86 -0.00    +0.000 C 
DOCKED: ATOM     23  N   UNL     1      21.007 -19.845  -1.565 -0.58 -0.00    +0.000 N 
DOCKED: ATOM     24  H   UNL     1      21.752 -20.489  -1.551 -0.30 -0.00    +0.000 HD
DOCKED: BRANCH  23  25
DOCKED: ATOM     25  O   UNL     1      19.941 -20.069  -2.371 -1.74 -0.00    +0.000 OA
DOCKED: ATOM     26  H   UNL     1      19.442 -19.245  -2.484 -0.32 -0.00    +0.000 HD
DOCKED: ENDBRANCH  23  25
DOCKED: ENDBRANCH  20  22
DOCKED: ENDBRANCH  19  20
DOCKED: ENDBRANCH  18  19
DOCKED: ENDBRANCH  17  18
DOCKED: ENDBRANCH  16  17
DOCKED: ENDBRANCH   1  16
DOCKED: TORSDOF 7
DOCKED: TER
DOCKED: ENDMDL
________________________________________________________________________________


	BEGINNING GENETIC ALGORITHM DOCKING 2 of 100
Run: 2 Seed: 1842102787 1204111931 [ Run 2 of 100 GA/GALS ]
Beginning LAMARCKIAN GENETIC ALGORITHM (LGA), with a maximum of 2500000 energy evaluations.

Final-Value: -14.256


	FINAL GENETIC ALGORITHM DOCKED STATE
	_______________________________________________


Detailed state:  trans 26.558 -17.463 -1.905 quatxyzw 0.355713 -0.498998 0.785742 0.084137 center 0.154 0.112 -0.159 ntor 7 7.9222 -90.1162 122.1040 -174.8116 -137.0322 -154.0977 45.6758
State:	 26.558 -17.463  -1.905   0.357 -0.501  0.789 170.347      7.92  -90.12  122.10 -174.81 -137.03 -154.10   45.68

DOCKED: MODEL        2
DOCKED: USER    Run = 2
DOCKED: USER    DPF = ligand_dock.biased.dpf
DOCKED: USER  
DOCKED: USER    Estimated Free Energy of Binding    =  -10.94 kcal/mol  [=(1)+(2)+(3)-(4)]
DOCKED: USER    Estimated Inhibition Constant, Ki   =    9.54 nM (nanomolar)  [Temperature = 298.15 K]
DOCKED: USER    
DOCKED: USER    (1) Final Intermolecular Energy     =  -13.03 kcal/mol
DOCKED: USER        vdW + Hbond + desolv Energy     =  -13.03 kcal/mol
DOCKED: USER        Electrostatic Energy            =   +0.00 kcal/mol
DOCKED: USER    (2) Final Total Internal Energy     =   -1.23 kcal/mol
DOCKED: USER    (3) Torsional Free Energy           =   +2.09 kcal/mol
DOCKED: USER    (4) Unbound System's Energy  [=(2)] =   -1.23 kcal/mol
DOCKED: USER    
DOCKED: USER    
DOCKED: USER    NEWDPF move ligand.pdbqt
DOCKED: USER    NEWDPF about 0.154000 0.112000 -0.159000
DOCKED: USER    NEWDPF tran0 26.558071 -17.463483 -1.905361
DOCKED: USER    NEWDPF quaternion0 0.355713 -0.498998 0.785742 0.084137
DOCKED: USER    NEWDPF axisangle0 0.356978 -0.500774 0.788538 170.347181
DOCKED: USER    NEWDPF quat0 0.356978 -0.500774 0.788538 170.347181
DOCKED: USER    NEWDPF dihe0 7.92 -90.12 122.10 -174.81 -137.03 -154.10 45.68 
DOCKED: USER  keepresnum = 1 
DOCKED: USER  
DOCKED: REMARK  Name = 
DOCKED: REMARK  7 active torsions:
DOCKED: REMARK  status: ('A' for Active; 'I' for Inactive)
DOCKED: REMARK    1  A    between atoms: C_2  and  C_5
DOCKED: REMARK    2  A    between atoms: N_3  and  O_4
DOCKED: REMARK    3  A    between atoms: C_5  and  C_6
DOCKED: REMARK    4  A    between atoms: C_6  and  C_7
DOCKED: REMARK    5  A    between atoms: C_7  and  C_8
DOCKED: REMARK    6  A    between atoms: C_8  and  C_9
DOCKED: REMARK    7  A    between atoms: C_9  and  N_10
DOCKED: REMARK                            x       y       z     vdW  Elec       q    Type
DOCKED: REMARK                         _______ _______ _______ _____ _____    ______ ____
DOCKED: USER                              x       y       z     vdW  Elec       q    Type
DOCKED: USER                           _______ _______ _______ _____ _____    ______ ____
DOCKED: ROOT
DOCKED: ATOM      1  N   UNL     1      26.516 -15.977  -1.724 -0.38 -0.00    +0.000 N 
DOCKED: ATOM      2  C   UNL     1      26.302 -15.525  -3.076 -0.49 -0.00    +0.000 C 
DOCKED: ATOM      3  C   UNL     1      27.447 -15.400  -4.006 -0.34 -0.00    +0.000 A 
DOCKED: ATOM      4  C   UNL     1      27.246 -14.984  -5.334 -0.37 -0.00    +0.000 A 
DOCKED: ATOM      5  C   UNL     1      28.326 -14.869  -6.212 -0.34 -0.00    +0.000 A 
DOCKED: ATOM      6  C   UNL     1      29.618 -15.165  -5.781 -0.27 -0.00    +0.000 A 
DOCKED: ATOM      7  C   UNL     1      29.845 -15.581  -4.462 -0.18 -0.00    +0.000 A 
DOCKED: ATOM      8  C   UNL     1      31.144 -15.877  -4.028 -0.08 -0.00    +0.000 A 
DOCKED: ATOM      9  C   UNL     1      31.369 -16.290  -2.715 -0.06 -0.00    +0.000 A 
DOCKED: ATOM     10  C   UNL     1      30.303 -16.411  -1.822 -0.13 -0.00    +0.000 A 
DOCKED: ATOM     11  C   UNL     1      28.991 -16.119  -2.233 -0.20 -0.00    +0.000 A 
DOCKED: ATOM     12  C   UNL     1      28.754 -15.701  -3.561 -0.23 -0.00    +0.000 A 
DOCKED: ATOM     13  O   UNL     1      25.139 -15.231  -3.468 -0.73 -0.00    +0.000 OA
DOCKED: ATOM     14  C   UNL     1      27.861 -16.249  -1.284 -0.35 -0.00    +0.000 C 
DOCKED: ATOM     15  O   UNL     1      28.080 -16.598  -0.092 -0.37 -0.00    +0.000 OA
DOCKED: ENDROOT
DOCKED: BRANCH   1  16
DOCKED: ATOM     16  C   UNL     1      25.367 -16.187  -0.825 -0.49 -0.00    +0.000 C 
DOCKED: BRANCH  16  17
DOCKED: ATOM     17  C   UNL     1      25.313 -17.635  -0.307 -0.65 -0.00    +0.000 C 
DOCKED: BRANCH  17  18
DOCKED: ATOM     18  C   UNL     1      24.491 -18.592  -1.190 -0.61 -0.00    +0.000 C 
DOCKED: BRANCH  18  19
DOCKED: ATOM     19  C   UNL     1      22.973 -18.314  -1.204 -0.78 -0.00    +0.000 C 
DOCKED: BRANCH  19  20
DOCKED: ATOM     20  C   UNL     1      22.127 -19.360  -0.460 -0.73 -0.00    +0.000 C 
DOCKED: BRANCH  20  22
DOCKED: ATOM     21  O   UNL     1      20.262 -17.989  -1.054 -2.15 -0.00    +0.000 OA
DOCKED: ATOM     22  C   UNL     1      20.656 -19.094  -0.593 -0.88 -0.00    +0.000 C 
DOCKED: ATOM     23  N   UNL     1      19.701 -20.070  -0.169 -0.76 -0.00    +0.000 N 
DOCKED: ATOM     24  H   UNL     1      20.012 -20.929   0.198 -0.08 -0.00    +0.000 HD
DOCKED: BRANCH  23  25
DOCKED: ATOM     25  O   UNL     1      18.373 -19.823  -0.268 -0.80 -0.00    +0.000 OA
DOCKED: ATOM     26  H   UNL     1      18.233 -18.998  -0.759 -0.59 -0.00    +0.000 HD
DOCKED: ENDBRANCH  23  25
DOCKED: ENDBRANCH  20  22
DOCKED: ENDBRANCH  19  20
DOCKED: ENDBRANCH  18  19
DOCKED: ENDBRANCH  17  18
DOCKED: ENDBRANCH  16  17
DOCKED: ENDBRANCH   1  16
DOCKED: TORSDOF 7
DOCKED: TER
DOCKED: ENDMDL
________________________________________________________________________________


	BEGINNING GENETIC ALGORITHM DOCKING 3 of 100
Run: 3 Seed: 239018934 831850387 [ Run 3 of 100 GA/GALS ]
Beginning LAMARCKIAN GENETIC ALGORITHM (LGA), with a maximum of 2500000 energy evaluations.

Final-Value: -13.609


	FINAL GENETIC ALGORITHM DOCKED STATE
	_______________________________________________


Detailed state:  trans 25.518 -14.122 -1.118 quatxyzw 0.004650 -0.823164 -0.414332 -0.388211 center 0.154 0.112 -0.159 ntor 7 -0.6659 179.6892 -140.7341 148.6785 -79.1523 153.9234 173.4343
State:	 25.518 -14.122  -1.118   0.005 -0.893 -0.450 -134.313     -0.67  179.69 -140.73  148.68  -79.15  153.92  173.43

DOCKED: MODEL        3
DOCKED: USER    Run = 3
DOCKED: USER    DPF = ligand_dock.biased.dpf
DOCKED: USER  
DOCKED: USER    Estimated Free Energy of Binding    =  -10.23 kcal/mol  [=(1)+(2)+(3)-(4)]
DOCKED: USER    Estimated Inhibition Constant, Ki   =   31.62 nM (nanomolar)  [Temperature = 298.15 K]
DOCKED: USER    
DOCKED: USER    (1) Final Intermolecular Energy     =  -12.32 kcal/mol
DOCKED: USER        vdW + Hbond + desolv Energy     =  -12.32 kcal/mol
DOCKED: USER        Electrostatic Energy            =   +0.00 kcal/mol
DOCKED: USER    (2) Final Total Internal Energy     =   -1.29 kcal/mol
DOCKED: USER    (3) Torsional Free Energy           =   +2.09 kcal/mol
DOCKED: USER    (4) Unbound System's Energy  [=(2)] =   -1.29 kcal/mol
DOCKED: USER    
DOCKED: USER    
DOCKED: USER    NEWDPF move ligand.pdbqt
DOCKED: USER    NEWDPF about 0.154000 0.112000 -0.159000
DOCKED: USER    NEWDPF tran0 25.518320 -14.121680 -1.118332
DOCKED: USER    NEWDPF quaternion0 0.004650 -0.823164 -0.414332 -0.388211
DOCKED: USER    NEWDPF axisangle0 0.005046 -0.893219 -0.449593 -134.313493
DOCKED: USER    NEWDPF quat0 0.005046 -0.893219 -0.449593 -134.313493
DOCKED: USER    NEWDPF dihe0 -0.67 179.69 -140.73 148.68 -79.15 153.92 173.43 
DOCKED: USER  keepresnum = 1 
DOCKED: USER  
DOCKED: REMARK  Name = 
DOCKED: REMARK  7 active torsions:
DOCKED: REMARK  status: ('A' for Active; 'I' for Inactive)
DOCKED: REMARK    1  A    between atoms: C_2  and  C_5
DOCKED: REMARK    2  A    between atoms: N_3  and  O_4
DOCKED: REMARK    3  A    between atoms: C_5  and  C_6
DOCKED: REMARK    4  A    between atoms: C_6  and  C_7
DOCKED: REMARK    5  A    between atoms: C_7  and  C_8
DOCKED: REMARK    6  A    between atoms: C_8  and  C_9
DOCKED: REMARK    7  A    between atoms: C_9  and  N_10
DOCKED: REMARK                            x       y       z     vdW  Elec       q    Type
DOCKED: REMARK                         _______ _______ _______ _____ _____    ______ ____
DOCKED: USER                              x       y       z     vdW  Elec       q    Type
DOCKED: USER                           _______ _______ _______ _____ _____    ______ ____
DOCKED: ROOT
DOCKED: ATOM      1  N   UNL     1      26.350 -15.211  -1.724 -0.34 -0.00    +0.000 N 
DOCKED: ATOM      2  C   UNL     1      27.663 -14.886  -1.224 -0.24 -0.00    +0.000 C 
DOCKED: ATOM      3  C   UNL     1      28.481 -13.855  -1.902 -0.10 -0.00    +0.000 A 
DOCKED: ATOM      4  C   UNL     1      29.752 -13.514  -1.407 -0.04 -0.00    +0.000 A 
DOCKED: ATOM      5  C   UNL     1      30.522 -12.540  -2.045 -0.01 -0.00    +0.000 A 
DOCKED: ATOM      6  C   UNL     1      30.039 -11.893  -3.182 -0.02 -0.00    +0.000 A 
DOCKED: ATOM      7  C   UNL     1      28.776 -12.217  -3.695 -0.07 -0.00    +0.000 A 
DOCKED: ATOM      8  C   UNL     1      28.292 -11.568  -4.839 -0.09 -0.00    +0.000 A 
DOCKED: ATOM      9  C   UNL     1      27.034 -11.891  -5.350 -0.19 -0.00    +0.000 A 
DOCKED: ATOM     10  C   UNL     1      26.250 -12.862  -4.727 -0.26 -0.00    +0.000 A 
DOCKED: ATOM     11  C   UNL     1      26.713 -13.527  -3.578 -0.28 -0.00    +0.000 A 
DOCKED: ATOM     12  C   UNL     1      27.985 -13.206  -3.053 -0.12 -0.00    +0.000 A 
DOCKED: ATOM     13  O   UNL     1      28.118 -15.483  -0.209 -0.28 -0.00    +0.000 OA
DOCKED: ATOM     14  C   UNL     1      25.878 -14.557  -2.918 -0.45 -0.00    +0.000 C 
DOCKED: ATOM     15  O   UNL     1      24.754 -14.859  -3.405 -0.75 -0.00    +0.000 OA
DOCKED: ENDROOT
DOCKED: BRANCH   1  16
DOCKED: ATOM     16  C   UNL     1      25.500 -16.171  -0.998 -0.52 -0.00    +0.000 C 
DOCKED: BRANCH  16  17
DOCKED: ATOM     17  C   UNL     1      25.335 -17.484  -1.784 -0.59 -0.00    +0.000 C 
DOCKED: BRANCH  17  18
DOCKED: ATOM     18  C   UNL     1      23.930 -18.107  -1.684 -0.68 -0.00    +0.000 C 
DOCKED: BRANCH  18  19
DOCKED: ATOM     19  C   UNL     1      23.008 -17.458  -0.630 -0.76 -0.00    +0.000 C 
DOCKED: BRANCH  19  20
DOCKED: ATOM     20  C   UNL     1      22.057 -18.438   0.075 -0.78 -0.00    +0.000 C 
DOCKED: BRANCH  20  22
DOCKED: ATOM     21  O   UNL     1      19.756 -18.239  -0.539 -1.59 -0.00    +0.000 OA
DOCKED: ATOM     22  C   UNL     1      20.869 -18.780  -0.777 -0.85 -0.00    +0.000 C 
DOCKED: ATOM     23  N   UNL     1      20.985 -19.740  -1.830 -0.67 -0.00    +0.000 N 
DOCKED: ATOM     24  H   UNL     1      21.854 -20.167  -2.008 -0.51 -0.00    +0.000 HD
DOCKED: BRANCH  23  25
DOCKED: ATOM     25  O   UNL     1      19.909 -20.066  -2.585 -1.66 -0.00    +0.000 OA
DOCKED: ATOM     26  H   UNL     1      19.135 -19.569  -2.278 -0.47 -0.00    +0.000 HD
DOCKED: ENDBRANCH  23  25
DOCKED: ENDBRANCH  20  22
DOCKED: ENDBRANCH  19  20
DOCKED: ENDBRANCH  18  19
DOCKED: ENDBRANCH  17  18
DOCKED: ENDBRANCH  16  17
DOCKED: ENDBRANCH   1  16
DOCKED: TORSDOF 7
DOCKED: TER
DOCKED: ENDMDL
________________________________________________________________________________


	BEGINNING GENETIC ALGORITHM DOCKING 4 of 100
Run: 4 Seed: 1071892063 2087956308 [ Run 4 of 100 GA/GALS ]
Beginning LAMARCKIAN GENETIC ALGORITHM (LGA), with a maximum of 2500000 energy evaluations.

Final-Value: -14.393


	FINAL GENETIC ALGORITHM DOCKED STATE
	_______________________________________________


Detailed state:  trans 25.135 -15.040 -2.758 quatxyzw 0.387530 -0.864276 -0.246610 -0.205015 center 0.154 0.112 -0.159 ntor 7 1.0252 106.1399 105.3909 -124.1701 -176.4622 129.6237 -33.5387
State:	 25.135 -15.040  -2.758   0.396 -0.883 -0.252 -156.339      1.03  106.14  105.39 -124.17 -176.46  129.62  -33.54

DOCKED: MODEL        4
DOCKED: USER    Run = 4
DOCKED: USER    DPF = ligand_dock.biased.dpf
DOCKED: USER  
DOCKED: USER    Estimated Free Energy of Binding    =  -11.25 kcal/mol  [=(1)+(2)+(3)-(4)]
DOCKED: USER    Estimated Inhibition Constant, Ki   =    5.64 nM (nanomolar)  [Temperature = 298.15 K]
DOCKED: USER    
DOCKED: USER    (1) Final Intermolecular Energy     =  -13.34 kcal/mol
DOCKED: USER        vdW + Hbond + desolv Energy     =  -13.34 kcal/mol
DOCKED: USER        Electrostatic Energy            =   +0.00 kcal/mol
DOCKED: USER    (2) Final Total Internal Energy     =   -1.05 kcal/mol
DOCKED: USER    (3) Torsional Free Energy           =   +2.09 kcal/mol
DOCKED: USER    (4) Unbound System's Energy  [=(2)] =   -1.05 kcal/mol
DOCKED: USER    
DOCKED: USER    
DOCKED: USER    NEWDPF move ligand.pdbqt
DOCKED: USER    NEWDPF about 0.154000 0.112000 -0.159000
DOCKED: USER    NEWDPF tran0 25.134984 -15.039652 -2.758198
DOCKED: USER    NEWDPF quaternion0 0.387530 -0.864276 -0.246610 -0.205015
DOCKED: USER    NEWDPF axisangle0 0.395941 -0.883032 -0.251962 -156.339261
DOCKED: USER    NEWDPF quat0 0.395941 -0.883032 -0.251962 -156.339261
DOCKED: USER    NEWDPF dihe0 1.03 106.14 105.39 -124.17 -176.46 129.62 -33.54 
DOCKED: USER  keepresnum = 1 
DOCKED: USER  
DOCKED: REMARK  Name = 
DOCKED: REMARK  7 active torsions:
DOCKED: REMARK  status: ('A' for Active; 'I' for Inactive)
DOCKED: REMARK    1  A    between atoms: C_2  and  C_5
DOCKED: REMARK    2  A    between atoms: N_3  and  O_4
DOCKED: REMARK    3  A    between atoms: C_5  and  C_6
DOCKED: REMARK    4  A    between atoms: C_6  and  C_7
DOCKED: REMARK    5  A    between atoms: C_7  and  C_8
DOCKED: REMARK    6  A    between atoms: C_8  and  C_9
DOCKED: REMARK    7  A    between atoms: C_9  and  N_10
DOCKED: REMARK                            x       y       z     vdW  Elec       q    Type
DOCKED: REMARK                         _______ _______ _______ _____ _____    ______ ____
DOCKED: USER                              x       y       z     vdW  Elec       q    Type
DOCKED: USER                           _______ _______ _______ _____ _____    ______ ____
DOCKED: ROOT
DOCKED: ATOM      1  N   UNL     1      26.581 -15.357  -2.525 -0.35 -0.00    +0.000 N 
DOCKED: ATOM      2  C   UNL     1      26.902 -14.467  -1.437 -0.29 -0.00    +0.000 C 
DOCKED: ATOM      3  C   UNL     1      27.235 -13.051  -1.711 -0.14 -0.00    +0.000 A 
DOCKED: ATOM      4  C   UNL     1      27.525 -12.169  -0.655 -0.12 -0.00    +0.000 A 
DOCKED: ATOM      5  C   UNL     1      27.837 -10.833  -0.913 -0.09 -0.00    +0.000 A 
DOCKED: ATOM      6  C   UNL     1      27.864 -10.357  -2.223 -0.07 -0.00    +0.000 A 
DOCKED: ATOM      7  C   UNL     1      27.580 -11.216  -3.292 -0.10 -0.00    +0.000 A 
DOCKED: ATOM      8  C   UNL     1      27.609 -10.738  -4.609 -0.09 -0.00    +0.000 A 
DOCKED: ATOM      9  C   UNL     1      27.327 -11.594  -5.674 -0.16 -0.00    +0.000 A 
DOCKED: ATOM     10  C   UNL     1      27.014 -12.933  -5.437 -0.16 -0.00    +0.000 A 
DOCKED: ATOM     11  C   UNL     1      26.977 -13.437  -4.125 -0.27 -0.00    +0.000 A 
DOCKED: ATOM     12  C   UNL     1      27.261 -12.577  -3.041 -0.15 -0.00    +0.000 A 
DOCKED: ATOM     13  O   UNL     1      26.903 -14.895  -0.250 -0.33 -0.00    +0.000 OA
DOCKED: ATOM     14  C   UNL     1      26.644 -14.858  -3.876 -0.47 -0.00    +0.000 C 
DOCKED: ATOM     15  O   UNL     1      26.417 -15.629  -4.848 -0.97 -0.00    +0.000 OA
DOCKED: ENDROOT
DOCKED: BRANCH   1  16
DOCKED: ATOM     16  C   UNL     1      26.162 -16.742  -2.247 -0.45 -0.00    +0.000 C 
DOCKED: BRANCH  16  17
DOCKED: ATOM     17  C   UNL     1      25.179 -16.808  -1.065 -0.62 -0.00    +0.000 C 
DOCKED: BRANCH  17  18
DOCKED: ATOM     18  C   UNL     1      24.951 -18.227  -0.510 -0.73 -0.00    +0.000 C 
DOCKED: BRANCH  18  19
DOCKED: ATOM     19  C   UNL     1      23.575 -18.839  -0.845 -0.80 -0.00    +0.000 C 
DOCKED: BRANCH  19  20
DOCKED: ATOM     20  C   UNL     1      22.374 -18.015  -0.353 -0.83 -0.00    +0.000 C 
DOCKED: BRANCH  20  22
DOCKED: ATOM     21  O   UNL     1      20.016 -17.862  -0.708 -1.98 +0.00    +0.000 OA
DOCKED: ATOM     22  C   UNL     1      21.082 -18.486  -0.955 -0.77 -0.00    +0.000 C 
DOCKED: ATOM     23  N   UNL     1      21.050 -19.655  -1.777 -0.67 -0.00    +0.000 N 
DOCKED: ATOM     24  H   UNL     1      21.884 -20.145  -1.962 -0.50 -0.00    +0.000 HD
DOCKED: BRANCH  23  25
DOCKED: ATOM     25  O   UNL     1      19.882 -20.094  -2.305 -1.76 -0.00    +0.000 OA
DOCKED: ATOM     26  H   UNL     1      19.164 -19.497  -2.044 -0.48 -0.00    +0.000 HD
DOCKED: ENDBRANCH  23  25
DOCKED: ENDBRANCH  20  22
DOCKED: ENDBRANCH  19  20
DOCKED: ENDBRANCH  18  19
DOCKED: ENDBRANCH  17  18
DOCKED: ENDBRANCH  16  17
DOCKED: ENDBRANCH   1  16
DOCKED: TORSDOF 7
DOCKED: TER
DOCKED: ENDMDL
________________________________________________________________________________


	BEGINNING GENETIC ALGORITHM DOCKING 5 of 100
Run: 5 Seed: 720224686 1998908339 [ Run 5 of 100 GA/GALS ]
Beginning LAMARCKIAN GENETIC ALGORITHM (LGA), with a maximum of 2500000 energy evaluations.

Final-Value: -13.473


	FINAL GENETIC ALGORITHM DOCKED STATE
	_______________________________________________


Detailed state:  trans 26.731 -16.288 0.556 quatxyzw -0.272055 0.223646 0.861750 0.365180 center 0.154 0.112 -0.159 ntor 7 -11.4936 168.5360 87.3374 -140.3134 155.1632 179.1107 56.3240
State:	 26.731 -16.288   0.556  -0.292  0.240  0.926 137.163    -11.49  168.54   87.34 -140.31  155.16  179.11   56.32

DOCKED: MODEL        5
DOCKED: USER    Run = 5
DOCKED: USER    DPF = ligand_dock.biased.dpf
DOCKED: USER  
DOCKED: USER    Estimated Free Energy of Binding    =  -10.29 kcal/mol  [=(1)+(2)+(3)-(4)]
DOCKED: USER    Estimated Inhibition Constant, Ki   =   28.90 nM (nanomolar)  [Temperature = 298.15 K]
DOCKED: USER    
DOCKED: USER    (1) Final Intermolecular Energy     =  -12.37 kcal/mol
DOCKED: USER        vdW + Hbond + desolv Energy     =  -12.37 kcal/mol
DOCKED: USER        Electrostatic Energy            =   +0.00 kcal/mol
DOCKED: USER    (2) Final Total Internal Energy     =   -1.10 kcal/mol
DOCKED: USER    (3) Torsional Free Energy           =   +2.09 kcal/mol
DOCKED: USER    (4) Unbound System's Energy  [=(2)] =   -1.10 kcal/mol
DOCKED: USER    
DOCKED: USER    
DOCKED: USER    NEWDPF move ligand.pdbqt
DOCKED: USER    NEWDPF about 0.154000 0.112000 -0.159000
DOCKED: USER    NEWDPF tran0 26.730929 -16.288344 0.555523
DOCKED: USER    NEWDPF quaternion0 -0.272055 0.223646 0.861750 0.365180
DOCKED: USER    NEWDPF axisangle0 -0.292237 0.240238 0.925680 137.162721
DOCKED: USER    NEWDPF quat0 -0.292237 0.240238 0.925680 137.162721
DOCKED: USER    NEWDPF dihe0 -11.49 168.54 87.34 -140.31 155.16 179.11 56.32 
DOCKED: USER  keepresnum = 1 
DOCKED: USER  
DOCKED: REMARK  Name = 
DOCKED: REMARK  7 active torsions:
DOCKED: REMARK  status: ('A' for Active; 'I' for Inactive)
DOCKED: REMARK    1  A    between atoms: C_2  and  C_5
DOCKED: REMARK    2  A    between atoms: N_3  and  O_4
DOCKED: REMARK    3  A    between atoms: C_5  and  C_6
DOCKED: REMARK    4  A    between atoms: C_6  and  C_7
DOCKED: REMARK    5  A    between atoms: C_7  and  C_8
DOCKED: REMARK    6  A    between atoms: C_8  and  C_9
DOCKED: REMARK    7  A    between atoms: C_9  and  N_10
DOCKED: REMARK                            x       y       z     vdW  Elec       q    Type
DOCKED: REMARK                         _______ _______ _______ _____ _____    ______ ____
DOCKED: USER                              x       y       z     vdW  Elec       q    Type
DOCKED: USER                           _______ _______ _______ _____ _____    ______ ____
DOCKED: ROOT
DOCKED: ATOM      1  N   UNL     1      27.315 -15.480  -0.563 -0.29 -0.00    +0.000 N 
DOCKED: ATOM      2  C   UNL     1      28.726 -15.712  -0.384 -0.24 -0.00    +0.000 C 
DOCKED: ATOM      3  C   UNL     1      29.487 -14.924   0.611 -0.13 -0.00    +0.000 A 
DOCKED: ATOM      4  C   UNL     1      30.859 -15.161   0.811 -0.11 -0.00    +0.000 A 
DOCKED: ATOM      5  C   UNL     1      31.576 -14.419   1.751 -0.09 -0.00    +0.000 A 
DOCKED: ATOM      6  C   UNL     1      30.940 -13.434   2.505 -0.09 -0.00    +0.000 A 
DOCKED: ATOM      7  C   UNL     1      29.574 -13.178   2.324 -0.12 -0.00    +0.000 A 
DOCKED: ATOM      8  C   UNL     1      28.935 -12.186   3.080 -0.14 -0.00    +0.000 A 
DOCKED: ATOM      9  C   UNL     1      27.575 -11.932   2.899 -0.25 +0.00    +0.000 A 
DOCKED: ATOM     10  C   UNL     1      26.841 -12.662   1.963 -0.30 -0.00    +0.000 A 
DOCKED: ATOM     11  C   UNL     1      27.459 -13.663   1.193 -0.25 -0.00    +0.000 A 
DOCKED: ATOM     12  C   UNL     1      28.835 -13.927   1.370 -0.17 -0.00    +0.000 A 
DOCKED: ATOM     13  O   UNL     1      29.315 -16.586  -1.078 -0.26 -0.00    +0.000 OA
DOCKED: ATOM     14  C   UNL     1      26.677 -14.437   0.201 -0.29 -0.00    +0.000 C 
DOCKED: ATOM     15  O   UNL     1      25.455 -14.179   0.027 -0.34 -0.00    +0.000 OA
DOCKED: ENDROOT
DOCKED: BRANCH   1  16
DOCKED: ATOM     16  C   UNL     1      26.539 -16.324  -1.488 -0.46 -0.00    +0.000 C 
DOCKED: BRANCH  16  17
DOCKED: ATOM     17  C   UNL     1      25.234 -16.821  -0.840 -0.60 -0.00    +0.000 C 
DOCKED: BRANCH  17  18
DOCKED: ATOM     18  C   UNL     1      25.148 -18.351  -0.688 -0.69 -0.00    +0.000 C 
DOCKED: BRANCH  18  19
DOCKED: ATOM     19  C   UNL     1      23.788 -18.965  -1.086 -0.75 -0.00    +0.000 C 
DOCKED: BRANCH  19  20
DOCKED: ATOM     20  C   UNL     1      22.659 -18.722  -0.073 -0.73 -0.00    +0.000 C 
DOCKED: BRANCH  20  22
DOCKED: ATOM     21  O   UNL     1      20.681 -17.553  -0.731 -2.13 +0.00    +0.000 OA
DOCKED: ATOM     22  C   UNL     1      21.314 -18.643  -0.735 -0.86 -0.00    +0.000 C 
DOCKED: ATOM     23  N   UNL     1      20.735 -19.802  -1.339 -0.76 -0.00    +0.000 N 
DOCKED: ATOM     24  H   UNL     1      21.229 -20.654  -1.333 -0.14 -0.00    +0.000 HD
DOCKED: BRANCH  23  25
DOCKED: ATOM     25  O   UNL     1      19.512 -19.738  -1.919 -1.64 -0.00    +0.000 OA
DOCKED: ATOM     26  H   UNL     1      19.087 -18.899  -1.685 -0.55 -0.00    +0.000 HD
DOCKED: ENDBRANCH  23  25
DOCKED: ENDBRANCH  20  22
DOCKED: ENDBRANCH  19  20
DOCKED: ENDBRANCH  18  19
DOCKED: ENDBRANCH  17  18
DOCKED: ENDBRANCH  16  17
DOCKED: ENDBRANCH   1  16
DOCKED: TORSDOF 7
DOCKED: TER
DOCKED: ENDMDL
________________________________________________________________________________


	BEGINNING GENETIC ALGORITHM DOCKING 6 of 100
Run: 6 Seed: 894531646 102011075 [ Run 6 of 100 GA/GALS ]
Beginning LAMARCKIAN GENETIC ALGORITHM (LGA), with a maximum of 2500000 energy evaluations.

Final-Value: -13.875


	FINAL GENETIC ALGORITHM DOCKED STATE
	_______________________________________________


Detailed state:  trans 26.999 -14.853 -1.543 quatxyzw 0.263571 0.818389 0.373166 0.348594 center 0.154 0.112 -0.159 ntor 7 9.4753 -29.5330 99.0544 13.8316 30.2712 111.7185 179.9858
State:	 26.999 -14.853  -1.543   0.281  0.873  0.398 139.197      9.48  -29.53   99.05   13.83   30.27  111.72  179.99

DOCKED: MODEL        6
DOCKED: USER    Run = 6
DOCKED: USER    DPF = ligand_dock.biased.dpf
DOCKED: USER  
DOCKED: USER    Estimated Free Energy of Binding    =  -10.66 kcal/mol  [=(1)+(2)+(3)-(4)]
DOCKED: USER    Estimated Inhibition Constant, Ki   =   15.42 nM (nanomolar)  [Temperature = 298.15 K]
DOCKED: USER    
DOCKED: USER    (1) Final Intermolecular Energy     =  -12.75 kcal/mol
DOCKED: USER        vdW + Hbond + desolv Energy     =  -12.75 kcal/mol
DOCKED: USER        Electrostatic Energy            =   +0.00 kcal/mol
DOCKED: USER    (2) Final Total Internal Energy     =   -1.13 kcal/mol
DOCKED: USER    (3) Torsional Free Energy           =   +2.09 kcal/mol
DOCKED: USER    (4) Unbound System's Energy  [=(2)] =   -1.13 kcal/mol
DOCKED: USER    
DOCKED: USER    
DOCKED: USER    NEWDPF move ligand.pdbqt
DOCKED: USER    NEWDPF about 0.154000 0.112000 -0.159000
DOCKED: USER    NEWDPF tran0 26.999444 -14.852804 -1.542889
DOCKED: USER    NEWDPF quaternion0 0.263571 0.818389 0.373166 0.348594
DOCKED: USER    NEWDPF axisangle0 0.281210 0.873159 0.398139 139.197291
DOCKED: USER    NEWDPF quat0 0.281210 0.873159 0.398139 139.197291
DOCKED: USER    NEWDPF dihe0 9.48 -29.53 99.05 13.83 30.27 111.72 179.99 
DOCKED: USER  keepresnum = 1 
DOCKED: USER  
DOCKED: REMARK  Name = 
DOCKED: REMARK  7 active torsions:
DOCKED: REMARK  status: ('A' for Active; 'I' for Inactive)
DOCKED: REMARK    1  A    between atoms: C_2  and  C_5
DOCKED: REMARK    2  A    between atoms: N_3  and  O_4
DOCKED: REMARK    3  A    between atoms: C_5  and  C_6
DOCKED: REMARK    4  A    between atoms: C_6  and  C_7
DOCKED: REMARK    5  A    between atoms: C_7  and  C_8
DOCKED: REMARK    6  A    between atoms: C_8  and  C_9
DOCKED: REMARK    7  A    between atoms: C_9  and  N_10
DOCKED: REMARK                            x       y       z     vdW  Elec       q    Type
DOCKED: REMARK                         _______ _______ _______ _____ _____    ______ ____
DOCKED: USER                              x       y       z     vdW  Elec       q    Type
DOCKED: USER                           _______ _______ _______ _____ _____    ______ ____
DOCKED: ROOT
DOCKED: ATOM      1  N   UNL     1      27.170 -16.304  -1.873 -0.34 -0.00    +0.000 N 
DOCKED: ATOM      2  C   UNL     1      28.575 -16.498  -1.618 -0.30 -0.00    +0.000 C 
DOCKED: ATOM      3  C   UNL     1      29.574 -16.125  -2.646 -0.17 -0.00    +0.000 A 
DOCKED: ATOM      4  C   UNL     1      30.948 -16.287  -2.397 -0.08 -0.00    +0.000 A 
DOCKED: ATOM      5  C   UNL     1      31.890 -15.933  -3.364 -0.04 -0.00    +0.000 A 
DOCKED: ATOM      6  C   UNL     1      31.478 -15.415  -4.591 -0.06 -0.00    +0.000 A 
DOCKED: ATOM      7  C   UNL     1      30.114 -15.245  -4.864 -0.16 -0.00    +0.000 A 
DOCKED: ATOM      8  C   UNL     1      29.699 -14.726  -6.098 -0.26 -0.00    +0.000 A 
DOCKED: ATOM      9  C   UNL     1      28.341 -14.558  -6.369 -0.31 -0.00    +0.000 A 
DOCKED: ATOM     10  C   UNL     1      27.385 -14.906  -5.415 -0.38 -0.00    +0.000 A 
DOCKED: ATOM     11  C   UNL     1      27.775 -15.429  -4.169 -0.32 -0.00    +0.000 A 
DOCKED: ATOM     12  C   UNL     1      29.148 -15.602  -3.886 -0.21 -0.00    +0.000 A 
DOCKED: ATOM     13  O   UNL     1      28.956 -16.988  -0.520 -0.32 -0.00    +0.000 OA
DOCKED: ATOM     14  C   UNL     1      26.757 -15.797  -3.158 -0.40 -0.00    +0.000 C 
DOCKED: ATOM     15  O   UNL     1      25.532 -15.666  -3.425 -0.62 -0.00    +0.000 OA
DOCKED: ENDROOT
DOCKED: BRANCH   1  16
DOCKED: ATOM     16  C   UNL     1      26.181 -16.591  -0.818 -0.52 -0.00    +0.000 C 
DOCKED: BRANCH  16  17
DOCKED: ATOM     17  C   UNL     1      25.447 -17.918  -1.079 -0.64 -0.00    +0.000 C 
DOCKED: BRANCH  17  18
DOCKED: ATOM     18  C   UNL     1      24.477 -18.334   0.043 -0.62 -0.00    +0.000 C 
DOCKED: BRANCH  18  19
DOCKED: ATOM     19  C   UNL     1      22.994 -18.006  -0.230 -0.78 -0.00    +0.000 C 
DOCKED: BRANCH  19  20
DOCKED: ATOM     20  C   UNL     1      22.281 -19.005  -1.156 -0.80 -0.00    +0.000 C 
DOCKED: BRANCH  20  22
DOCKED: ATOM     21  O   UNL     1      20.222 -17.795  -1.078 -2.11 -0.00    +0.000 OA
DOCKED: ATOM     22  C   UNL     1      20.787 -18.920  -1.033 -0.86 -0.00    +0.000 C 
DOCKED: ATOM     23  N   UNL     1      20.008 -20.102  -0.830 -0.75 -0.00    +0.000 N 
DOCKED: ATOM     24  H   UNL     1      20.454 -20.979  -0.787 -0.24 -0.00    +0.000 HD
DOCKED: BRANCH  23  25
DOCKED: ATOM     25  O   UNL     1      18.662 -20.025  -0.697 -0.87 -0.00    +0.000 OA
DOCKED: ATOM     26  H   UNL     1      18.367 -19.126  -0.911 -0.58 -0.00    +0.000 HD
DOCKED: ENDBRANCH  23  25
DOCKED: ENDBRANCH  20  22
DOCKED: ENDBRANCH  19  20
DOCKED: ENDBRANCH  18  19
DOCKED: ENDBRANCH  17  18
DOCKED: ENDBRANCH  16  17
DOCKED: ENDBRANCH   1  16
DOCKED: TORSDOF 7
DOCKED: TER
DOCKED: ENDMDL
________________________________________________________________________________


	BEGINNING GENETIC ALGORITHM DOCKING 7 of 100
Run: 7 Seed: 1793602431 1268467653 [ Run 7 of 100 GA/GALS ]
Beginning LAMARCKIAN GENETIC ALGORITHM (LGA), with a maximum of 2500000 energy evaluations.

Final-Value: -13.735


	FINAL GENETIC ALGORITHM DOCKED STATE
	_______________________________________________


Detailed state:  trans 26.245 -16.850 -3.938 quatxyzw 0.372943 -0.741815 0.497329 0.251571 center 0.154 0.112 -0.159 ntor 7 0.4480 -179.9067 168.2866 -178.9531 -58.7389 108.4110 163.2847
State:	 26.245 -16.850  -3.938   0.385 -0.766  0.514 150.859      0.45 -179.91  168.29 -178.95  -58.74  108.41  163.28

DOCKED: MODEL        7
DOCKED: USER    Run = 7
DOCKED: USER    DPF = ligand_dock.biased.dpf
DOCKED: USER  
DOCKED: USER    Estimated Free Energy of Binding    =  -10.44 kcal/mol  [=(1)+(2)+(3)-(4)]
DOCKED: USER    Estimated Inhibition Constant, Ki   =   22.26 nM (nanomolar)  [Temperature = 298.15 K]
DOCKED: USER    
DOCKED: USER    (1) Final Intermolecular Energy     =  -12.53 kcal/mol
DOCKED: USER        vdW + Hbond + desolv Energy     =  -12.53 kcal/mol
DOCKED: USER        Electrostatic Energy            =   +0.00 kcal/mol
DOCKED: USER    (2) Final Total Internal Energy     =   -1.21 kcal/mol
DOCKED: USER    (3) Torsional Free Energy           =   +2.09 kcal/mol
DOCKED: USER    (4) Unbound System's Energy  [=(2)] =   -1.21 kcal/mol
DOCKED: USER    
DOCKED: USER    
DOCKED: USER    NEWDPF move ligand.pdbqt
DOCKED: USER    NEWDPF about 0.154000 0.112000 -0.159000
DOCKED: USER    NEWDPF tran0 26.245303 -16.850321 -3.937715
DOCKED: USER    NEWDPF quaternion0 0.372943 -0.741815 0.497329 0.251571
DOCKED: USER    NEWDPF axisangle0 0.385336 -0.766465 0.513855 150.859034
DOCKED: USER    NEWDPF quat0 0.385336 -0.766465 0.513855 150.859034
DOCKED: USER    NEWDPF dihe0 0.45 -179.91 168.29 -178.95 -58.74 108.41 163.28 
DOCKED: USER  keepresnum = 1 
DOCKED: USER  
DOCKED: REMARK  Name = 
DOCKED: REMARK  7 active torsions:
DOCKED: REMARK  status: ('A' for Active; 'I' for Inactive)
DOCKED: REMARK    1  A    between atoms: C_2  and  C_5
DOCKED: REMARK    2  A    between atoms: N_3  and  O_4
DOCKED: REMARK    3  A    between atoms: C_5  and  C_6
DOCKED: REMARK    4  A    between atoms: C_6  and  C_7
DOCKED: REMARK    5  A    between atoms: C_7  and  C_8
DOCKED: REMARK    6  A    between atoms: C_8  and  C_9
DOCKED: REMARK    7  A    between atoms: C_9  and  N_10
DOCKED: REMARK                            x       y       z     vdW  Elec       q    Type
DOCKED: REMARK                         _______ _______ _______ _____ _____    ______ ____
DOCKED: USER                              x       y       z     vdW  Elec       q    Type
DOCKED: USER                           _______ _______ _______ _____ _____    ______ ____
DOCKED: ROOT
DOCKED: ATOM      1  N   UNL     1      26.082 -15.977  -2.731 -0.46 -0.00    +0.000 N 
DOCKED: ATOM      2  C   UNL     1      25.613 -14.749  -3.322 -0.53 -0.00    +0.000 C 
DOCKED: ATOM      3  C   UNL     1      26.577 -13.792  -3.910 -0.33 -0.00    +0.000 A 
DOCKED: ATOM      4  C   UNL     1      26.128 -12.604  -4.511 -0.30 -0.00    +0.000 A 
DOCKED: ATOM      5  C   UNL     1      27.037 -11.703  -5.068 -0.18 -0.00    +0.000 A 
DOCKED: ATOM      6  C   UNL     1      28.405 -11.972  -5.034 -0.10 -0.00    +0.000 A 
DOCKED: ATOM      7  C   UNL     1      28.878 -13.149  -4.439 -0.10 -0.00    +0.000 A 
DOCKED: ATOM      8  C   UNL     1      30.253 -13.419  -4.404 -0.05 -0.00    +0.000 A 
DOCKED: ATOM      9  C   UNL     1      30.724 -14.591  -3.811 -0.05 -0.00    +0.000 A 
DOCKED: ATOM     10  C   UNL     1      29.830 -15.503  -3.249 -0.13 -0.00    +0.000 A 
DOCKED: ATOM     11  C   UNL     1      28.447 -15.256  -3.272 -0.20 -0.00    +0.000 A 
DOCKED: ATOM     12  C   UNL     1      27.961 -14.072  -3.871 -0.20 -0.00    +0.000 A 
DOCKED: ATOM     13  O   UNL     1      24.379 -14.486  -3.336 -0.71 -0.00    +0.000 OA
DOCKED: ATOM     14  C   UNL     1      27.500 -16.227  -2.675 -0.29 -0.00    +0.000 C 
DOCKED: ATOM     15  O   UNL     1      27.940 -17.270  -2.119 -0.31 -0.00    +0.000 OA
DOCKED: ENDROOT
DOCKED: BRANCH   1  16
DOCKED: ATOM     16  C   UNL     1      25.117 -16.970  -2.226 -0.60 -0.00    +0.000 C 
DOCKED: BRANCH  16  17
DOCKED: ATOM     17  C   UNL     1      25.323 -17.245  -0.726 -0.64 -0.00    +0.000 C 
DOCKED: BRANCH  17  18
DOCKED: ATOM     18  C   UNL     1      24.232 -18.127  -0.090 -0.70 -0.00    +0.000 C 
DOCKED: BRANCH  18  19
DOCKED: ATOM     19  C   UNL     1      23.265 -18.786  -1.097 -0.81 -0.00    +0.000 C 
DOCKED: BRANCH  19  20
DOCKED: ATOM     20  C   UNL     1      21.819 -18.271  -1.022 -0.76 -0.00    +0.000 C 
DOCKED: BRANCH  20  22
DOCKED: ATOM     21  O   UNL     1      20.176 -19.735  -1.954 -1.86 -0.00    +0.000 OA
DOCKED: ATOM     22  C   UNL     1      20.825 -19.392  -0.929 -0.88 -0.00    +0.000 C 
DOCKED: ATOM     23  N   UNL     1      20.587 -20.048   0.318 -0.69 -0.00    +0.000 N 
DOCKED: ATOM     24  H   UNL     1      21.090 -19.772   1.119 -0.48 -0.00    +0.000 HD
DOCKED: BRANCH  23  25
DOCKED: ATOM     25  O   UNL     1      19.675 -21.046   0.409 -0.75 -0.00    +0.000 OA
DOCKED: ATOM     26  H   UNL     1      19.276 -21.199  -0.462 -0.40 -0.00    +0.000 HD
DOCKED: ENDBRANCH  23  25
DOCKED: ENDBRANCH  20  22
DOCKED: ENDBRANCH  19  20
DOCKED: ENDBRANCH  18  19
DOCKED: ENDBRANCH  17  18
DOCKED: ENDBRANCH  16  17
DOCKED: ENDBRANCH   1  16
DOCKED: TORSDOF 7
DOCKED: TER
DOCKED: ENDMDL
________________________________________________________________________________


	BEGINNING GENETIC ALGORITHM DOCKING 8 of 100
Run: 8 Seed: 1813889387 335261930 [ Run 8 of 100 GA/GALS ]
Beginning LAMARCKIAN GENETIC ALGORITHM (LGA), with a maximum of 2500000 energy evaluations.

Final-Value: -13.704


	FINAL GENETIC ALGORITHM DOCKED STATE
	_______________________________________________


Detailed state:  trans 27.704 -16.570 -1.699 quatxyzw 0.400058 -0.298090 0.558357 0.662822 center 0.154 0.112 -0.159 ntor 7 -1.5713 -103.9631 -173.5213 -161.8823 -158.7208 71.5609 171.9491
State:	 27.704 -16.570  -1.699   0.534 -0.398  0.746 96.969     -1.57 -103.96 -173.52 -161.88 -158.72   71.56  171.95

DOCKED: MODEL        8
DOCKED: USER    Run = 8
DOCKED: USER    DPF = ligand_dock.biased.dpf
DOCKED: USER  
DOCKED: USER    Estimated Free Energy of Binding    =  -10.36 kcal/mol  [=(1)+(2)+(3)-(4)]
DOCKED: USER    Estimated Inhibition Constant, Ki   =   25.67 nM (nanomolar)  [Temperature = 298.15 K]
DOCKED: USER    
DOCKED: USER    (1) Final Intermolecular Energy     =  -12.44 kcal/mol
DOCKED: USER        vdW + Hbond + desolv Energy     =  -12.44 kcal/mol
DOCKED: USER        Electrostatic Energy            =   +0.00 kcal/mol
DOCKED: USER    (2) Final Total Internal Energy     =   -1.26 kcal/mol
DOCKED: USER    (3) Torsional Free Energy           =   +2.09 kcal/mol
DOCKED: USER    (4) Unbound System's Energy  [=(2)] =   -1.26 kcal/mol
DOCKED: USER    
DOCKED: USER    
DOCKED: USER    NEWDPF move ligand.pdbqt
DOCKED: USER    NEWDPF about 0.154000 0.112000 -0.159000
DOCKED: USER    NEWDPF tran0 27.704387 -16.569691 -1.698584
DOCKED: USER    NEWDPF quaternion0 0.400058 -0.298090 0.558357 0.662822
DOCKED: USER    NEWDPF axisangle0 0.534281 -0.398103 0.745692 96.969079
DOCKED: USER    NEWDPF quat0 0.534281 -0.398103 0.745692 96.969079
DOCKED: USER    NEWDPF dihe0 -1.57 -103.96 -173.52 -161.88 -158.72 71.56 171.95 
DOCKED: USER  keepresnum = 1 
DOCKED: USER  
DOCKED: REMARK  Name = 
DOCKED: REMARK  7 active torsions:
DOCKED: REMARK  status: ('A' for Active; 'I' for Inactive)
DOCKED: REMARK    1  A    between atoms: C_2  and  C_5
DOCKED: REMARK    2  A    between atoms: N_3  and  O_4
DOCKED: REMARK    3  A    between atoms: C_5  and  C_6
DOCKED: REMARK    4  A    between atoms: C_6  and  C_7
DOCKED: REMARK    5  A    between atoms: C_7  and  C_8
DOCKED: REMARK    6  A    between atoms: C_8  and  C_9
DOCKED: REMARK    7  A    between atoms: C_9  and  N_10
DOCKED: REMARK                            x       y       z     vdW  Elec       q    Type
DOCKED: REMARK                         _______ _______ _______ _____ _____    ______ ____
DOCKED: USER                              x       y       z     vdW  Elec       q    Type
DOCKED: USER                           _______ _______ _______ _____ _____    ______ ____
DOCKED: ROOT
DOCKED: ATOM      1  N   UNL     1      26.256 -16.234  -1.512 -0.42 -0.00    +0.000 N 
DOCKED: ATOM      2  C   UNL     1      25.927 -15.646  -2.786 -0.52 -0.00    +0.000 C 
DOCKED: ATOM      3  C   UNL     1      26.244 -14.225  -3.052 -0.35 -0.00    +0.000 A 
DOCKED: ATOM      4  C   UNL     1      25.950 -13.649  -4.301 -0.38 -0.00    +0.000 A 
DOCKED: ATOM      5  C   UNL     1      26.252 -12.310  -4.552 -0.28 -0.00    +0.000 A 
DOCKED: ATOM      6  C   UNL     1      26.849 -11.526  -3.567 -0.14 -0.00    +0.000 A 
DOCKED: ATOM      7  C   UNL     1      27.152 -12.076  -2.314 -0.08 -0.00    +0.000 A 
DOCKED: ATOM      8  C   UNL     1      27.750 -11.287  -1.322 -0.09 -0.00    +0.000 A 
DOCKED: ATOM      9  C   UNL     1      28.051 -11.834  -0.075 -0.09 -0.00    +0.000 A 
DOCKED: ATOM     10  C   UNL     1      27.756 -13.171   0.196 -0.16 -0.00    +0.000 A 
DOCKED: ATOM     11  C   UNL     1      27.155 -13.983  -0.782 -0.22 -0.00    +0.000 A 
DOCKED: ATOM     12  C   UNL     1      26.849 -13.437  -2.048 -0.16 -0.00    +0.000 A 
DOCKED: ATOM     13  O   UNL     1      25.365 -16.342  -3.676 -0.54 -0.00    +0.000 OA
DOCKED: ATOM     14  C   UNL     1      26.845 -15.402  -0.492 -0.36 -0.00    +0.000 C 
DOCKED: ATOM     15  O   UNL     1      27.096 -15.879   0.648 -0.34 -0.00    +0.000 OA
DOCKED: ENDROOT
DOCKED: BRANCH   1  16
DOCKED: ATOM     16  C   UNL     1      26.022 -17.670  -1.278 -0.52 -0.00    +0.000 C 
DOCKED: BRANCH  16  17
DOCKED: ATOM     17  C   UNL     1      24.903 -17.898  -0.247 -0.69 -0.00    +0.000 C 
DOCKED: BRANCH  17  18
DOCKED: ATOM     18  C   UNL     1      23.891 -18.990  -0.645 -0.68 -0.00    +0.000 C 
DOCKED: BRANCH  18  19
DOCKED: ATOM     19  C   UNL     1      22.682 -18.484  -1.461 -0.67 -0.00    +0.000 C 
DOCKED: BRANCH  19  20
DOCKED: ATOM     20  C   UNL     1      21.428 -18.186  -0.622 -0.77 -0.00    +0.000 C 
DOCKED: BRANCH  20  22
DOCKED: ATOM     21  O   UNL     1      20.267 -19.740  -2.018 -1.85 -0.00    +0.000 OA
DOCKED: ATOM     22  C   UNL     1      20.320 -19.160  -0.900 -0.89 -0.00    +0.000 C 
DOCKED: ATOM     23  N   UNL     1      19.309 -19.405   0.080 -0.75 -0.00    +0.000 N 
DOCKED: ATOM     24  H   UNL     1      19.349 -18.944   0.949 -0.27 -0.00    +0.000 HD
DOCKED: BRANCH  23  25
DOCKED: ATOM     25  O   UNL     1      18.296 -20.267  -0.177 -0.82 -0.00    +0.000 OA
DOCKED: ATOM     26  H   UNL     1      18.388 -20.615  -1.078 -0.39 -0.00    +0.000 HD
DOCKED: ENDBRANCH  23  25
DOCKED: ENDBRANCH  20  22
DOCKED: ENDBRANCH  19  20
DOCKED: ENDBRANCH  18  19
DOCKED: ENDBRANCH  17  18
DOCKED: ENDBRANCH  16  17
DOCKED: ENDBRANCH   1  16
DOCKED: TORSDOF 7
DOCKED: TER
DOCKED: ENDMDL
________________________________________________________________________________


	BEGINNING GENETIC ALGORITHM DOCKING 9 of 100
Run: 9 Seed: 1889072567 1088240205 [ Run 9 of 100 GA/GALS ]
Beginning LAMARCKIAN GENETIC ALGORITHM (LGA), with a maximum of 2500000 energy evaluations.

Final-Value: -14.464


	FINAL GENETIC ALGORITHM DOCKED STATE
	_______________________________________________


Detailed state:  trans 26.783 -15.970 -2.310 quatxyzw 0.273634 -0.350436 0.664695 0.600416 center 0.154 0.112 -0.159 ntor 7 -2.0705 79.4071 106.9559 -138.3559 -16.0862 60.4432 48.4776
State:	 26.783 -15.970  -2.310   0.342 -0.438  0.831 106.201     -2.07   79.41  106.96 -138.36  -16.09   60.44   48.48

DOCKED: MODEL        9
DOCKED: USER    Run = 9
DOCKED: USER    DPF = ligand_dock.biased.dpf
DOCKED: USER  
DOCKED: USER    Estimated Free Energy of Binding    =  -11.13 kcal/mol  [=(1)+(2)+(3)-(4)]
DOCKED: USER    Estimated Inhibition Constant, Ki   =    6.98 nM (nanomolar)  [Temperature = 298.15 K]
DOCKED: USER    
DOCKED: USER    (1) Final Intermolecular Energy     =  -13.21 kcal/mol
DOCKED: USER        vdW + Hbond + desolv Energy     =  -13.21 kcal/mol
DOCKED: USER        Electrostatic Energy            =   +0.00 kcal/mol
DOCKED: USER    (2) Final Total Internal Energy     =   -1.25 kcal/mol
DOCKED: USER    (3) Torsional Free Energy           =   +2.09 kcal/mol
DOCKED: USER    (4) Unbound System's Energy  [=(2)] =   -1.25 kcal/mol
DOCKED: USER    
DOCKED: USER    
DOCKED: USER    NEWDPF move ligand.pdbqt
DOCKED: USER    NEWDPF about 0.154000 0.112000 -0.159000
DOCKED: USER    NEWDPF tran0 26.782765 -15.970440 -2.309691
DOCKED: USER    NEWDPF quaternion0 0.273634 -0.350436 0.664695 0.600416
DOCKED: USER    NEWDPF axisangle0 0.342176 -0.438216 0.831193 106.200546
DOCKED: USER    NEWDPF quat0 0.342176 -0.438216 0.831193 106.200546
DOCKED: USER    NEWDPF dihe0 -2.07 79.41 106.96 -138.36 -16.09 60.44 48.48 
DOCKED: USER  keepresnum = 1 
DOCKED: USER  
DOCKED: REMARK  Name = 
DOCKED: REMARK  7 active torsions:
DOCKED: REMARK  status: ('A' for Active; 'I' for Inactive)
DOCKED: REMARK    1  A    between atoms: C_2  and  C_5
DOCKED: REMARK    2  A    between atoms: N_3  and  O_4
DOCKED: REMARK    3  A    between atoms: C_5  and  C_6
DOCKED: REMARK    4  A    between atoms: C_6  and  C_7
DOCKED: REMARK    5  A    between atoms: C_7  and  C_8
DOCKED: REMARK    6  A    between atoms: C_8  and  C_9
DOCKED: REMARK    7  A    between atoms: C_9  and  N_10
DOCKED: REMARK                            x       y       z     vdW  Elec       q    Type
DOCKED: REMARK                         _______ _______ _______ _____ _____    ______ ____
DOCKED: USER                              x       y       z     vdW  Elec       q    Type
DOCKED: USER                           _______ _______ _______ _____ _____    ______ ____
DOCKED: ROOT
DOCKED: ATOM      1  N   UNL     1      25.503 -15.195  -2.225 -0.44 -0.00    +0.000 N 
DOCKED: ATOM      2  C   UNL     1      25.553 -14.419  -3.438 -0.51 -0.00    +0.000 C 
DOCKED: ATOM      3  C   UNL     1      26.336 -13.163  -3.484 -0.24 -0.00    +0.000 A 
DOCKED: ATOM      4  C   UNL     1      26.411 -12.411  -4.670 -0.27 -0.00    +0.000 A 
DOCKED: ATOM      5  C   UNL     1      27.152 -11.228  -4.713 -0.15 -0.00    +0.000 A 
DOCKED: ATOM      6  C   UNL     1      27.826 -10.778  -3.579 -0.08 -0.00    +0.000 A 
DOCKED: ATOM      7  C   UNL     1      27.766 -11.508  -2.385 -0.09 -0.00    +0.000 A 
DOCKED: ATOM      8  C   UNL     1      28.442 -11.054  -1.245 -0.06 -0.00    +0.000 A 
DOCKED: ATOM      9  C   UNL     1      28.381 -11.782  -0.056 -0.07 -0.00    +0.000 A 
DOCKED: ATOM     10  C   UNL     1      27.646 -12.966   0.008 -0.16 -0.00    +0.000 A 
DOCKED: ATOM     11  C   UNL     1      26.959 -13.443  -1.122 -0.18 -0.00    +0.000 A 
DOCKED: ATOM     12  C   UNL     1      27.016 -12.713  -2.330 -0.12 -0.00    +0.000 A 
DOCKED: ATOM     13  O   UNL     1      24.927 -14.806  -4.463 -0.92 -0.00    +0.000 OA
DOCKED: ATOM     14  C   UNL     1      26.180 -14.701  -1.052 -0.36 -0.00    +0.000 C 
DOCKED: ATOM     15  O   UNL     1      26.110 -15.335   0.035 -0.31 -0.00    +0.000 OA
DOCKED: ENDROOT
DOCKED: BRANCH   1  16
DOCKED: ATOM     16  C   UNL     1      24.799 -16.489  -2.205 -0.54 -0.00    +0.000 C 
DOCKED: BRANCH  16  17
DOCKED: ATOM     17  C   UNL     1      25.720 -17.625  -1.726 -0.37 -0.00    +0.000 C 
DOCKED: BRANCH  17  18
DOCKED: ATOM     18  C   UNL     1      25.177 -18.411  -0.518 -0.67 -0.00    +0.000 C 
DOCKED: BRANCH  18  19
DOCKED: ATOM     19  C   UNL     1      23.746 -18.961  -0.694 -0.75 -0.00    +0.000 C 
DOCKED: BRANCH  19  20
DOCKED: ATOM     20  C   UNL     1      22.643 -17.891  -0.646 -0.82 -0.00    +0.000 C 
DOCKED: BRANCH  20  22
DOCKED: ATOM     21  O   UNL     1      20.254 -17.860  -0.709 -2.21 +0.00    +0.000 OA
DOCKED: ATOM     22  C   UNL     1      21.312 -18.434  -1.081 -0.74 -0.00    +0.000 C 
DOCKED: ATOM     23  N   UNL     1      21.239 -19.615  -1.883 -0.50 -0.00    +0.000 N 
DOCKED: ATOM     24  H   UNL     1      22.068 -20.066  -2.165 -0.55 -0.00    +0.000 HD
DOCKED: BRANCH  23  25
DOCKED: ATOM     25  O   UNL     1      20.039 -20.119  -2.259 -1.76 -0.00    +0.000 OA
DOCKED: ATOM     26  H   UNL     1      19.328 -19.582  -1.875 -0.36 -0.00    +0.000 HD
DOCKED: ENDBRANCH  23  25
DOCKED: ENDBRANCH  20  22
DOCKED: ENDBRANCH  19  20
DOCKED: ENDBRANCH  18  19
DOCKED: ENDBRANCH  17  18
DOCKED: ENDBRANCH  16  17
DOCKED: ENDBRANCH   1  16
DOCKED: TORSDOF 7
DOCKED: TER
DOCKED: ENDMDL
________________________________________________________________________________


	BEGINNING GENETIC ALGORITHM DOCKING 10 of 100
Run: 10 Seed: 351287649 285558207 [ Run 10 of 100 GA/GALS ]
Beginning LAMARCKIAN GENETIC ALGORITHM (LGA), with a maximum of 2500000 energy evaluations.

Final-Value: -14.422


	FINAL GENETIC ALGORITHM DOCKED STATE
	_______________________________________________


Detailed state:  trans 27.026 -17.735 -2.281 quatxyzw 0.382944 -0.586699 0.713485 0.008748 center 0.154 0.112 -0.159 ntor 7 19.7276 -45.3002 180.0000 -178.3175 165.9602 177.0612 8.6357
State:	 27.026 -17.735  -2.281   0.383 -0.587  0.714 178.998     19.73  -45.30  180.00 -178.32  165.96  177.06    8.64

DOCKED: MODEL       10
DOCKED: USER    Run = 10
DOCKED: USER    DPF = ligand_dock.biased.dpf
DOCKED: USER  
DOCKED: USER    Estimated Free Energy of Binding    =  -11.25 kcal/mol  [=(1)+(2)+(3)-(4)]
DOCKED: USER    Estimated Inhibition Constant, Ki   =    5.66 nM (nanomolar)  [Temperature = 298.15 K]
DOCKED: USER    
DOCKED: USER    (1) Final Intermolecular Energy     =  -13.34 kcal/mol
DOCKED: USER        vdW + Hbond + desolv Energy     =  -13.34 kcal/mol
DOCKED: USER        Electrostatic Energy            =   +0.00 kcal/mol
DOCKED: USER    (2) Final Total Internal Energy     =   -1.08 kcal/mol
DOCKED: USER    (3) Torsional Free Energy           =   +2.09 kcal/mol
DOCKED: USER    (4) Unbound System's Energy  [=(2)] =   -1.08 kcal/mol
DOCKED: USER    
DOCKED: USER    
DOCKED: USER    NEWDPF move ligand.pdbqt
DOCKED: USER    NEWDPF about 0.154000 0.112000 -0.159000
DOCKED: USER    NEWDPF tran0 27.026447 -17.734866 -2.280615
DOCKED: USER    NEWDPF quaternion0 0.382944 -0.586699 0.713485 0.008748
DOCKED: USER    NEWDPF axisangle0 0.382959 -0.586721 0.713513 178.997553
DOCKED: USER    NEWDPF quat0 0.382959 -0.586721 0.713513 178.997553
DOCKED: USER    NEWDPF dihe0 19.73 -45.30 180.00 -178.32 165.96 177.06 8.64 
DOCKED: USER  keepresnum = 1 
DOCKED: USER  
DOCKED: REMARK  Name = 
DOCKED: REMARK  7 active torsions:
DOCKED: REMARK  status: ('A' for Active; 'I' for Inactive)
DOCKED: REMARK    1  A    between atoms: C_2  and  C_5
DOCKED: REMARK    2  A    between atoms: N_3  and  O_4
DOCKED: REMARK    3  A    between atoms: C_5  and  C_6
DOCKED: REMARK    4  A    between atoms: C_6  and  C_7
DOCKED: REMARK    5  A    between atoms: C_7  and  C_8
DOCKED: REMARK    6  A    between atoms: C_8  and  C_9
DOCKED: REMARK    7  A    between atoms: C_9  and  N_10
DOCKED: REMARK                            x       y       z     vdW  Elec       q    Type
DOCKED: REMARK                         _______ _______ _______ _____ _____    ______ ____
DOCKED: USER                              x       y       z     vdW  Elec       q    Type
DOCKED: USER                           _______ _______ _______ _____ _____    ______ ____
DOCKED: ROOT
DOCKED: ATOM      1  N   UNL     1      27.245 -16.304  -1.892 -0.33 -0.00    +0.000 N 
DOCKED: ATOM      2  C   UNL     1      26.875 -15.615  -3.102 -0.41 -0.00    +0.000 C 
DOCKED: ATOM      3  C   UNL     1      27.849 -15.485  -4.210 -0.31 -0.00    +0.000 A 
DOCKED: ATOM      4  C   UNL     1      27.490 -14.836  -5.404 -0.38 -0.00    +0.000 A 
DOCKED: ATOM      5  C   UNL     1      28.407 -14.716  -6.450 -0.30 -0.00    +0.000 A 
DOCKED: ATOM      6  C   UNL     1      29.693 -15.239  -6.321 -0.31 -0.00    +0.000 A 
DOCKED: ATOM      7  C   UNL     1      30.076 -15.890  -5.141 -0.22 -0.00    +0.000 A 
DOCKED: ATOM      8  C   UNL     1      31.369 -16.414  -5.011 -0.11 -0.00    +0.000 A 
DOCKED: ATOM      9  C   UNL     1      31.750 -17.062  -3.835 -0.08 -0.00    +0.000 A 
DOCKED: ATOM     10  C   UNL     1      30.847 -17.191  -2.779 -0.14 -0.00    +0.000 A 
DOCKED: ATOM     11  C   UNL     1      29.544 -16.673  -2.884 -0.20 -0.00    +0.000 A 
DOCKED: ATOM     12  C   UNL     1      29.150 -16.017  -4.072 -0.24 -0.00    +0.000 A 
DOCKED: ATOM     13  O   UNL     1      25.722 -15.117  -3.218 -0.55 -0.00    +0.000 OA
DOCKED: ATOM     14  C   UNL     1      28.588 -16.813  -1.762 -0.31 -0.00    +0.000 C 
DOCKED: ATOM     15  O   UNL     1      28.952 -17.376  -0.694 -0.35 -0.00    +0.000 OA
DOCKED: ENDROOT
DOCKED: BRANCH   1  16
DOCKED: ATOM     16  C   UNL     1      26.249 -16.512  -0.826 -0.51 -0.00    +0.000 C 
DOCKED: BRANCH  16  17
DOCKED: ATOM     17  C   UNL     1      25.399 -17.768  -1.085 -0.66 -0.00    +0.000 C 
DOCKED: BRANCH  17  18
DOCKED: ATOM     18  C   UNL     1      23.892 -17.490  -1.238 -0.73 -0.00    +0.000 C 
DOCKED: BRANCH  18  19
DOCKED: ATOM     19  C   UNL     1      22.985 -18.297  -0.285 -0.82 -0.00    +0.000 C 
DOCKED: BRANCH  19  20
DOCKED: ATOM     20  C   UNL     1      22.099 -19.342  -0.981 -0.75 -0.00    +0.000 C 
DOCKED: BRANCH  20  22
DOCKED: ATOM     21  O   UNL     1      20.241 -17.864  -0.707 -2.20 +0.00    +0.000 OA
DOCKED: ATOM     22  C   UNL     1      20.637 -19.057  -0.792 -0.90 -0.00    +0.000 C 
DOCKED: ATOM     23  N   UNL     1      19.700 -20.130  -0.675 -0.73 -0.00    +0.000 N 
DOCKED: ATOM     24  H   UNL     1      20.013 -21.061  -0.734 -0.44 -0.00    +0.000 HD
DOCKED: BRANCH  23  25
DOCKED: ATOM     25  O   UNL     1      18.383 -19.875  -0.483 -0.77 -0.00    +0.000 OA
DOCKED: ATOM     26  H   UNL     1      18.187 -18.965  -0.753 -0.59 -0.00    +0.000 HD
DOCKED: ENDBRANCH  23  25
DOCKED: ENDBRANCH  20  22
DOCKED: ENDBRANCH  19  20
DOCKED: ENDBRANCH  18  19
DOCKED: ENDBRANCH  17  18
DOCKED: ENDBRANCH  16  17
DOCKED: ENDBRANCH   1  16
DOCKED: TORSDOF 7
DOCKED: TER
DOCKED: ENDMDL
________________________________________________________________________________


	BEGINNING GENETIC ALGORITHM DOCKING 11 of 100
Run: 11 Seed: 1067221921 529058971 [ Run 11 of 100 GA/GALS ]
Beginning LAMARCKIAN GENETIC ALGORITHM (LGA), with a maximum of 2500000 energy evaluations.

Final-Value: -14.261


	FINAL GENETIC ALGORITHM DOCKED STATE
	_______________________________________________


Detailed state:  trans 24.975 -14.928 -3.201 quatxyzw -0.393605 0.870962 0.251768 0.152032 center 0.154 0.112 -0.159 ntor 7 -22.1912 162.3766 48.8122 -160.4576 173.3505 174.4845 -22.4684
State:	 24.975 -14.928  -3.201  -0.398  0.881  0.255 162.511    -22.19  162.38   48.81 -160.46  173.35  174.48  -22.47

DOCKED: MODEL       11
DOCKED: USER    Run = 11
DOCKED: USER    DPF = ligand_dock.biased.dpf
DOCKED: USER  
DOCKED: USER    Estimated Free Energy of Binding    =  -11.03 kcal/mol  [=(1)+(2)+(3)-(4)]
DOCKED: USER    Estimated Inhibition Constant, Ki   =    8.19 nM (nanomolar)  [Temperature = 298.15 K]
DOCKED: USER    
DOCKED: USER    (1) Final Intermolecular Energy     =  -13.12 kcal/mol
DOCKED: USER        vdW + Hbond + desolv Energy     =  -13.12 kcal/mol
DOCKED: USER        Electrostatic Energy            =   +0.00 kcal/mol
DOCKED: USER    (2) Final Total Internal Energy     =   -1.14 kcal/mol
DOCKED: USER    (3) Torsional Free Energy           =   +2.09 kcal/mol
DOCKED: USER    (4) Unbound System's Energy  [=(2)] =   -1.14 kcal/mol
DOCKED: USER    
DOCKED: USER    
DOCKED: USER    NEWDPF move ligand.pdbqt
DOCKED: USER    NEWDPF about 0.154000 0.112000 -0.159000
DOCKED: USER    NEWDPF tran0 24.974630 -14.927593 -3.201311
DOCKED: USER    NEWDPF quaternion0 -0.393605 0.870962 0.251768 0.152032
DOCKED: USER    NEWDPF axisangle0 -0.398234 0.881205 0.254729 162.510649
DOCKED: USER    NEWDPF quat0 -0.398234 0.881205 0.254729 162.510649
DOCKED: USER    NEWDPF dihe0 -22.19 162.38 48.81 -160.46 173.35 174.48 -22.47 
DOCKED: USER  keepresnum = 1 
DOCKED: USER  
DOCKED: REMARK  Name = 
DOCKED: REMARK  7 active torsions:
DOCKED: REMARK  status: ('A' for Active; 'I' for Inactive)
DOCKED: REMARK    1  A    between atoms: C_2  and  C_5
DOCKED: REMARK    2  A    between atoms: N_3  and  O_4
DOCKED: REMARK    3  A    between atoms: C_5  and  C_6
DOCKED: REMARK    4  A    between atoms: C_6  and  C_7
DOCKED: REMARK    5  A    between atoms: C_7  and  C_8
DOCKED: REMARK    6  A    between atoms: C_8  and  C_9
DOCKED: REMARK    7  A    between atoms: C_9  and  N_10
DOCKED: REMARK                            x       y       z     vdW  Elec       q    Type
DOCKED: REMARK                         _______ _______ _______ _____ _____    ______ ____
DOCKED: USER                              x       y       z     vdW  Elec       q    Type
DOCKED: USER                           _______ _______ _______ _____ _____    ______ ____
DOCKED: ROOT
DOCKED: ATOM      1  N   UNL     1      26.385 -15.292  -2.851 -0.39 -0.00    +0.000 N 
DOCKED: ATOM      2  C   UNL     1      26.621 -14.464  -1.695 -0.31 -0.00    +0.000 C 
DOCKED: ATOM      3  C   UNL     1      27.008 -13.045  -1.865 -0.14 -0.00    +0.000 A 
DOCKED: ATOM      4  C   UNL     1      27.215 -12.222  -0.744 -0.12 -0.00    +0.000 A 
DOCKED: ATOM      5  C   UNL     1      27.577 -10.884  -0.905 -0.10 -0.00    +0.000 A 
DOCKED: ATOM      6  C   UNL     1      27.737 -10.346  -2.181 -0.08 -0.00    +0.000 A 
DOCKED: ATOM      7  C   UNL     1      27.537 -11.146  -3.314 -0.10 -0.00    +0.000 A 
DOCKED: ATOM      8  C   UNL     1      27.700 -10.605  -4.597 -0.08 -0.00    +0.000 A 
DOCKED: ATOM      9  C   UNL     1      27.501 -11.402  -5.725 -0.14 -0.00    +0.000 A 
DOCKED: ATOM     10  C   UNL     1      27.139 -12.743  -5.585 -0.16 -0.00    +0.000 A 
DOCKED: ATOM     11  C   UNL     1      26.970 -13.308  -4.309 -0.27 -0.00    +0.000 A 
DOCKED: ATOM     12  C   UNL     1      27.168 -12.508  -3.162 -0.16 -0.00    +0.000 A 
DOCKED: ATOM     13  O   UNL     1      26.502 -14.948  -0.536 -0.36 -0.00    +0.000 OA
DOCKED: ATOM     14  C   UNL     1      26.585 -14.731  -4.164 -0.49 -0.00    +0.000 C 
DOCKED: ATOM     15  O   UNL     1      26.434 -15.448  -5.190 -1.10 +0.00    +0.000 OA
DOCKED: ENDROOT
DOCKED: BRANCH   1  16
DOCKED: ATOM     16  C   UNL     1      25.914 -16.678  -2.683 -0.31 -0.00    +0.000 C 
DOCKED: BRANCH  16  17
DOCKED: ATOM     17  C   UNL     1      24.647 -16.741  -1.812 -0.62 -0.00    +0.000 C 
DOCKED: BRANCH  17  18
DOCKED: ATOM     18  C   UNL     1      24.790 -17.614  -0.551 -0.69 -0.00    +0.000 C 
DOCKED: BRANCH  18  19
DOCKED: ATOM     19  C   UNL     1      23.845 -18.833  -0.498 -0.68 -0.00    +0.000 C 
DOCKED: BRANCH  19  20
DOCKED: ATOM     20  C   UNL     1      22.533 -18.589   0.265 -0.62 -0.00    +0.000 C 
DOCKED: BRANCH  20  22
DOCKED: ATOM     21  O   UNL     1      20.628 -17.540  -0.726 -2.11 +0.00    +0.000 OA
DOCKED: ATOM     22  C   UNL     1      21.343 -18.575  -0.651 -0.85 -0.00    +0.000 C 
DOCKED: ATOM     23  N   UNL     1      20.999 -19.737  -1.409 -0.75 -0.00    +0.000 N 
DOCKED: ATOM     24  H   UNL     1      21.555 -20.546  -1.342 -0.17 -0.00    +0.000 HD
DOCKED: BRANCH  23  25
DOCKED: ATOM     25  O   UNL     1      19.913 -19.733  -2.220 -1.88 -0.00    +0.000 OA
DOCKED: ATOM     26  H   UNL     1      19.295 -19.044  -1.930 -0.43 -0.00    +0.000 HD
DOCKED: ENDBRANCH  23  25
DOCKED: ENDBRANCH  20  22
DOCKED: ENDBRANCH  19  20
DOCKED: ENDBRANCH  18  19
DOCKED: ENDBRANCH  17  18
DOCKED: ENDBRANCH  16  17
DOCKED: ENDBRANCH   1  16
DOCKED: TORSDOF 7
DOCKED: TER
DOCKED: ENDMDL
________________________________________________________________________________


	BEGINNING GENETIC ALGORITHM DOCKING 12 of 100
Run: 12 Seed: 1994217641 457543343 [ Run 12 of 100 GA/GALS ]
Beginning LAMARCKIAN GENETIC ALGORITHM (LGA), with a maximum of 2500000 energy evaluations.

Final-Value: -13.984


	FINAL GENETIC ALGORITHM DOCKED STATE
	_______________________________________________


Detailed state:  trans 27.980 -15.047 -1.716 quatxyzw 0.405242 0.705499 0.443505 0.375970 center 0.154 0.112 -0.159 ntor 7 -14.5560 3.0898 177.7006 -165.1549 152.9639 166.0943 -173.9901
State:	 27.980 -15.047  -1.716   0.437  0.761  0.479 135.831    -14.56    3.09  177.70 -165.15  152.96  166.09 -173.99

DOCKED: MODEL       12
DOCKED: USER    Run = 12
DOCKED: USER    DPF = ligand_dock.biased.dpf
DOCKED: USER  
DOCKED: USER    Estimated Free Energy of Binding    =  -10.79 kcal/mol  [=(1)+(2)+(3)-(4)]
DOCKED: USER    Estimated Inhibition Constant, Ki   =   12.24 nM (nanomolar)  [Temperature = 298.15 K]
DOCKED: USER    
DOCKED: USER    (1) Final Intermolecular Energy     =  -12.88 kcal/mol
DOCKED: USER        vdW + Hbond + desolv Energy     =  -12.88 kcal/mol
DOCKED: USER        Electrostatic Energy            =   +0.00 kcal/mol
DOCKED: USER    (2) Final Total Internal Energy     =   -1.10 kcal/mol
DOCKED: USER    (3) Torsional Free Energy           =   +2.09 kcal/mol
DOCKED: USER    (4) Unbound System's Energy  [=(2)] =   -1.10 kcal/mol
DOCKED: USER    
DOCKED: USER    
DOCKED: USER    NEWDPF move ligand.pdbqt
DOCKED: USER    NEWDPF about 0.154000 0.112000 -0.159000
DOCKED: USER    NEWDPF tran0 27.979799 -15.046947 -1.716392
DOCKED: USER    NEWDPF quaternion0 0.405242 0.705499 0.443505 0.375970
DOCKED: USER    NEWDPF axisangle0 0.437328 0.761359 0.478620 135.831462
DOCKED: USER    NEWDPF quat0 0.437328 0.761359 0.478620 135.831462
DOCKED: USER    NEWDPF dihe0 -14.56 3.09 177.70 -165.15 152.96 166.09 -173.99 
DOCKED: USER  keepresnum = 1 
DOCKED: USER  
DOCKED: REMARK  Name = 
DOCKED: REMARK  7 active torsions:
DOCKED: REMARK  status: ('A' for Active; 'I' for Inactive)
DOCKED: REMARK    1  A    between atoms: C_2  and  C_5
DOCKED: REMARK    2  A    between atoms: N_3  and  O_4
DOCKED: REMARK    3  A    between atoms: C_5  and  C_6
DOCKED: REMARK    4  A    between atoms: C_6  and  C_7
DOCKED: REMARK    5  A    between atoms: C_7  and  C_8
DOCKED: REMARK    6  A    between atoms: C_8  and  C_9
DOCKED: REMARK    7  A    between atoms: C_9  and  N_10
DOCKED: REMARK                            x       y       z     vdW  Elec       q    Type
DOCKED: REMARK                         _______ _______ _______ _____ _____    ______ ____
DOCKED: USER                              x       y       z     vdW  Elec       q    Type
DOCKED: USER                           _______ _______ _______ _____ _____    ______ ____
DOCKED: ROOT
DOCKED: ATOM      1  N   UNL     1      27.610 -16.419  -2.193 -0.32 -0.00    +0.000 N 
DOCKED: ATOM      2  C   UNL     1      28.898 -17.063  -2.251 -0.23 -0.00    +0.000 C 
DOCKED: ATOM      3  C   UNL     1      29.774 -16.867  -3.428 -0.21 -0.00    +0.000 A 
DOCKED: ATOM      4  C   UNL     1      31.042 -17.471  -3.483 -0.15 -0.00    +0.000 A 
DOCKED: ATOM      5  C   UNL     1      31.869 -17.284  -4.593 -0.09 -0.00    +0.000 A 
DOCKED: ATOM      6  C   UNL     1      31.445 -16.495  -5.661 -0.14 -0.00    +0.000 A 
DOCKED: ATOM      7  C   UNL     1      30.185 -15.883  -5.631 -0.25 -0.00    +0.000 A 
DOCKED: ATOM      8  C   UNL     1      29.758 -15.091  -6.705 -0.30 -0.00    +0.000 A 
DOCKED: ATOM      9  C   UNL     1      28.503 -14.482  -6.675 -0.30 -0.00    +0.000 A 
DOCKED: ATOM     10  C   UNL     1      27.662 -14.658  -5.575 -0.36 -0.00    +0.000 A 
DOCKED: ATOM     11  C   UNL     1      28.067 -15.447  -4.485 -0.32 -0.00    +0.000 A 
DOCKED: ATOM     12  C   UNL     1      29.337 -16.067  -4.507 -0.26 -0.00    +0.000 A 
DOCKED: ATOM     13  O   UNL     1      29.280 -17.799  -1.299 -0.32 -0.00    +0.000 OA
DOCKED: ATOM     14  C   UNL     1      27.173 -15.631  -3.318 -0.38 -0.00    +0.000 C 
DOCKED: ATOM     15  O   UNL     1      26.030 -15.098  -3.314 -0.50 -0.00    +0.000 OA
DOCKED: ENDROOT
DOCKED: BRANCH   1  16
DOCKED: ATOM     16  C   UNL     1      26.777 -16.541  -0.983 -0.47 -0.00    +0.000 C 
DOCKED: BRANCH  16  17
DOCKED: ATOM     17  C   UNL     1      25.710 -17.639  -1.142 -0.61 -0.00    +0.000 C 
DOCKED: BRANCH  17  18
DOCKED: ATOM     18  C   UNL     1      24.284 -17.192  -0.771 -0.69 -0.00    +0.000 C 
DOCKED: BRANCH  18  19
DOCKED: ATOM     19  C   UNL     1      23.473 -18.225   0.040 -0.74 -0.00    +0.000 C 
DOCKED: BRANCH  19  20
DOCKED: ATOM     20  C   UNL     1      22.489 -19.060  -0.796 -0.82 -0.00    +0.000 C 
DOCKED: BRANCH  20  22
DOCKED: ATOM     21  O   UNL     1      20.415 -17.877  -0.708 -2.27 -0.00    +0.000 OA
DOCKED: ATOM     22  C   UNL     1      21.071 -18.886  -0.336 -0.82 -0.00    +0.000 C 
DOCKED: ATOM     23  N   UNL     1      20.474 -19.839   0.547 -0.69 -0.00    +0.000 N 
DOCKED: ATOM     24  H   UNL     1      20.992 -20.623   0.843 -0.58 -0.00    +0.000 HD
DOCKED: BRANCH  23  25
DOCKED: ATOM     25  O   UNL     1      19.201 -19.673   0.981 -0.77 -0.00    +0.000 OA
DOCKED: ATOM     26  H   UNL     1      18.913 -18.766   0.797 -0.32 -0.00    +0.000 HD
DOCKED: ENDBRANCH  23  25
DOCKED: ENDBRANCH  20  22
DOCKED: ENDBRANCH  19  20
DOCKED: ENDBRANCH  18  19
DOCKED: ENDBRANCH  17  18
DOCKED: ENDBRANCH  16  17
DOCKED: ENDBRANCH   1  16
DOCKED: TORSDOF 7
DOCKED: TER
DOCKED: ENDMDL
________________________________________________________________________________


	BEGINNING GENETIC ALGORITHM DOCKING 13 of 100
Run: 13 Seed: 732074320 1440570754 [ Run 13 of 100 GA/GALS ]
Beginning LAMARCKIAN GENETIC ALGORITHM (LGA), with a maximum of 2500000 energy evaluations.

Final-Value: -14.027


	FINAL GENETIC ALGORITHM DOCKED STATE
	_______________________________________________


Detailed state:  trans 27.174 -15.636 -1.335 quatxyzw -0.386635 0.160779 -0.777159 -0.469774 center 0.154 0.112 -0.159 ntor 7 -9.8751 166.2787 135.3716 -173.2891 -55.4792 143.3281 14.4025
State:	 27.174 -15.636  -1.335  -0.438  0.182 -0.880 -123.961     -9.88  166.28  135.37 -173.29  -55.48  143.33   14.40

DOCKED: MODEL       13
DOCKED: USER    Run = 13
DOCKED: USER    DPF = ligand_dock.biased.dpf
DOCKED: USER  
DOCKED: USER    Estimated Free Energy of Binding    =  -10.66 kcal/mol  [=(1)+(2)+(3)-(4)]
DOCKED: USER    Estimated Inhibition Constant, Ki   =   15.42 nM (nanomolar)  [Temperature = 298.15 K]
DOCKED: USER    
DOCKED: USER    (1) Final Intermolecular Energy     =  -12.75 kcal/mol
DOCKED: USER        vdW + Hbond + desolv Energy     =  -12.75 kcal/mol
DOCKED: USER        Electrostatic Energy            =   +0.00 kcal/mol
DOCKED: USER    (2) Final Total Internal Energy     =   -1.28 kcal/mol
DOCKED: USER    (3) Torsional Free Energy           =   +2.09 kcal/mol
DOCKED: USER    (4) Unbound System's Energy  [=(2)] =   -1.28 kcal/mol
DOCKED: USER    
DOCKED: USER    
DOCKED: USER    NEWDPF move ligand.pdbqt
DOCKED: USER    NEWDPF about 0.154000 0.112000 -0.159000
DOCKED: USER    NEWDPF tran0 27.174479 -15.636487 -1.334770
DOCKED: USER    NEWDPF quaternion0 -0.386635 0.160779 -0.777159 -0.469774
DOCKED: USER    NEWDPF axisangle0 -0.437971 0.182126 -0.880347 -123.960730
DOCKED: USER    NEWDPF quat0 -0.437971 0.182126 -0.880347 -123.960730
DOCKED: USER    NEWDPF dihe0 -9.88 166.28 135.37 -173.29 -55.48 143.33 14.40 
DOCKED: USER  keepresnum = 1 
DOCKED: USER  
DOCKED: REMARK  Name = 
DOCKED: REMARK  7 active torsions:
DOCKED: REMARK  status: ('A' for Active; 'I' for Inactive)
DOCKED: REMARK    1  A    between atoms: C_2  and  C_5
DOCKED: REMARK    2  A    between atoms: N_3  and  O_4
DOCKED: REMARK    3  A    between atoms: C_5  and  C_6
DOCKED: REMARK    4  A    between atoms: C_6  and  C_7
DOCKED: REMARK    5  A    between atoms: C_7  and  C_8
DOCKED: REMARK    6  A    between atoms: C_8  and  C_9
DOCKED: REMARK    7  A    between atoms: C_9  and  N_10
DOCKED: REMARK                            x       y       z     vdW  Elec       q    Type
DOCKED: REMARK                         _______ _______ _______ _____ _____    ______ ____
DOCKED: USER                              x       y       z     vdW  Elec       q    Type
DOCKED: USER                           _______ _______ _______ _____ _____    ______ ____
DOCKED: ROOT
DOCKED: ATOM      1  N   UNL     1      26.009 -14.797  -1.763 -0.35 -0.00    +0.000 N 
DOCKED: ATOM      2  C   UNL     1      26.177 -14.776  -3.194 -0.47 -0.00    +0.000 C 
DOCKED: ATOM      3  C   UNL     1      27.121 -13.820  -3.816 -0.27 -0.00    +0.000 A 
DOCKED: ATOM      4  C   UNL     1      27.310 -13.808  -5.210 -0.29 -0.00    +0.000 A 
DOCKED: ATOM      5  C   UNL     1      28.202 -12.908  -5.796 -0.20 -0.00    +0.000 A 
DOCKED: ATOM      6  C   UNL     1      28.917 -12.010  -5.006 -0.08 -0.00    +0.000 A 
DOCKED: ATOM      7  C   UNL     1      28.745 -12.001  -3.615 -0.06 -0.00    +0.000 A 
DOCKED: ATOM      8  C   UNL     1      29.463 -11.097  -2.820 -0.02 -0.00    +0.000 A 
DOCKED: ATOM      9  C   UNL     1      29.292 -11.088  -1.436 -0.03 -0.00    +0.000 A 
DOCKED: ATOM     10  C   UNL     1      28.404 -11.979  -0.831 -0.07 -0.00    +0.000 A 
DOCKED: ATOM     11  C   UNL     1      27.673 -12.896  -1.606 -0.12 -0.00    +0.000 A 
DOCKED: ATOM     12  C   UNL     1      27.841 -12.912  -3.009 -0.12 -0.00    +0.000 A 
DOCKED: ATOM     13  O   UNL     1      25.516 -15.569  -3.920 -0.72 -0.00    +0.000 OA
DOCKED: ATOM     14  C   UNL     1      26.732 -13.841  -0.961 -0.26 -0.00    +0.000 C 
DOCKED: ATOM     15  O   UNL     1      26.565 -13.806   0.288 -0.35 -0.00    +0.000 OA
DOCKED: ENDROOT
DOCKED: BRANCH   1  16
DOCKED: ATOM     16  C   UNL     1      25.138 -15.807  -1.136 -0.43 -0.00    +0.000 C 
DOCKED: BRANCH  16  17
DOCKED: ATOM     17  C   UNL     1      25.922 -17.080  -0.772 -0.59 -0.00    +0.000 C 
DOCKED: BRANCH  17  18
DOCKED: ATOM     18  C   UNL     1      25.068 -18.362  -0.744 -0.69 -0.00    +0.000 C 
DOCKED: BRANCH  18  19
DOCKED: ATOM     19  C   UNL     1      23.674 -18.224  -1.392 -0.78 -0.00    +0.000 C 
DOCKED: BRANCH  19  20
DOCKED: ATOM     20  C   UNL     1      22.506 -18.196  -0.392 -0.84 -0.00    +0.000 C 
DOCKED: BRANCH  20  22
DOCKED: ATOM     21  O   UNL     1      20.299 -17.591  -1.079 -2.07 -0.00    +0.000 OA
DOCKED: ATOM     22  C   UNL     1      21.190 -18.482  -1.055 -0.76 -0.00    +0.000 C 
DOCKED: ATOM     23  N   UNL     1      20.930 -19.767  -1.625 -0.70 -0.00    +0.000 N 
DOCKED: ATOM     24  H   UNL     1      21.626 -20.463  -1.597 -0.33 -0.00    +0.000 HD
DOCKED: BRANCH  23  25
DOCKED: ATOM     25  O   UNL     1      19.735 -20.034  -2.205 -1.65 -0.00    +0.000 OA
DOCKED: ATOM     26  H   UNL     1      19.115 -19.313  -2.015 -0.51 -0.00    +0.000 HD
DOCKED: ENDBRANCH  23  25
DOCKED: ENDBRANCH  20  22
DOCKED: ENDBRANCH  19  20
DOCKED: ENDBRANCH  18  19
DOCKED: ENDBRANCH  17  18
DOCKED: ENDBRANCH  16  17
DOCKED: ENDBRANCH   1  16
DOCKED: TORSDOF 7
DOCKED: TER
DOCKED: ENDMDL
________________________________________________________________________________


	BEGINNING GENETIC ALGORITHM DOCKING 14 of 100
Run: 14 Seed: 890248353 1447951348 [ Run 14 of 100 GA/GALS ]
Beginning LAMARCKIAN GENETIC ALGORITHM (LGA), with a maximum of 2500000 energy evaluations.

Final-Value: -13.561


	FINAL GENETIC ALGORITHM DOCKED STATE
	_______________________________________________


Detailed state:  trans 27.495 -16.047 -2.366 quatxyzw -0.316719 0.359030 -0.573008 -0.665168 center 0.154 0.112 -0.159 ntor 7 9.0537 91.8402 112.0059 -37.7231 133.0566 -179.9080 -166.5940
State:	 27.495 -16.047  -2.366  -0.424  0.481 -0.767 -96.610      9.05   91.84  112.01  -37.72  133.06 -179.91 -166.59

DOCKED: MODEL       14
DOCKED: USER    Run = 14
DOCKED: USER    DPF = ligand_dock.biased.dpf
DOCKED: USER  
DOCKED: USER    Estimated Free Energy of Binding    =  -10.29 kcal/mol  [=(1)+(2)+(3)-(4)]
DOCKED: USER    Estimated Inhibition Constant, Ki   =   28.71 nM (nanomolar)  [Temperature = 298.15 K]
DOCKED: USER    
DOCKED: USER    (1) Final Intermolecular Energy     =  -12.38 kcal/mol
DOCKED: USER        vdW + Hbond + desolv Energy     =  -12.38 kcal/mol
DOCKED: USER        Electrostatic Energy            =   +0.00 kcal/mol
DOCKED: USER    (2) Final Total Internal Energy     =   -1.18 kcal/mol
DOCKED: USER    (3) Torsional Free Energy           =   +2.09 kcal/mol
DOCKED: USER    (4) Unbound System's Energy  [=(2)] =   -1.18 kcal/mol
DOCKED: USER    
DOCKED: USER    
DOCKED: USER    NEWDPF move ligand.pdbqt
DOCKED: USER    NEWDPF about 0.154000 0.112000 -0.159000
DOCKED: USER    NEWDPF tran0 27.495336 -16.046755 -2.365829
DOCKED: USER    NEWDPF quaternion0 -0.316719 0.359030 -0.573008 -0.665168
DOCKED: USER    NEWDPF axisangle0 -0.424161 0.480826 -0.767394 -96.609594
DOCKED: USER    NEWDPF quat0 -0.424161 0.480826 -0.767394 -96.609594
DOCKED: USER    NEWDPF dihe0 9.05 91.84 112.01 -37.72 133.06 -179.91 -166.59 
DOCKED: USER  keepresnum = 1 
DOCKED: USER  
DOCKED: REMARK  Name = 
DOCKED: REMARK  7 active torsions:
DOCKED: REMARK  status: ('A' for Active; 'I' for Inactive)
DOCKED: REMARK    1  A    between atoms: C_2  and  C_5
DOCKED: REMARK    2  A    between atoms: N_3  and  O_4
DOCKED: REMARK    3  A    between atoms: C_5  and  C_6
DOCKED: REMARK    4  A    between atoms: C_6  and  C_7
DOCKED: REMARK    5  A    between atoms: C_7  and  C_8
DOCKED: REMARK    6  A    between atoms: C_8  and  C_9
DOCKED: REMARK    7  A    between atoms: C_9  and  N_10
DOCKED: REMARK                            x       y       z     vdW  Elec       q    Type
DOCKED: REMARK                         _______ _______ _______ _____ _____    ______ ____
DOCKED: USER                              x       y       z     vdW  Elec       q    Type
DOCKED: USER                           _______ _______ _______ _____ _____    ______ ____
DOCKED: ROOT
DOCKED: ATOM      1  N   UNL     1      26.088 -15.580  -2.146 -0.41 -0.00    +0.000 N 
DOCKED: ATOM      2  C   UNL     1      25.872 -14.752  -3.305 -0.51 -0.00    +0.000 C 
DOCKED: ATOM      3  C   UNL     1      26.357 -13.352  -3.318 -0.25 -0.00    +0.000 A 
DOCKED: ATOM      4  C   UNL     1      26.173 -12.543  -4.453 -0.30 -0.00    +0.000 A 
DOCKED: ATOM      5  C   UNL     1      26.632 -11.225  -4.466 -0.19 -0.00    +0.000 A 
DOCKED: ATOM      6  C   UNL     1      27.279 -10.694  -3.350 -0.10 -0.00    +0.000 A 
DOCKED: ATOM      7  C   UNL     1      27.473 -11.480  -2.206 -0.10 -0.00    +0.000 A 
DOCKED: ATOM      8  C   UNL     1      28.122 -10.946  -1.085 -0.07 -0.00    +0.000 A 
DOCKED: ATOM      9  C   UNL     1      28.315 -11.728   0.054 -0.08 -0.00    +0.000 A 
DOCKED: ATOM     10  C   UNL     1      27.862 -13.048   0.086 -0.14 -0.00    +0.000 A 
DOCKED: ATOM     11  C   UNL     1      27.209 -13.607  -1.026 -0.19 -0.00    +0.000 A 
DOCKED: ATOM     12  C   UNL     1      27.010 -12.822  -2.184 -0.12 -0.00    +0.000 A 
DOCKED: ATOM     13  O   UNL     1      25.267 -15.216  -4.310 -0.85 -0.00    +0.000 OA
DOCKED: ATOM     14  C   UNL     1      26.731 -15.008  -0.989 -0.34 -0.00    +0.000 C 
DOCKED: ATOM     15  O   UNL     1      26.887 -15.697   0.055 -0.39 -0.00    +0.000 OA
DOCKED: ENDROOT
DOCKED: BRANCH   1  16
DOCKED: ATOM     16  C   UNL     1      25.687 -16.998  -2.167 -0.51 -0.00    +0.000 C 
DOCKED: BRANCH  16  17
DOCKED: ATOM     17  C   UNL     1      24.245 -17.183  -1.662 -0.63 -0.00    +0.000 C 
DOCKED: BRANCH  17  18
DOCKED: ATOM     18  C   UNL     1      24.130 -18.009  -0.366 -0.75 -0.00    +0.000 C 
DOCKED: BRANCH  18  19
DOCKED: ATOM     19  C   UNL     1      22.748 -18.654  -0.131 -0.77 -0.00    +0.000 C 
DOCKED: BRANCH  19  20
DOCKED: ATOM     20  C   UNL     1      21.967 -18.974  -1.415 -0.70 -0.00    +0.000 C 
DOCKED: BRANCH  20  22
DOCKED: ATOM     21  O   UNL     1      19.854 -19.891  -2.051 -1.81 -0.00    +0.000 OA
DOCKED: ATOM     22  C   UNL     1      20.699 -19.726  -1.131 -0.82 -0.00    +0.000 C 
DOCKED: ATOM     23  N   UNL     1      20.431 -20.223   0.182 -0.70 -0.00    +0.000 N 
DOCKED: ATOM     24  H   UNL     1      21.090 -20.085   0.900 -0.53 -0.00    +0.000 HD
DOCKED: BRANCH  23  25
DOCKED: ATOM     25  O   UNL     1      19.277 -20.883   0.445 -0.78 -0.00    +0.000 OA
DOCKED: ATOM     26  H   UNL     1      18.809 -21.060  -0.385 -0.33 -0.00    +0.000 HD
DOCKED: ENDBRANCH  23  25
DOCKED: ENDBRANCH  20  22
DOCKED: ENDBRANCH  19  20
DOCKED: ENDBRANCH  18  19
DOCKED: ENDBRANCH  17  18
DOCKED: ENDBRANCH  16  17
DOCKED: ENDBRANCH   1  16
DOCKED: TORSDOF 7
DOCKED: TER
DOCKED: ENDMDL
________________________________________________________________________________


	BEGINNING GENETIC ALGORITHM DOCKING 15 of 100
Run: 15 Seed: 1684059864 439243979 [ Run 15 of 100 GA/GALS ]
Beginning LAMARCKIAN GENETIC ALGORITHM (LGA), with a maximum of 2500000 energy evaluations.

Final-Value: -14.318


	FINAL GENETIC ALGORITHM DOCKED STATE
	_______________________________________________


Detailed state:  trans 25.574 -14.550 -0.996 quatxyzw -0.515024 0.586102 0.625201 0.018929 center 0.154 0.112 -0.159 ntor 7 -3.3690 -180.0000 62.2228 132.2990 159.8093 -125.1869 19.9097
State:	 25.574 -14.550  -0.996  -0.515  0.586  0.625 177.831     -3.37 -180.00   62.22  132.30  159.81 -125.19   19.91

DOCKED: MODEL       15
DOCKED: USER    Run = 15
DOCKED: USER    DPF = ligand_dock.biased.dpf
DOCKED: USER  
DOCKED: USER    Estimated Free Energy of Binding    =  -10.91 kcal/mol  [=(1)+(2)+(3)-(4)]
DOCKED: USER    Estimated Inhibition Constant, Ki   =   10.12 nM (nanomolar)  [Temperature = 298.15 K]
DOCKED: USER    
DOCKED: USER    (1) Final Intermolecular Energy     =  -13.00 kcal/mol
DOCKED: USER        vdW + Hbond + desolv Energy     =  -13.00 kcal/mol
DOCKED: USER        Electrostatic Energy            =   +0.00 kcal/mol
DOCKED: USER    (2) Final Total Internal Energy     =   -1.32 kcal/mol
DOCKED: USER    (3) Torsional Free Energy           =   +2.09 kcal/mol
DOCKED: USER    (4) Unbound System's Energy  [=(2)] =   -1.32 kcal/mol
DOCKED: USER    
DOCKED: USER    
DOCKED: USER    NEWDPF move ligand.pdbqt
DOCKED: USER    NEWDPF about 0.154000 0.112000 -0.159000
DOCKED: USER    NEWDPF tran0 25.573715 -14.549988 -0.995755
DOCKED: USER    NEWDPF quaternion0 -0.515024 0.586102 0.625201 0.018929
DOCKED: USER    NEWDPF axisangle0 -0.515117 0.586207 0.625313 177.830756
DOCKED: USER    NEWDPF quat0 -0.515117 0.586207 0.625313 177.830756
DOCKED: USER    NEWDPF dihe0 -3.37 -180.00 62.22 132.30 159.81 -125.19 19.91 
DOCKED: USER  keepresnum = 1 
DOCKED: USER  
DOCKED: REMARK  Name = 
DOCKED: REMARK  7 active torsions:
DOCKED: REMARK  status: ('A' for Active; 'I' for Inactive)
DOCKED: REMARK    1  A    between atoms: C_2  and  C_5
DOCKED: REMARK    2  A    between atoms: N_3  and  O_4
DOCKED: REMARK    3  A    between atoms: C_5  and  C_6
DOCKED: REMARK    4  A    between atoms: C_6  and  C_7
DOCKED: REMARK    5  A    between atoms: C_7  and  C_8
DOCKED: REMARK    6  A    between atoms: C_8  and  C_9
DOCKED: REMARK    7  A    between atoms: C_9  and  N_10
DOCKED: REMARK                            x       y       z     vdW  Elec       q    Type
DOCKED: REMARK                         _______ _______ _______ _____ _____    ______ ____
DOCKED: USER                              x       y       z     vdW  Elec       q    Type
DOCKED: USER                           _______ _______ _______ _____ _____    ______ ____
DOCKED: ROOT
DOCKED: ATOM      1  N   UNL     1      27.068 -14.653  -1.042 -0.25 -0.00    +0.000 N 
DOCKED: ATOM      2  C   UNL     1      27.371 -15.084   0.300 -0.31 -0.00    +0.000 C 
DOCKED: ATOM      3  C   UNL     1      27.452 -14.093   1.397 -0.26 -0.00    +0.000 A 
DOCKED: ATOM      4  C   UNL     1      27.722 -14.506   2.714 -0.20 -0.00    +0.000 A 
DOCKED: ATOM      5  C   UNL     1      27.796 -13.572   3.748 -0.41 -0.00    +0.000 A 
DOCKED: ATOM      6  C   UNL     1      27.602 -12.216   3.488 -0.26 +0.00    +0.000 A 
DOCKED: ATOM      7  C   UNL     1      27.333 -11.779   2.184 -0.24 +0.00    +0.000 A 
DOCKED: ATOM      8  C   UNL     1      27.140 -10.416   1.922 -0.24 +0.00    +0.000 A 
DOCKED: ATOM      9  C   UNL     1      26.872  -9.981   0.624 -0.21 +0.00    +0.000 A 
DOCKED: ATOM     10  C   UNL     1      26.795 -10.900  -0.424 -0.09 +0.00    +0.000 A 
DOCKED: ATOM     11  C   UNL     1      26.984 -12.272  -0.187 -0.16 -0.00    +0.000 A 
DOCKED: ATOM     12  C   UNL     1      27.255 -12.721   1.125 -0.23 -0.00    +0.000 A 
DOCKED: ATOM     13  O   UNL     1      27.571 -16.306   0.541 -0.36 -0.00    +0.000 OA
DOCKED: ATOM     14  C   UNL     1      26.901 -13.245  -1.301 -0.17 -0.00    +0.000 C 
DOCKED: ATOM     15  O   UNL     1      26.685 -12.837  -2.475 -0.21 -0.00    +0.000 OA
DOCKED: ENDROOT
DOCKED: BRANCH   1  16
DOCKED: ATOM     16  C   UNL     1      26.899 -15.647  -2.116 -0.38 -0.00    +0.000 C 
DOCKED: BRANCH  16  17
DOCKED: ATOM     17  C   UNL     1      25.416 -15.997  -2.333 -0.55 -0.00    +0.000 C 
DOCKED: BRANCH  17  18
DOCKED: ATOM     18  C   UNL     1      24.729 -16.624  -1.105 -0.61 -0.00    +0.000 C 
DOCKED: BRANCH  18  19
DOCKED: ATOM     19  C   UNL     1      23.926 -17.909  -1.399 -0.76 -0.00    +0.000 C 
DOCKED: BRANCH  19  20
DOCKED: ATOM     20  C   UNL     1      22.901 -18.281  -0.315 -0.83 -0.00    +0.000 C 
DOCKED: BRANCH  20  22
DOCKED: ATOM     21  O   UNL     1      20.679 -17.497  -0.713 -2.09 +0.00    +0.000 OA
DOCKED: ATOM     22  C   UNL     1      21.516 -18.426  -0.875 -0.81 -0.00    +0.000 C 
DOCKED: ATOM     23  N   UNL     1      21.132 -19.621  -1.559 -0.70 -0.00    +0.000 N 
DOCKED: ATOM     24  H   UNL     1      21.786 -20.348  -1.677 -0.39 -0.00    +0.000 HD
DOCKED: BRANCH  23  25
DOCKED: ATOM     25  O   UNL     1      19.876 -19.762  -2.047 -1.88 -0.00    +0.000 OA
DOCKED: ATOM     26  H   UNL     1      19.346 -18.987  -1.803 -0.43 -0.00    +0.000 HD
DOCKED: ENDBRANCH  23  25
DOCKED: ENDBRANCH  20  22
DOCKED: ENDBRANCH  19  20
DOCKED: ENDBRANCH  18  19
DOCKED: ENDBRANCH  17  18
DOCKED: ENDBRANCH  16  17
DOCKED: ENDBRANCH   1  16
DOCKED: TORSDOF 7
DOCKED: TER
DOCKED: ENDMDL
________________________________________________________________________________


	BEGINNING GENETIC ALGORITHM DOCKING 16 of 100
Run: 16 Seed: 1407438711 630780402 [ Run 16 of 100 GA/GALS ]
Beginning LAMARCKIAN GENETIC ALGORITHM (LGA), with a maximum of 2500000 energy evaluations.

Final-Value: -14.333


	FINAL GENETIC ALGORITHM DOCKED STATE
	_______________________________________________


Detailed state:  trans 26.435 -16.118 -3.863 quatxyzw 0.531293 -0.798671 0.251053 -0.129711 center 0.154 0.112 -0.159 ntor 7 -2.9020 176.1370 99.6118 173.2692 154.4283 88.5895 -33.4839
State:	 26.435 -16.118  -3.863   0.536 -0.805  0.253 -165.094     -2.90  176.14   99.61  173.27  154.43   88.59  -33.48

DOCKED: MODEL       16
DOCKED: USER    Run = 16
DOCKED: USER    DPF = ligand_dock.biased.dpf
DOCKED: USER  
DOCKED: USER    Estimated Free Energy of Binding    =  -11.26 kcal/mol  [=(1)+(2)+(3)-(4)]
DOCKED: USER    Estimated Inhibition Constant, Ki   =    5.61 nM (nanomolar)  [Temperature = 298.15 K]
DOCKED: USER    
DOCKED: USER    (1) Final Intermolecular Energy     =  -13.34 kcal/mol
DOCKED: USER        vdW + Hbond + desolv Energy     =  -13.34 kcal/mol
DOCKED: USER        Electrostatic Energy            =   +0.00 kcal/mol
DOCKED: USER    (2) Final Total Internal Energy     =   -0.99 kcal/mol
DOCKED: USER    (3) Torsional Free Energy           =   +2.09 kcal/mol
DOCKED: USER    (4) Unbound System's Energy  [=(2)] =   -0.99 kcal/mol
DOCKED: USER    
DOCKED: USER    
DOCKED: USER    NEWDPF move ligand.pdbqt
DOCKED: USER    NEWDPF about 0.154000 0.112000 -0.159000
DOCKED: USER    NEWDPF tran0 26.435029 -16.118013 -3.862747
DOCKED: USER    NEWDPF quaternion0 0.531293 -0.798671 0.251053 -0.129711
DOCKED: USER    NEWDPF axisangle0 0.535820 -0.805475 0.253192 -165.094200
DOCKED: USER    NEWDPF quat0 0.535820 -0.805475 0.253192 -165.094200
DOCKED: USER    NEWDPF dihe0 -2.90 176.14 99.61 173.27 154.43 88.59 -33.48 
DOCKED: USER  keepresnum = 1 
DOCKED: USER  
DOCKED: REMARK  Name = 
DOCKED: REMARK  7 active torsions:
DOCKED: REMARK  status: ('A' for Active; 'I' for Inactive)
DOCKED: REMARK    1  A    between atoms: C_2  and  C_5
DOCKED: REMARK    2  A    between atoms: N_3  and  O_4
DOCKED: REMARK    3  A    between atoms: C_5  and  C_6
DOCKED: REMARK    4  A    between atoms: C_6  and  C_7
DOCKED: REMARK    5  A    between atoms: C_7  and  C_8
DOCKED: REMARK    6  A    between atoms: C_8  and  C_9
DOCKED: REMARK    7  A    between atoms: C_9  and  N_10
DOCKED: REMARK                            x       y       z     vdW  Elec       q    Type
DOCKED: REMARK                         _______ _______ _______ _____ _____    ______ ____
DOCKED: USER                              x       y       z     vdW  Elec       q    Type
DOCKED: USER                           _______ _______ _______ _____ _____    ______ ____
DOCKED: ROOT
DOCKED: ATOM      1  N   UNL     1      27.410 -15.341  -3.032 -0.28 -0.00    +0.000 N 
DOCKED: ATOM      2  C   UNL     1      26.761 -14.056  -2.948 -0.31 -0.00    +0.000 C 
DOCKED: ATOM      3  C   UNL     1      26.897 -13.083  -4.056 -0.25 -0.00    +0.000 A 
DOCKED: ATOM      4  C   UNL     1      26.247 -11.837  -3.995 -0.20 -0.00    +0.000 A 
DOCKED: ATOM      5  C   UNL     1      26.372 -10.921  -5.040 -0.21 -0.00    +0.000 A 
DOCKED: ATOM      6  C   UNL     1      27.145 -11.230  -6.159 -0.16 -0.00    +0.000 A 
DOCKED: ATOM      7  C   UNL     1      27.803 -12.465  -6.243 -0.19 -0.00    +0.000 A 
DOCKED: ATOM      8  C   UNL     1      28.580 -12.775  -7.367 -0.23 -0.00    +0.000 A 
DOCKED: ATOM      9  C   UNL     1      29.236 -14.004  -7.450 -0.27 -0.00    +0.000 A 
DOCKED: ATOM     10  C   UNL     1      29.123 -14.933  -6.415 -0.33 -0.00    +0.000 A 
DOCKED: ATOM     11  C   UNL     1      28.349 -14.646  -5.277 -0.32 -0.00    +0.000 A 
DOCKED: ATOM     12  C   UNL     1      27.681 -13.404  -5.185 -0.24 -0.00    +0.000 A 
DOCKED: ATOM     13  O   UNL     1      26.080 -13.758  -1.929 -0.24 -0.00    +0.000 OA
DOCKED: ATOM     14  C   UNL     1      28.230 -15.634  -4.180 -0.33 -0.00    +0.000 C 
DOCKED: ATOM     15  O   UNL     1      28.849 -16.730  -4.255 -0.28 -0.00    +0.000 OA
DOCKED: ENDROOT
DOCKED: BRANCH   1  16
DOCKED: ATOM     16  C   UNL     1      27.203 -16.343  -1.972 -0.39 -0.00    +0.000 C 
DOCKED: BRANCH  16  17
DOCKED: ATOM     17  C   UNL     1      25.728 -16.408  -1.537 -0.55 -0.00    +0.000 C 
DOCKED: BRANCH  17  18
DOCKED: ATOM     18  C   UNL     1      25.291 -17.779  -0.988 -0.68 -0.00    +0.000 C 
DOCKED: BRANCH  18  19
DOCKED: ATOM     19  C   UNL     1      23.918 -18.271  -1.493 -0.74 -0.00    +0.000 C 
DOCKED: BRANCH  19  20
DOCKED: ATOM     20  C   UNL     1      22.885 -18.524  -0.384 -0.83 -0.00    +0.000 C 
DOCKED: BRANCH  20  22
DOCKED: ATOM     21  O   UNL     1      20.706 -17.596  -0.710 -2.15 +0.00    +0.000 OA
DOCKED: ATOM     22  C   UNL     1      21.483 -18.567  -0.920 -0.82 -0.00    +0.000 C 
DOCKED: ATOM     23  N   UNL     1      21.015 -19.713  -1.634 -0.71 -0.00    +0.000 N 
DOCKED: ATOM     24  H   UNL     1      21.622 -20.473  -1.790 -0.40 -0.00    +0.000 HD
DOCKED: BRANCH  23  25
DOCKED: ATOM     25  O   UNL     1      19.744 -19.762  -2.100 -1.76 -0.00    +0.000 OA
DOCKED: ATOM     26  H   UNL     1      19.268 -18.963  -1.826 -0.48 -0.00    +0.000 HD
DOCKED: ENDBRANCH  23  25
DOCKED: ENDBRANCH  20  22
DOCKED: ENDBRANCH  19  20
DOCKED: ENDBRANCH  18  19
DOCKED: ENDBRANCH  17  18
DOCKED: ENDBRANCH  16  17
DOCKED: ENDBRANCH   1  16
DOCKED: TORSDOF 7
DOCKED: TER
DOCKED: ENDMDL
________________________________________________________________________________


	BEGINNING GENETIC ALGORITHM DOCKING 17 of 100
Run: 17 Seed: 676894042 895770987 [ Run 17 of 100 GA/GALS ]
Beginning LAMARCKIAN GENETIC ALGORITHM (LGA), with a maximum of 2500000 energy evaluations.

Final-Value: -12.055


	FINAL GENETIC ALGORITHM DOCKED STATE
	_______________________________________________


Detailed state:  trans 29.602 -14.016 -1.001 quatxyzw -0.968025 -0.177980 -0.173607 -0.033332 center 0.154 0.112 -0.159 ntor 7 0.7234 36.1742 -81.4349 88.2459 -154.8880 32.2249 -168.2175
State:	 29.602 -14.016  -1.001  -0.969 -0.178 -0.174 -176.180      0.72   36.17  -81.43   88.25 -154.89   32.22 -168.22

DOCKED: MODEL       17
DOCKED: USER    Run = 17
DOCKED: USER    DPF = ligand_dock.biased.dpf
DOCKED: USER  
DOCKED: USER    Estimated Free Energy of Binding    =   -7.43 kcal/mol  [=(1)+(2)+(3)-(4)]
DOCKED: USER    Estimated Inhibition Constant, Ki   =    3.58 uM (micromolar)  [Temperature = 298.15 K]
DOCKED: USER    
DOCKED: USER    (1) Final Intermolecular Energy     =   -9.52 kcal/mol
DOCKED: USER        vdW + Hbond + desolv Energy     =   -9.52 kcal/mol
DOCKED: USER        Electrostatic Energy            =   +0.00 kcal/mol
DOCKED: USER    (2) Final Total Internal Energy     =   -2.54 kcal/mol
DOCKED: USER    (3) Torsional Free Energy           =   +2.09 kcal/mol
DOCKED: USER    (4) Unbound System's Energy  [=(2)] =   -2.54 kcal/mol
DOCKED: USER    
DOCKED: USER    
DOCKED: USER    NEWDPF move ligand.pdbqt
DOCKED: USER    NEWDPF about 0.154000 0.112000 -0.159000
DOCKED: USER    NEWDPF tran0 29.602281 -14.015931 -1.001442
DOCKED: USER    NEWDPF quaternion0 -0.968025 -0.177980 -0.173607 -0.033332
DOCKED: USER    NEWDPF axisangle0 -0.968563 -0.178079 -0.173704 -176.179714
DOCKED: USER    NEWDPF quat0 -0.968563 -0.178079 -0.173704 -176.179714
DOCKED: USER    NEWDPF dihe0 0.72 36.17 -81.43 88.25 -154.89 32.22 -168.22 
DOCKED: USER  keepresnum = 1 
DOCKED: USER  
DOCKED: REMARK  Name = 
DOCKED: REMARK  7 active torsions:
DOCKED: REMARK  status: ('A' for Active; 'I' for Inactive)
DOCKED: REMARK    1  A    between atoms: C_2  and  C_5
DOCKED: REMARK    2  A    between atoms: N_3  and  O_4
DOCKED: REMARK    3  A    between atoms: C_5  and  C_6
DOCKED: REMARK    4  A    between atoms: C_6  and  C_7
DOCKED: REMARK    5  A    between atoms: C_7  and  C_8
DOCKED: REMARK    6  A    between atoms: C_8  and  C_9
DOCKED: REMARK    7  A    between atoms: C_9  and  N_10
DOCKED: REMARK                            x       y       z     vdW  Elec       q    Type
DOCKED: REMARK                         _______ _______ _______ _____ _____    ______ ____
DOCKED: USER                              x       y       z     vdW  Elec       q    Type
DOCKED: USER                           _______ _______ _______ _____ _____    ______ ____
DOCKED: ROOT
DOCKED: ATOM      1  N   UNL     1      28.417 -13.540  -0.217 -0.11 -0.00    +0.000 N 
DOCKED: ATOM      2  C   UNL     1      27.884 -14.781   0.285 -0.27 -0.00    +0.000 C 
DOCKED: ATOM      3  C   UNL     1      27.009 -15.613  -0.571 -0.32 -0.00    +0.000 A 
DOCKED: ATOM      4  C   UNL     1      26.504 -16.838  -0.099 -0.37 -0.00    +0.000 A 
DOCKED: ATOM      5  C   UNL     1      25.682 -17.624  -0.908 -0.57 -0.00    +0.000 A 
DOCKED: ATOM      6  C   UNL     1      25.351 -17.204  -2.195 -0.45 -0.00    +0.000 A 
DOCKED: ATOM      7  C   UNL     1      25.841 -15.987  -2.689 -0.47 -0.00    +0.000 A 
DOCKED: ATOM      8  C   UNL     1      25.507 -15.564  -3.982 -0.46 -0.00    +0.000 A 
DOCKED: ATOM      9  C   UNL     1      25.994 -14.353  -4.473 -0.43 -0.00    +0.000 A 
DOCKED: ATOM     10  C   UNL     1      26.817 -13.552  -3.679 -0.27 -0.00    +0.000 A 
DOCKED: ATOM     11  C   UNL     1      27.167 -13.955  -2.378 -0.20 -0.00    +0.000 A 
DOCKED: ATOM     12  C   UNL     1      26.678 -15.180  -1.874 -0.32 -0.00    +0.000 A 
DOCKED: ATOM     13  O   UNL     1      28.158 -15.158   1.458 -0.21 -0.00    +0.000 OA
DOCKED: ATOM     14  C   UNL     1      28.041 -13.104  -1.539 -0.13 -0.00    +0.000 C 
DOCKED: ATOM     15  O   UNL     1      28.454 -11.998  -1.983 -0.08 -0.00    +0.000 OA
DOCKED: ENDROOT
DOCKED: BRANCH   1  16
DOCKED: ATOM     16  C   UNL     1      29.359 -12.755   0.601 -0.07 -0.00    +0.000 C 
DOCKED: BRANCH  16  17
DOCKED: ATOM     17  C   UNL     1      28.624 -11.708   1.457 -0.11 -0.00    +0.000 C 
DOCKED: BRANCH  17  18
DOCKED: ATOM     18  C   UNL     1      28.328 -12.165   2.897 -0.22 -0.00    +0.000 C 
DOCKED: BRANCH  18  19
DOCKED: ATOM     19  C   UNL     1      27.019 -12.965   3.065 -0.33 -0.00    +0.000 C 
DOCKED: BRANCH  19  20
DOCKED: ATOM     20  C   UNL     1      27.007 -13.922   4.269 -0.47 -0.00    +0.000 C 
DOCKED: BRANCH  20  22
DOCKED: ATOM     21  O   UNL     1      28.754 -13.840   5.898 -0.51 -0.00    +0.000 OA
DOCKED: ATOM     22  C   UNL     1      28.393 -14.232   4.756 -0.55 -0.00    +0.000 C 
DOCKED: ATOM     23  N   UNL     1      29.313 -14.937   3.920 -0.29 -0.00    +0.000 N 
DOCKED: ATOM     24  H   UNL     1      29.030 -15.235   3.025 -1.87 -0.00    +0.000 HD
DOCKED: BRANCH  23  25
DOCKED: ATOM     25  O   UNL     1      30.571 -15.200   4.349 -0.39 -0.00    +0.000 OA
DOCKED: ATOM     26  H   UNL     1      30.685 -14.853   5.247 -0.03 -0.00    +0.000 HD
DOCKED: ENDBRANCH  23  25
DOCKED: ENDBRANCH  20  22
DOCKED: ENDBRANCH  19  20
DOCKED: ENDBRANCH  18  19
DOCKED: ENDBRANCH  17  18
DOCKED: ENDBRANCH  16  17
DOCKED: ENDBRANCH   1  16
DOCKED: TORSDOF 7
DOCKED: TER
DOCKED: ENDMDL
________________________________________________________________________________


	BEGINNING GENETIC ALGORITHM DOCKING 18 of 100
Run: 18 Seed: 760471304 475350077 [ Run 18 of 100 GA/GALS ]
Beginning LAMARCKIAN GENETIC ALGORITHM (LGA), with a maximum of 2500000 energy evaluations.

Final-Value: -15.307


	FINAL GENETIC ALGORITHM DOCKED STATE
	_______________________________________________


Detailed state:  trans 26.291 -17.278 -2.514 quatxyzw 0.224642 -0.543937 0.808437 -0.009933 center 0.154 0.112 -0.159 ntor 7 -10.6499 126.0997 59.5346 -100.1047 75.9590 11.9789 9.7362
State:	 26.291 -17.278  -2.514   0.225 -0.544  0.808 -178.862    -10.65  126.10   59.53 -100.10   75.96   11.98    9.74

DOCKED: MODEL       18
DOCKED: USER    Run = 18
DOCKED: USER    DPF = ligand_dock.biased.dpf
DOCKED: USER  
DOCKED: USER    Estimated Free Energy of Binding    =  -11.86 kcal/mol  [=(1)+(2)+(3)-(4)]
DOCKED: USER    Estimated Inhibition Constant, Ki   =    2.03 nM (nanomolar)  [Temperature = 298.15 K]
DOCKED: USER    
DOCKED: USER    (1) Final Intermolecular Energy     =  -13.95 kcal/mol
DOCKED: USER        vdW + Hbond + desolv Energy     =  -13.95 kcal/mol
DOCKED: USER        Electrostatic Energy            =   +0.00 kcal/mol
DOCKED: USER    (2) Final Total Internal Energy     =   -1.36 kcal/mol
DOCKED: USER    (3) Torsional Free Energy           =   +2.09 kcal/mol
DOCKED: USER    (4) Unbound System's Energy  [=(2)] =   -1.36 kcal/mol
DOCKED: USER    
DOCKED: USER    
DOCKED: USER    NEWDPF move ligand.pdbqt
DOCKED: USER    NEWDPF about 0.154000 0.112000 -0.159000
DOCKED: USER    NEWDPF tran0 26.290509 -17.278236 -2.514054
DOCKED: USER    NEWDPF quaternion0 0.224642 -0.543937 0.808437 -0.009933
DOCKED: USER    NEWDPF axisangle0 0.224653 -0.543963 0.808477 -178.861736
DOCKED: USER    NEWDPF quat0 0.224653 -0.543963 0.808477 -178.861736
DOCKED: USER    NEWDPF dihe0 -10.65 126.10 59.53 -100.10 75.96 11.98 9.74 
DOCKED: USER  keepresnum = 1 
DOCKED: USER  
DOCKED: REMARK  Name = 
DOCKED: REMARK  7 active torsions:
DOCKED: REMARK  status: ('A' for Active; 'I' for Inactive)
DOCKED: REMARK    1  A    between atoms: C_2  and  C_5
DOCKED: REMARK    2  A    between atoms: N_3  and  O_4
DOCKED: REMARK    3  A    between atoms: C_5  and  C_6
DOCKED: REMARK    4  A    between atoms: C_6  and  C_7
DOCKED: REMARK    5  A    between atoms: C_7  and  C_8
DOCKED: REMARK    6  A    between atoms: C_8  and  C_9
DOCKED: REMARK    7  A    between atoms: C_9  and  N_10
DOCKED: REMARK                            x       y       z     vdW  Elec       q    Type
DOCKED: REMARK                         _______ _______ _______ _____ _____    ______ ____
DOCKED: USER                              x       y       z     vdW  Elec       q    Type
DOCKED: USER                           _______ _______ _______ _____ _____    ______ ____
DOCKED: ROOT
DOCKED: ATOM      1  N   UNL     1      26.689 -15.849  -2.306 -0.36 -0.00    +0.000 N 
DOCKED: ATOM      2  C   UNL     1      26.789 -15.375  -3.663 -0.45 -0.00    +0.000 C 
DOCKED: ATOM      3  C   UNL     1      28.020 -15.626  -4.449 -0.31 -0.00    +0.000 A 
DOCKED: ATOM      4  C   UNL     1      28.117 -15.189  -5.782 -0.35 -0.00    +0.000 A 
DOCKED: ATOM      5  C   UNL     1      29.276 -15.428  -6.522 -0.27 -0.00    +0.000 A 
DOCKED: ATOM      6  C   UNL     1      30.352 -16.104  -5.948 -0.26 -0.00    +0.000 A 
DOCKED: ATOM      7  C   UNL     1      30.279 -16.548  -4.621 -0.21 -0.00    +0.000 A 
DOCKED: ATOM      8  C   UNL     1      31.361 -17.226  -4.043 -0.12 -0.00    +0.000 A 
DOCKED: ATOM      9  C   UNL     1      31.289 -17.668  -2.722 -0.12 -0.00    +0.000 A 
DOCKED: ATOM     10  C   UNL     1      30.140 -17.437  -1.965 -0.19 -0.00    +0.000 A 
DOCKED: ATOM     11  C   UNL     1      29.041 -16.760  -2.522 -0.22 -0.00    +0.000 A 
DOCKED: ATOM     12  C   UNL     1      29.105 -16.310  -3.859 -0.23 -0.00    +0.000 A 
DOCKED: ATOM     13  O   UNL     1      25.830 -14.741  -4.184 -0.65 -0.00    +0.000 OA
DOCKED: ATOM     14  C   UNL     1      27.821 -16.518  -1.716 -0.36 -0.00    +0.000 C 
DOCKED: ATOM     15  O   UNL     1      27.778 -16.898  -0.515 -0.43 -0.00    +0.000 OA
DOCKED: ENDROOT
DOCKED: BRANCH   1  16
DOCKED: ATOM     16  C   UNL     1      25.433 -15.678  -1.555 -0.48 -0.00    +0.000 C 
DOCKED: BRANCH  16  17
DOCKED: ATOM     17  C   UNL     1      24.451 -16.830  -1.829 -0.60 -0.00    +0.000 C 
DOCKED: BRANCH  17  18
DOCKED: ATOM     18  C   UNL     1      24.806 -18.147  -1.113 -0.70 -0.00    +0.000 C 
DOCKED: BRANCH  18  19
DOCKED: ATOM     19  C   UNL     1      23.592 -18.976  -0.642 -0.76 -0.00    +0.000 C 
DOCKED: BRANCH  19  20
DOCKED: ATOM     20  C   UNL     1      22.385 -18.137  -0.192 -0.81 -0.00    +0.000 C 
DOCKED: BRANCH  20  22
DOCKED: ATOM     21  O   UNL     1      20.234 -17.595  -1.080 -2.03 -0.00    +0.000 OA
DOCKED: ATOM     22  C   UNL     1      21.151 -18.454  -0.987 -0.76 -0.00    +0.000 C 
DOCKED: ATOM     23  N   UNL     1      20.998 -19.732  -1.608 -0.72 -0.00    +0.000 N 
DOCKED: ATOM     24  H   UNL     1      21.714 -20.404  -1.526 -0.32 -0.00    +0.000 HD
DOCKED: BRANCH  23  25
DOCKED: ATOM     25  O   UNL     1      19.877 -20.027  -2.308 -1.76 -0.00    +0.000 OA
DOCKED: ATOM     26  H   UNL     1      19.210 -19.340  -2.156 -0.47 -0.00    +0.000 HD
DOCKED: ENDBRANCH  23  25
DOCKED: ENDBRANCH  20  22
DOCKED: ENDBRANCH  19  20
DOCKED: ENDBRANCH  18  19
DOCKED: ENDBRANCH  17  18
DOCKED: ENDBRANCH  16  17
DOCKED: ENDBRANCH   1  16
DOCKED: TORSDOF 7
DOCKED: TER
DOCKED: ENDMDL
________________________________________________________________________________


	BEGINNING GENETIC ALGORITHM DOCKING 19 of 100
Run: 19 Seed: 2093546725 1812750673 [ Run 19 of 100 GA/GALS ]
Beginning LAMARCKIAN GENETIC ALGORITHM (LGA), with a maximum of 2500000 energy evaluations.

Final-Value: -13.953


	FINAL GENETIC ALGORITHM DOCKED STATE
	_______________________________________________


Detailed state:  trans 24.893 -15.224 -2.399 quatxyzw 0.348997 -0.872319 -0.260183 -0.222631 center 0.154 0.112 -0.159 ntor 7 13.8886 -36.2224 -149.0883 -111.1553 -168.0069 -170.4833 20.8659
State:	 24.893 -15.224  -2.399   0.358 -0.895 -0.267 -154.273     13.89  -36.22 -149.09 -111.16 -168.01 -170.48   20.87

DOCKED: MODEL       19
DOCKED: USER    Run = 19
DOCKED: USER    DPF = ligand_dock.biased.dpf
DOCKED: USER  
DOCKED: USER    Estimated Free Energy of Binding    =  -10.61 kcal/mol  [=(1)+(2)+(3)-(4)]
DOCKED: USER    Estimated Inhibition Constant, Ki   =   16.58 nM (nanomolar)  [Temperature = 298.15 K]
DOCKED: USER    
DOCKED: USER    (1) Final Intermolecular Energy     =  -12.70 kcal/mol
DOCKED: USER        vdW + Hbond + desolv Energy     =  -12.70 kcal/mol
DOCKED: USER        Electrostatic Energy            =   +0.00 kcal/mol
DOCKED: USER    (2) Final Total Internal Energy     =   -1.25 kcal/mol
DOCKED: USER    (3) Torsional Free Energy           =   +2.09 kcal/mol
DOCKED: USER    (4) Unbound System's Energy  [=(2)] =   -1.25 kcal/mol
DOCKED: USER    
DOCKED: USER    
DOCKED: USER    NEWDPF move ligand.pdbqt
DOCKED: USER    NEWDPF about 0.154000 0.112000 -0.159000
DOCKED: USER    NEWDPF tran0 24.892673 -15.223587 -2.398634
DOCKED: USER    NEWDPF quaternion0 0.348997 -0.872319 -0.260183 -0.222631
DOCKED: USER    NEWDPF axisangle0 0.357982 -0.894776 -0.266881 -154.272830
DOCKED: USER    NEWDPF quat0 0.357982 -0.894776 -0.266881 -154.272830
DOCKED: USER    NEWDPF dihe0 13.89 -36.22 -149.09 -111.16 -168.01 -170.48 20.87 
DOCKED: USER  keepresnum = 1 
DOCKED: USER  
DOCKED: REMARK  Name = 
DOCKED: REMARK  7 active torsions:
DOCKED: REMARK  status: ('A' for Active; 'I' for Inactive)
DOCKED: REMARK    1  A    between atoms: C_2  and  C_5
DOCKED: REMARK    2  A    between atoms: N_3  and  O_4
DOCKED: REMARK    3  A    between atoms: C_5  and  C_6
DOCKED: REMARK    4  A    between atoms: C_6  and  C_7
DOCKED: REMARK    5  A    between atoms: C_7  and  C_8
DOCKED: REMARK    6  A    between atoms: C_8  and  C_9
DOCKED: REMARK    7  A    between atoms: C_9  and  N_10
DOCKED: REMARK                            x       y       z     vdW  Elec       q    Type
DOCKED: REMARK                         _______ _______ _______ _____ _____    ______ ____
DOCKED: USER                              x       y       z     vdW  Elec       q    Type
DOCKED: USER                           _______ _______ _______ _____ _____    ______ ____
DOCKED: ROOT
DOCKED: ATOM      1  N   UNL     1      26.324 -15.639  -2.243 -0.39 -0.00    +0.000 N 
DOCKED: ATOM      2  C   UNL     1      26.767 -14.766  -1.186 -0.32 -0.00    +0.000 C 
DOCKED: ATOM      3  C   UNL     1      27.182 -13.378  -1.495 -0.17 -0.00    +0.000 A 
DOCKED: ATOM      4  C   UNL     1      27.592 -12.510  -0.467 -0.13 -0.00    +0.000 A 
DOCKED: ATOM      5  C   UNL     1      27.980 -11.202  -0.758 -0.08 -0.00    +0.000 A 
DOCKED: ATOM      6  C   UNL     1      27.966 -10.739  -2.073 -0.07 -0.00    +0.000 A 
DOCKED: ATOM      7  C   UNL     1      27.562 -11.585  -3.115 -0.11 -0.00    +0.000 A 
DOCKED: ATOM      8  C   UNL     1      27.550 -11.120  -4.437 -0.11 -0.00    +0.000 A 
DOCKED: ATOM      9  C   UNL     1      27.148 -11.963  -5.474 -0.18 -0.00    +0.000 A 
DOCKED: ATOM     10  C   UNL     1      26.757 -13.275  -5.203 -0.14 -0.00    +0.000 A 
DOCKED: ATOM     11  C   UNL     1      26.761 -13.764  -3.886 -0.31 -0.00    +0.000 A 
DOCKED: ATOM     12  C   UNL     1      27.165 -12.918  -2.830 -0.16 -0.00    +0.000 A 
DOCKED: ATOM     13  O   UNL     1      26.806 -15.183   0.004 -0.36 -0.00    +0.000 OA
DOCKED: ATOM     14  C   UNL     1      26.344 -15.157  -3.601 -0.51 -0.00    +0.000 C 
DOCKED: ATOM     15  O   UNL     1      26.009 -15.917  -4.550 -0.78 -0.00    +0.000 OA
DOCKED: ENDROOT
DOCKED: BRANCH   1  16
DOCKED: ATOM     16  C   UNL     1      25.827 -16.990  -1.925 -0.54 -0.00    +0.000 C 
DOCKED: BRANCH  16  17
DOCKED: ATOM     17  C   UNL     1      24.290 -17.020  -1.842 -0.56 -0.00    +0.000 C 
DOCKED: BRANCH  17  18
DOCKED: ATOM     18  C   UNL     1      23.738 -17.143  -0.409 -0.58 -0.00    +0.000 C 
DOCKED: BRANCH  18  19
DOCKED: ATOM     19  C   UNL     1      23.323 -18.571   0.004 -0.71 -0.00    +0.000 C 
DOCKED: BRANCH  19  20
DOCKED: ATOM     20  C   UNL     1      22.503 -19.327  -1.054 -0.73 -0.00    +0.000 C 
DOCKED: BRANCH  20  22
DOCKED: ATOM     21  O   UNL     1      20.641 -17.870  -0.708 -2.34 -0.00    +0.000 OA
DOCKED: ATOM     22  C   UNL     1      21.033 -19.046  -0.935 -0.88 -0.00    +0.000 C 
DOCKED: ATOM     23  N   UNL     1      20.082 -20.107  -1.043 -0.74 -0.00    +0.000 N 
DOCKED: ATOM     24  H   UNL     1      20.392 -21.026  -1.213 -0.42 -0.00    +0.000 HD
DOCKED: BRANCH  23  25
DOCKED: ATOM     25  O   UNL     1      18.756 -19.859  -0.915 -0.81 -0.00    +0.000 OA
DOCKED: ATOM     26  H   UNL     1      18.599 -18.904  -0.973 -0.58 -0.00    +0.000 HD
DOCKED: ENDBRANCH  23  25
DOCKED: ENDBRANCH  20  22
DOCKED: ENDBRANCH  19  20
DOCKED: ENDBRANCH  18  19
DOCKED: ENDBRANCH  17  18
DOCKED: ENDBRANCH  16  17
DOCKED: ENDBRANCH   1  16
DOCKED: TORSDOF 7
DOCKED: TER
DOCKED: ENDMDL
________________________________________________________________________________


	BEGINNING GENETIC ALGORITHM DOCKING 20 of 100
Run: 20 Seed: 1348464795 883863030 [ Run 20 of 100 GA/GALS ]
Beginning LAMARCKIAN GENETIC ALGORITHM (LGA), with a maximum of 2500000 energy evaluations.

Final-Value: -14.257


	FINAL GENETIC ALGORITHM DOCKED STATE
	_______________________________________________


Detailed state:  trans 24.902 -14.864 -3.061 quatxyzw -0.276210 0.899174 0.303864 0.151197 center 0.154 0.112 -0.159 ntor 7 11.5969 108.3832 68.0680 -114.7103 173.5187 170.7092 -37.2206
State:	 24.902 -14.864  -3.061  -0.279  0.910  0.307 162.607     11.60  108.38   68.07 -114.71  173.52  170.71  -37.22

DOCKED: MODEL       20
DOCKED: USER    Run = 20
DOCKED: USER    DPF = ligand_dock.biased.dpf
DOCKED: USER  
DOCKED: USER    Estimated Free Energy of Binding    =  -11.12 kcal/mol  [=(1)+(2)+(3)-(4)]
DOCKED: USER    Estimated Inhibition Constant, Ki   =    7.07 nM (nanomolar)  [Temperature = 298.15 K]
DOCKED: USER    
DOCKED: USER    (1) Final Intermolecular Energy     =  -13.21 kcal/mol
DOCKED: USER        vdW + Hbond + desolv Energy     =  -13.21 kcal/mol
DOCKED: USER        Electrostatic Energy            =   +0.00 kcal/mol
DOCKED: USER    (2) Final Total Internal Energy     =   -1.05 kcal/mol
DOCKED: USER    (3) Torsional Free Energy           =   +2.09 kcal/mol
DOCKED: USER    (4) Unbound System's Energy  [=(2)] =   -1.05 kcal/mol
DOCKED: USER    
DOCKED: USER    
DOCKED: USER    NEWDPF move ligand.pdbqt
DOCKED: USER    NEWDPF about 0.154000 0.112000 -0.159000
DOCKED: USER    NEWDPF tran0 24.902241 -14.864286 -3.060578
DOCKED: USER    NEWDPF quaternion0 -0.276210 0.899174 0.303864 0.151197
DOCKED: USER    NEWDPF axisangle0 -0.279422 0.909632 0.307398 162.607371
DOCKED: USER    NEWDPF quat0 -0.279422 0.909632 0.307398 162.607371
DOCKED: USER    NEWDPF dihe0 11.60 108.38 68.07 -114.71 173.52 170.71 -37.22 
DOCKED: USER  keepresnum = 1 
DOCKED: USER  
DOCKED: REMARK  Name = 
DOCKED: REMARK  7 active torsions:
DOCKED: REMARK  status: ('A' for Active; 'I' for Inactive)
DOCKED: REMARK    1  A    between atoms: C_2  and  C_5
DOCKED: REMARK    2  A    between atoms: N_3  and  O_4
DOCKED: REMARK    3  A    between atoms: C_5  and  C_6
DOCKED: REMARK    4  A    between atoms: C_6  and  C_7
DOCKED: REMARK    5  A    between atoms: C_7  and  C_8
DOCKED: REMARK    6  A    between atoms: C_8  and  C_9
DOCKED: REMARK    7  A    between atoms: C_9  and  N_10
DOCKED: REMARK                            x       y       z     vdW  Elec       q    Type
DOCKED: REMARK                         _______ _______ _______ _____ _____    ______ ____
DOCKED: USER                              x       y       z     vdW  Elec       q    Type
DOCKED: USER                           _______ _______ _______ _____ _____    ______ ____
DOCKED: ROOT
DOCKED: ATOM      1  N   UNL     1      26.206 -15.573  -2.856 -0.43 -0.00    +0.000 N 
DOCKED: ATOM      2  C   UNL     1      26.733 -14.887  -1.703 -0.33 -0.00    +0.000 C 
DOCKED: ATOM      3  C   UNL     1      27.437 -13.594  -1.866 -0.16 -0.00    +0.000 A 
DOCKED: ATOM      4  C   UNL     1      27.931 -12.905  -0.745 -0.11 -0.00    +0.000 A 
DOCKED: ATOM      5  C   UNL     1      28.593 -11.685  -0.899 -0.06 -0.00    +0.000 A 
DOCKED: ATOM      6  C   UNL     1      28.770 -11.135  -2.168 -0.04 -0.00    +0.000 A 
DOCKED: ATOM      7  C   UNL     1      28.287 -11.804  -3.301 -0.08 -0.00    +0.000 A 
DOCKED: ATOM      8  C   UNL     1      28.467 -11.252  -4.576 -0.07 -0.00    +0.000 A 
DOCKED: ATOM      9  C   UNL     1      27.986 -11.918  -5.704 -0.14 -0.00    +0.000 A 
DOCKED: ATOM     10  C   UNL     1      27.324 -13.139  -5.571 -0.19 -0.00    +0.000 A 
DOCKED: ATOM     11  C   UNL     1      27.130 -13.713  -4.302 -0.28 -0.00    +0.000 A 
DOCKED: ATOM     12  C   UNL     1      27.613 -13.045  -3.155 -0.15 -0.00    +0.000 A 
DOCKED: ATOM     13  O   UNL     1      26.598 -15.388  -0.553 -0.37 -0.00    +0.000 OA
DOCKED: ATOM     14  C   UNL     1      26.425 -15.008  -4.164 -0.53 -0.00    +0.000 C 
DOCKED: ATOM     15  O   UNL     1      26.019 -15.614  -5.193 -1.14 +0.00    +0.000 OA
DOCKED: ENDROOT
DOCKED: BRANCH   1  16
DOCKED: ATOM     16  C   UNL     1      25.429 -16.813  -2.686 -0.40 -0.00    +0.000 C 
DOCKED: BRANCH  16  17
DOCKED: ATOM     17  C   UNL     1      24.507 -16.737  -1.456 -0.64 -0.00    +0.000 C 
DOCKED: BRANCH  17  18
DOCKED: ATOM     18  C   UNL     1      24.693 -17.894  -0.456 -0.72 -0.00    +0.000 C 
DOCKED: BRANCH  18  19
DOCKED: ATOM     19  C   UNL     1      23.449 -18.787  -0.262 -0.68 -0.00    +0.000 C 
DOCKED: BRANCH  19  20
DOCKED: ATOM     20  C   UNL     1      22.144 -18.015  -0.010 -0.77 -0.00    +0.000 C 
DOCKED: BRANCH  20  22
DOCKED: ATOM     21  O   UNL     1      19.933 -17.863  -0.905 -1.87 -0.00    +0.000 OA
DOCKED: ATOM     22  C   UNL     1      21.033 -18.478  -0.908 -0.77 -0.00    +0.000 C 
DOCKED: ATOM     23  N   UNL     1      21.205 -19.629  -1.738 -0.61 -0.00    +0.000 N 
DOCKED: ATOM     24  H   UNL     1      22.063 -20.112  -1.732 -0.45 -0.00    +0.000 HD
DOCKED: BRANCH  23  25
DOCKED: ATOM     25  O   UNL     1      20.196 -20.061  -2.533 -1.69 -0.00    +0.000 OA
DOCKED: ATOM     26  H   UNL     1      19.499 -19.388  -2.565 -0.51 -0.00    +0.000 HD
DOCKED: ENDBRANCH  23  25
DOCKED: ENDBRANCH  20  22
DOCKED: ENDBRANCH  19  20
DOCKED: ENDBRANCH  18  19
DOCKED: ENDBRANCH  17  18
DOCKED: ENDBRANCH  16  17
DOCKED: ENDBRANCH   1  16
DOCKED: TORSDOF 7
DOCKED: TER
DOCKED: ENDMDL
________________________________________________________________________________


	BEGINNING GENETIC ALGORITHM DOCKING 21 of 100
Run: 21 Seed: 1116157035 216521296 [ Run 21 of 100 GA/GALS ]
Beginning LAMARCKIAN GENETIC ALGORITHM (LGA), with a maximum of 2500000 energy evaluations.

Final-Value: -14.337


	FINAL GENETIC ALGORITHM DOCKED STATE
	_______________________________________________


Detailed state:  trans 26.785 -17.427 -2.061 quatxyzw -0.369029 0.453582 -0.798307 -0.144175 center 0.154 0.112 -0.159 ntor 7 2.7466 -60.3063 71.1413 67.6963 -29.5499 135.4587 49.3633
State:	 26.785 -17.427  -2.061  -0.373  0.458 -0.807 -163.421      2.75  -60.31   71.14   67.70  -29.55  135.46   49.36

DOCKED: MODEL       21
DOCKED: USER    Run = 21
DOCKED: USER    DPF = ligand_dock.biased.dpf
DOCKED: USER  
DOCKED: USER    Estimated Free Energy of Binding    =  -11.08 kcal/mol  [=(1)+(2)+(3)-(4)]
DOCKED: USER    Estimated Inhibition Constant, Ki   =    7.53 nM (nanomolar)  [Temperature = 298.15 K]
DOCKED: USER    
DOCKED: USER    (1) Final Intermolecular Energy     =  -13.17 kcal/mol
DOCKED: USER        vdW + Hbond + desolv Energy     =  -13.17 kcal/mol
DOCKED: USER        Electrostatic Energy            =   +0.00 kcal/mol
DOCKED: USER    (2) Final Total Internal Energy     =   -1.17 kcal/mol
DOCKED: USER    (3) Torsional Free Energy           =   +2.09 kcal/mol
DOCKED: USER    (4) Unbound System's Energy  [=(2)] =   -1.17 kcal/mol
DOCKED: USER    
DOCKED: USER    
DOCKED: USER    NEWDPF move ligand.pdbqt
DOCKED: USER    NEWDPF about 0.154000 0.112000 -0.159000
DOCKED: USER    NEWDPF tran0 26.785248 -17.427295 -2.061123
DOCKED: USER    NEWDPF quaternion0 -0.369029 0.453582 -0.798307 -0.144175
DOCKED: USER    NEWDPF axisangle0 -0.372925 0.458371 -0.806736 -163.421036
DOCKED: USER    NEWDPF quat0 -0.372925 0.458371 -0.806736 -163.421036
DOCKED: USER    NEWDPF dihe0 2.75 -60.31 71.14 67.70 -29.55 135.46 49.36 
DOCKED: USER  keepresnum = 1 
DOCKED: USER  
DOCKED: REMARK  Name = 
DOCKED: REMARK  7 active torsions:
DOCKED: REMARK  status: ('A' for Active; 'I' for Inactive)
DOCKED: REMARK    1  A    between atoms: C_2  and  C_5
DOCKED: REMARK    2  A    between atoms: N_3  and  O_4
DOCKED: REMARK    3  A    between atoms: C_5  and  C_6
DOCKED: REMARK    4  A    between atoms: C_6  and  C_7
DOCKED: REMARK    5  A    between atoms: C_7  and  C_8
DOCKED: REMARK    6  A    between atoms: C_8  and  C_9
DOCKED: REMARK    7  A    between atoms: C_9  and  N_10
DOCKED: REMARK                            x       y       z     vdW  Elec       q    Type
DOCKED: REMARK                         _______ _______ _______ _____ _____    ______ ____
DOCKED: USER                              x       y       z     vdW  Elec       q    Type
DOCKED: USER                           _______ _______ _______ _____ _____    ______ ____
DOCKED: ROOT
DOCKED: ATOM      1  N   UNL     1      26.530 -15.955  -1.952 -0.38 -0.00    +0.000 N 
DOCKED: ATOM      2  C   UNL     1      26.337 -15.591  -3.333 -0.50 -0.00    +0.000 C 
DOCKED: ATOM      3  C   UNL     1      27.506 -15.345  -4.207 -0.35 -0.00    +0.000 A 
DOCKED: ATOM      4  C   UNL     1      27.328 -15.014  -5.562 -0.31 +0.00    +0.000 A 
DOCKED: ATOM      5  C   UNL     1      28.431 -14.785  -6.386 -0.33 -0.00    +0.000 A 
DOCKED: ATOM      6  C   UNL     1      29.725 -14.882  -5.875 -0.25 -0.00    +0.000 A 
DOCKED: ATOM      7  C   UNL     1      29.928 -15.209  -4.528 -0.15 -0.00    +0.000 A 
DOCKED: ATOM      8  C   UNL     1      31.229 -15.305  -4.013 -0.05 -0.00    +0.000 A 
DOCKED: ATOM      9  C   UNL     1      31.431 -15.631  -2.672 -0.04 -0.00    +0.000 A 
DOCKED: ATOM     10  C   UNL     1      30.341 -15.863  -1.832 -0.10 -0.00    +0.000 A 
DOCKED: ATOM     11  C   UNL     1      29.027 -15.773  -2.324 -0.18 -0.00    +0.000 A 
DOCKED: ATOM     12  C   UNL     1      28.813 -15.445  -3.681 -0.21 -0.00    +0.000 A 
DOCKED: ATOM     13  O   UNL     1      25.169 -15.477  -3.799 -0.70 -0.00    +0.000 OA
DOCKED: ATOM     14  C   UNL     1      27.872 -16.021  -1.430 -0.32 -0.00    +0.000 C 
DOCKED: ATOM     15  O   UNL     1      28.067 -16.288  -0.213 -0.35 -0.00    +0.000 OA
DOCKED: ENDROOT
DOCKED: BRANCH   1  16
DOCKED: ATOM     16  C   UNL     1      25.370 -16.286  -1.106 -0.55 -0.00    +0.000 C 
DOCKED: BRANCH  16  17
DOCKED: ATOM     17  C   UNL     1      25.527 -17.670  -0.451 -0.66 -0.00    +0.000 C 
DOCKED: BRANCH  17  18
DOCKED: ATOM     18  C   UNL     1      24.207 -18.284   0.051 -0.67 -0.00    +0.000 C 
DOCKED: BRANCH  18  19
DOCKED: ATOM     19  C   UNL     1      22.995 -18.059  -0.877 -0.81 -0.00    +0.000 C 
DOCKED: BRANCH  19  20
DOCKED: ATOM     20  C   UNL     1      22.145 -19.314  -1.132 -0.72 -0.00    +0.000 C 
DOCKED: BRANCH  20  22
DOCKED: ATOM     21  O   UNL     1      20.258 -17.854  -1.006 -2.17 -0.00    +0.000 OA
DOCKED: ATOM     22  C   UNL     1      20.677 -19.042  -0.979 -0.89 -0.00    +0.000 C 
DOCKED: ATOM     23  N   UNL     1      19.759 -20.118  -0.769 -0.73 -0.00    +0.000 N 
DOCKED: ATOM     24  H   UNL     1      20.091 -21.044  -0.740 -0.41 -0.00    +0.000 HD
DOCKED: BRANCH  23  25
DOCKED: ATOM     25  O   UNL     1      18.436 -19.872  -0.609 -0.75 -0.00    +0.000 OA
DOCKED: ATOM     26  H   UNL     1      18.269 -18.922  -0.706 -0.59 -0.00    +0.000 HD
DOCKED: ENDBRANCH  23  25
DOCKED: ENDBRANCH  20  22
DOCKED: ENDBRANCH  19  20
DOCKED: ENDBRANCH  18  19
DOCKED: ENDBRANCH  17  18
DOCKED: ENDBRANCH  16  17
DOCKED: ENDBRANCH   1  16
DOCKED: TORSDOF 7
DOCKED: TER
DOCKED: ENDMDL
________________________________________________________________________________


	BEGINNING GENETIC ALGORITHM DOCKING 22 of 100
Run: 22 Seed: 572458946 1269450276 [ Run 22 of 100 GA/GALS ]
Beginning LAMARCKIAN GENETIC ALGORITHM (LGA), with a maximum of 2500000 energy evaluations.

Final-Value: -13.924


	FINAL GENETIC ALGORITHM DOCKED STATE
	_______________________________________________


Detailed state:  trans 27.586 -15.547 -0.735 quatxyzw 0.375914 0.652828 0.454561 0.475266 center 0.154 0.112 -0.159 ntor 7 16.8409 78.9502 131.4617 -155.8279 128.5693 -160.7116 174.6426
State:	 27.586 -15.547  -0.735   0.427  0.742  0.517 123.247     16.84   78.95  131.46 -155.83  128.57 -160.71  174.64

DOCKED: MODEL       22
DOCKED: USER    Run = 22
DOCKED: USER    DPF = ligand_dock.biased.dpf
DOCKED: USER  
DOCKED: USER    Estimated Free Energy of Binding    =  -10.68 kcal/mol  [=(1)+(2)+(3)-(4)]
DOCKED: USER    Estimated Inhibition Constant, Ki   =   14.76 nM (nanomolar)  [Temperature = 298.15 K]
DOCKED: USER    
DOCKED: USER    (1) Final Intermolecular Energy     =  -12.77 kcal/mol
DOCKED: USER        vdW + Hbond + desolv Energy     =  -12.77 kcal/mol
DOCKED: USER        Electrostatic Energy            =   +0.00 kcal/mol
DOCKED: USER    (2) Final Total Internal Energy     =   -1.15 kcal/mol
DOCKED: USER    (3) Torsional Free Energy           =   +2.09 kcal/mol
DOCKED: USER    (4) Unbound System's Energy  [=(2)] =   -1.15 kcal/mol
DOCKED: USER    
DOCKED: USER    
DOCKED: USER    NEWDPF move ligand.pdbqt
DOCKED: USER    NEWDPF about 0.154000 0.112000 -0.159000
DOCKED: USER    NEWDPF tran0 27.586322 -15.546782 -0.735057
DOCKED: USER    NEWDPF quaternion0 0.375914 0.652828 0.454561 0.475266
DOCKED: USER    NEWDPF axisangle0 0.427251 0.741984 0.516640 123.246646
DOCKED: USER    NEWDPF quat0 0.427251 0.741984 0.516640 123.246646
DOCKED: USER    NEWDPF dihe0 16.84 78.95 131.46 -155.83 128.57 -160.71 174.64 
DOCKED: USER  keepresnum = 1 
DOCKED: USER  
DOCKED: REMARK  Name = 
DOCKED: REMARK  7 active torsions:
DOCKED: REMARK  status: ('A' for Active; 'I' for Inactive)
DOCKED: REMARK    1  A    between atoms: C_2  and  C_5
DOCKED: REMARK    2  A    between atoms: N_3  and  O_4
DOCKED: REMARK    3  A    between atoms: C_5  and  C_6
DOCKED: REMARK    4  A    between atoms: C_6  and  C_7
DOCKED: REMARK    5  A    between atoms: C_7  and  C_8
DOCKED: REMARK    6  A    between atoms: C_8  and  C_9
DOCKED: REMARK    7  A    between atoms: C_9  and  N_10
DOCKED: REMARK                            x       y       z     vdW  Elec       q    Type
DOCKED: REMARK                         _______ _______ _______ _____ _____    ______ ____
DOCKED: USER                              x       y       z     vdW  Elec       q    Type
DOCKED: USER                           _______ _______ _______ _____ _____    ______ ____
DOCKED: ROOT
DOCKED: ATOM      1  N   UNL     1      27.241 -16.854  -1.381 -0.40 -0.00    +0.000 N 
DOCKED: ATOM      2  C   UNL     1      28.545 -17.362  -1.724 -0.14 -0.00    +0.000 C 
DOCKED: ATOM      3  C   UNL     1      29.219 -16.905  -2.961 -0.18 -0.00    +0.000 A 
DOCKED: ATOM      4  C   UNL     1      30.502 -17.376  -3.291 -0.18 -0.00    +0.000 A 
DOCKED: ATOM      5  C   UNL     1      31.138 -16.942  -4.455 -0.14 -0.00    +0.000 A 
DOCKED: ATOM      6  C   UNL     1      30.508 -16.035  -5.306 -0.20 -0.00    +0.000 A 
DOCKED: ATOM      7  C   UNL     1      29.229 -15.552  -4.999 -0.27 -0.00    +0.000 A 
DOCKED: ATOM      8  C   UNL     1      28.594 -14.642  -5.856 -0.34 -0.00    +0.000 A 
DOCKED: ATOM      9  C   UNL     1      27.321 -14.161  -5.551 -0.22 -0.00    +0.000 A 
DOCKED: ATOM     10  C   UNL     1      26.668 -14.583  -4.391 -0.43 -0.00    +0.000 A 
DOCKED: ATOM     11  C   UNL     1      27.283 -15.495  -3.517 -0.33 -0.00    +0.000 A 
DOCKED: ATOM     12  C   UNL     1      28.573 -15.986  -3.817 -0.24 -0.00    +0.000 A 
DOCKED: ATOM     13  O   UNL     1      29.114 -18.202  -0.972 -0.30 -0.00    +0.000 OA
DOCKED: ATOM     14  C   UNL     1      26.589 -15.941  -2.286 -0.43 -0.00    +0.000 C 
DOCKED: ATOM     15  O   UNL     1      25.427 -15.520  -2.035 -0.51 -0.00    +0.000 OA
DOCKED: ENDROOT
DOCKED: BRANCH   1  16
DOCKED: ATOM     16  C   UNL     1      26.609 -17.240  -0.108 -0.52 -0.00    +0.000 C 
DOCKED: BRANCH  16  17
DOCKED: ATOM     17  C   UNL     1      25.414 -18.183  -0.334 -0.70 -0.00    +0.000 C 
DOCKED: BRANCH  17  18
DOCKED: ATOM     18  C   UNL     1      24.045 -17.477  -0.348 -0.67 -0.00    +0.000 C 
DOCKED: BRANCH  18  19
DOCKED: ATOM     19  C   UNL     1      22.833 -18.410  -0.147 -0.80 -0.00    +0.000 C 
DOCKED: BRANCH  19  20
DOCKED: ATOM     20  C   UNL     1      22.253 -18.991  -1.447 -0.72 -0.00    +0.000 C 
DOCKED: BRANCH  20  22
DOCKED: ATOM     21  O   UNL     1      20.113 -19.735  -2.206 -1.89 -0.00    +0.000 OA
DOCKED: ATOM     22  C   UNL     1      20.904 -19.615  -1.233 -0.77 -0.00    +0.000 C 
DOCKED: ATOM     23  N   UNL     1      20.502 -20.039   0.072 -0.72 -0.00    +0.000 N 
DOCKED: ATOM     24  H   UNL     1      21.120 -19.936   0.831 -0.48 -0.00    +0.000 HD
DOCKED: BRANCH  23  25
DOCKED: ATOM     25  O   UNL     1      19.277 -20.583   0.271 -0.80 -0.00    +0.000 OA
DOCKED: ATOM     26  H   UNL     1      18.903 -20.859  -0.580 -0.41 -0.00    +0.000 HD
DOCKED: ENDBRANCH  23  25
DOCKED: ENDBRANCH  20  22
DOCKED: ENDBRANCH  19  20
DOCKED: ENDBRANCH  18  19
DOCKED: ENDBRANCH  17  18
DOCKED: ENDBRANCH  16  17
DOCKED: ENDBRANCH   1  16
DOCKED: TORSDOF 7
DOCKED: TER
DOCKED: ENDMDL
________________________________________________________________________________


	BEGINNING GENETIC ALGORITHM DOCKING 23 of 100
Run: 23 Seed: 1939899177 488519334 [ Run 23 of 100 GA/GALS ]
Beginning LAMARCKIAN GENETIC ALGORITHM (LGA), with a maximum of 2500000 energy evaluations.

Final-Value: -13.886


	FINAL GENETIC ALGORITHM DOCKED STATE
	_______________________________________________


Detailed state:  trans 27.980 -15.133 -2.831 quatxyzw -0.485317 0.396811 -0.493222 -0.603109 center 0.154 0.112 -0.159 ntor 7 -6.6737 168.1462 19.8590 15.9915 49.8787 51.6082 -154.2086
State:	 27.980 -15.133  -2.831  -0.608  0.497 -0.618 -105.814     -6.67  168.15   19.86   15.99   49.88   51.61 -154.21

DOCKED: MODEL       23
DOCKED: USER    Run = 23
DOCKED: USER    DPF = ligand_dock.biased.dpf
DOCKED: USER  
DOCKED: USER    Estimated Free Energy of Binding    =  -10.57 kcal/mol  [=(1)+(2)+(3)-(4)]
DOCKED: USER    Estimated Inhibition Constant, Ki   =   17.93 nM (nanomolar)  [Temperature = 298.15 K]
DOCKED: USER    
DOCKED: USER    (1) Final Intermolecular Energy     =  -12.66 kcal/mol
DOCKED: USER        vdW + Hbond + desolv Energy     =  -12.66 kcal/mol
DOCKED: USER        Electrostatic Energy            =   +0.00 kcal/mol
DOCKED: USER    (2) Final Total Internal Energy     =   -1.23 kcal/mol
DOCKED: USER    (3) Torsional Free Energy           =   +2.09 kcal/mol
DOCKED: USER    (4) Unbound System's Energy  [=(2)] =   -1.23 kcal/mol
DOCKED: USER    
DOCKED: USER    
DOCKED: USER    NEWDPF move ligand.pdbqt
DOCKED: USER    NEWDPF about 0.154000 0.112000 -0.159000
DOCKED: USER    NEWDPF tran0 27.979529 -15.133131 -2.831013
DOCKED: USER    NEWDPF quaternion0 -0.485317 0.396811 -0.493222 -0.603109
DOCKED: USER    NEWDPF axisangle0 -0.608426 0.497470 -0.618337 -105.814282
DOCKED: USER    NEWDPF quat0 -0.608426 0.497470 -0.618337 -105.814282
DOCKED: USER    NEWDPF dihe0 -6.67 168.15 19.86 15.99 49.88 51.61 -154.21 
DOCKED: USER  keepresnum = 1 
DOCKED: USER  
DOCKED: REMARK  Name = 
DOCKED: REMARK  7 active torsions:
DOCKED: REMARK  status: ('A' for Active; 'I' for Inactive)
DOCKED: REMARK    1  A    between atoms: C_2  and  C_5
DOCKED: REMARK    2  A    between atoms: N_3  and  O_4
DOCKED: REMARK    3  A    between atoms: C_5  and  C_6
DOCKED: REMARK    4  A    between atoms: C_6  and  C_7
DOCKED: REMARK    5  A    between atoms: C_7  and  C_8
DOCKED: REMARK    6  A    between atoms: C_8  and  C_9
DOCKED: REMARK    7  A    between atoms: C_9  and  N_10
DOCKED: REMARK                            x       y       z     vdW  Elec       q    Type
DOCKED: REMARK                         _______ _______ _______ _____ _____    ______ ____
DOCKED: USER                              x       y       z     vdW  Elec       q    Type
DOCKED: USER                           _______ _______ _______ _____ _____    ______ ____
DOCKED: ROOT
DOCKED: ATOM      1  N   UNL     1      26.663 -14.780  -2.209 -0.29 -0.00    +0.000 N 
DOCKED: ATOM      2  C   UNL     1      25.959 -14.203  -3.326 -0.45 -0.00    +0.000 C 
DOCKED: ATOM      3  C   UNL     1      26.187 -12.787  -3.696 -0.21 -0.00    +0.000 A 
DOCKED: ATOM      4  C   UNL     1      25.524 -12.222  -4.799 -0.26 -0.00    +0.000 A 
DOCKED: ATOM      5  C   UNL     1      25.742 -10.888  -5.149 -0.28 -0.00    +0.000 A 
DOCKED: ATOM      6  C   UNL     1      26.621 -10.100  -4.407 -0.14 -0.00    +0.000 A 
DOCKED: ATOM      7  C   UNL     1      27.293 -10.640  -3.303 -0.10 -0.00    +0.000 A 
DOCKED: ATOM      8  C   UNL     1      28.175  -9.847  -2.556 -0.05 -0.00    +0.000 A 
DOCKED: ATOM      9  C   UNL     1      28.843 -10.385  -1.456 -0.03 -0.00    +0.000 A 
DOCKED: ATOM     10  C   UNL     1      28.638 -11.716  -1.090 -0.06 -0.00    +0.000 A 
DOCKED: ATOM     11  C   UNL     1      27.759 -12.532  -1.823 -0.11 -0.00    +0.000 A 
DOCKED: ATOM     12  C   UNL     1      27.079 -11.996  -2.938 -0.12 -0.00    +0.000 A 
DOCKED: ATOM     13  O   UNL     1      25.144 -14.902  -3.989 -0.91 -0.00    +0.000 OA
DOCKED: ATOM     14  C   UNL     1      27.544 -13.945  -1.433 -0.20 -0.00    +0.000 C 
DOCKED: ATOM     15  O   UNL     1      28.133 -14.412  -0.420 -0.18 -0.00    +0.000 OA
DOCKED: ENDROOT
DOCKED: BRANCH   1  16
DOCKED: ATOM     16  C   UNL     1      26.504 -16.212  -1.896 -0.46 -0.00    +0.000 C 
DOCKED: BRANCH  16  17
DOCKED: ATOM     17  C   UNL     1      25.178 -16.484  -1.162 -0.59 -0.00    +0.000 C 
DOCKED: BRANCH  17  18
DOCKED: ATOM     18  C   UNL     1      24.189 -17.362  -1.952 -0.45 -0.00    +0.000 C 
DOCKED: BRANCH  18  19
DOCKED: ATOM     19  C   UNL     1      23.817 -18.694  -1.267 -0.75 -0.00    +0.000 C 
DOCKED: BRANCH  19  20
DOCKED: ATOM     20  C   UNL     1      22.718 -18.576  -0.199 -0.81 -0.00    +0.000 C 
DOCKED: BRANCH  20  22
DOCKED: ATOM     21  O   UNL     1      20.632 -17.532  -0.719 -2.12 +0.00    +0.000 OA
DOCKED: ATOM     22  C   UNL     1      21.344 -18.569  -0.804 -0.84 -0.00    +0.000 C 
DOCKED: ATOM     23  N   UNL     1      20.826 -19.739  -1.442 -0.78 -0.00    +0.000 N 
DOCKED: ATOM     24  H   UNL     1      21.382 -20.550  -1.499 -0.25 -0.00    +0.000 HD
DOCKED: BRANCH  23  25
DOCKED: ATOM     25  O   UNL     1      19.578 -19.741  -1.969 -1.66 -0.00    +0.000 OA
DOCKED: ATOM     26  H   UNL     1      19.129 -18.912  -1.740 -0.55 -0.00    +0.000 HD
DOCKED: ENDBRANCH  23  25
DOCKED: ENDBRANCH  20  22
DOCKED: ENDBRANCH  19  20
DOCKED: ENDBRANCH  18  19
DOCKED: ENDBRANCH  17  18
DOCKED: ENDBRANCH  16  17
DOCKED: ENDBRANCH   1  16
DOCKED: TORSDOF 7
DOCKED: TER
DOCKED: ENDMDL
________________________________________________________________________________


	BEGINNING GENETIC ALGORITHM DOCKING 24 of 100
Run: 24 Seed: 493889215 729551371 [ Run 24 of 100 GA/GALS ]
Beginning LAMARCKIAN GENETIC ALGORITHM (LGA), with a maximum of 2500000 energy evaluations.

Final-Value: -13.223


	FINAL GENETIC ALGORITHM DOCKED STATE
	_______________________________________________


Detailed state:  trans 27.850 -14.561 -2.669 quatxyzw -0.163034 -0.843980 0.067266 0.506550 center 0.154 0.112 -0.159 ntor 7 -0.8299 -91.7366 162.8437 27.9440 64.4946 -54.3488 177.2183
State:	 27.850 -14.561  -2.669  -0.189 -0.979  0.078 119.131     -0.83  -91.74  162.84   27.94   64.49  -54.35  177.22

DOCKED: MODEL       24
DOCKED: USER    Run = 24
DOCKED: USER    DPF = ligand_dock.biased.dpf
DOCKED: USER  
DOCKED: USER    Estimated Free Energy of Binding    =   -9.74 kcal/mol  [=(1)+(2)+(3)-(4)]
DOCKED: USER    Estimated Inhibition Constant, Ki   =   72.04 nM (nanomolar)  [Temperature = 298.15 K]
DOCKED: USER    
DOCKED: USER    (1) Final Intermolecular Energy     =  -11.83 kcal/mol
DOCKED: USER        vdW + Hbond + desolv Energy     =  -11.83 kcal/mol
DOCKED: USER        Electrostatic Energy            =   +0.00 kcal/mol
DOCKED: USER    (2) Final Total Internal Energy     =   -1.39 kcal/mol
DOCKED: USER    (3) Torsional Free Energy           =   +2.09 kcal/mol
DOCKED: USER    (4) Unbound System's Energy  [=(2)] =   -1.39 kcal/mol
DOCKED: USER    
DOCKED: USER    
DOCKED: USER    NEWDPF move ligand.pdbqt
DOCKED: USER    NEWDPF about 0.154000 0.112000 -0.159000
DOCKED: USER    NEWDPF tran0 27.850494 -14.561162 -2.669357
DOCKED: USER    NEWDPF quaternion0 -0.163034 -0.843980 0.067266 0.506550
DOCKED: USER    NEWDPF axisangle0 -0.189088 -0.978856 0.078016 119.131410
DOCKED: USER    NEWDPF quat0 -0.189088 -0.978856 0.078016 119.131410
DOCKED: USER    NEWDPF dihe0 -0.83 -91.74 162.84 27.94 64.49 -54.35 177.22 
DOCKED: USER  keepresnum = 1 
DOCKED: USER  
DOCKED: REMARK  Name = 
DOCKED: REMARK  7 active torsions:
DOCKED: REMARK  status: ('A' for Active; 'I' for Inactive)
DOCKED: REMARK    1  A    between atoms: C_2  and  C_5
DOCKED: REMARK    2  A    between atoms: N_3  and  O_4
DOCKED: REMARK    3  A    between atoms: C_5  and  C_6
DOCKED: REMARK    4  A    between atoms: C_6  and  C_7
DOCKED: REMARK    5  A    between atoms: C_7  and  C_8
DOCKED: REMARK    6  A    between atoms: C_8  and  C_9
DOCKED: REMARK    7  A    between atoms: C_9  and  N_10
DOCKED: REMARK                            x       y       z     vdW  Elec       q    Type
DOCKED: REMARK                         _______ _______ _______ _____ _____    ______ ____
DOCKED: USER                              x       y       z     vdW  Elec       q    Type
DOCKED: USER                           _______ _______ _______ _____ _____    ______ ____
DOCKED: ROOT
DOCKED: ATOM      1  N   UNL     1      26.933 -15.207  -1.676 -0.28 -0.00    +0.000 N 
DOCKED: ATOM      2  C   UNL     1      26.904 -14.222  -0.624 -0.29 -0.00    +0.000 C 
DOCKED: ATOM      3  C   UNL     1      27.992 -14.175   0.379 -0.20 -0.00    +0.000 A 
DOCKED: ATOM      4  C   UNL     1      27.986 -13.202   1.394 -0.20 -0.00    +0.000 A 
DOCKED: ATOM      5  C   UNL     1      29.013 -13.157   2.338 -0.16 -0.00    +0.000 A 
DOCKED: ATOM      6  C   UNL     1      30.059 -14.077   2.286 -0.15 -0.00    +0.000 A 
DOCKED: ATOM      7  C   UNL     1      30.087 -15.057   1.284 +0.04 -0.00    +0.000 A 
DOCKED: ATOM      8  C   UNL     1      31.138 -15.984   1.233 -0.06 -0.00    +0.000 A 
DOCKED: ATOM      9  C   UNL     1      31.165 -16.959   0.236 -0.13 -0.00    +0.000 A 
DOCKED: ATOM     10  C   UNL     1      30.147 -17.022  -0.716 -0.19 -0.00    +0.000 A 
DOCKED: ATOM     11  C   UNL     1      29.083 -16.104  -0.686 -0.21 -0.00    +0.000 A 
DOCKED: ATOM     12  C   UNL     1      29.048 -15.112   0.319 -0.16 -0.00    +0.000 A 
DOCKED: ATOM     13  O   UNL     1      25.950 -13.399  -0.554 -0.21 -0.00    +0.000 OA
DOCKED: ATOM     14  C   UNL     1      28.004 -16.171  -1.699 -0.32 -0.00    +0.000 C 
DOCKED: ATOM     15  O   UNL     1      28.026 -17.074  -2.578 -0.30 -0.00    +0.000 OA
DOCKED: ENDROOT
DOCKED: BRANCH   1  16
DOCKED: ATOM     16  C   UNL     1      25.899 -15.197  -2.725 -0.49 -0.00    +0.000 C 
DOCKED: BRANCH  16  17
DOCKED: ATOM     17  C   UNL     1      24.902 -16.356  -2.546 -0.34 -0.00    +0.000 C 
DOCKED: BRANCH  17  18
DOCKED: ATOM     18  C   UNL     1      25.054 -17.118  -1.217 -0.66 -0.00    +0.000 C 
DOCKED: BRANCH  18  19
DOCKED: ATOM     19  C   UNL     1      23.730 -17.385  -0.469 -0.68 -0.00    +0.000 C 
DOCKED: BRANCH  19  20
DOCKED: ATOM     20  C   UNL     1      23.094 -18.752  -0.768 -0.83 -0.00    +0.000 C 
DOCKED: BRANCH  20  22
DOCKED: ATOM     21  O   UNL     1      21.010 -17.584  -0.705 -2.10 -0.00    +0.000 OA
DOCKED: ATOM     22  C   UNL     1      21.616 -18.645  -1.013 -0.82 -0.00    +0.000 C 
DOCKED: ATOM     23  N   UNL     1      20.891 -19.749  -1.560 -0.74 -0.00    +0.000 N 
DOCKED: ATOM     24  H   UNL     1      21.367 -20.579  -1.792 -0.32 -0.00    +0.000 HD
DOCKED: BRANCH  23  25
DOCKED: ATOM     25  O   UNL     1      19.554 -19.661  -1.762 -1.60 -0.00    +0.000 OA
DOCKED: ATOM     26  H   UNL     1      19.239 -18.791  -1.472 -0.48 -0.00    +0.000 HD
DOCKED: ENDBRANCH  23  25
DOCKED: ENDBRANCH  20  22
DOCKED: ENDBRANCH  19  20
DOCKED: ENDBRANCH  18  19
DOCKED: ENDBRANCH  17  18
DOCKED: ENDBRANCH  16  17
DOCKED: ENDBRANCH   1  16
DOCKED: TORSDOF 7
DOCKED: TER
DOCKED: ENDMDL
________________________________________________________________________________


	BEGINNING GENETIC ALGORITHM DOCKING 25 of 100
Run: 25 Seed: 1187799338 369800128 [ Run 25 of 100 GA/GALS ]
Beginning LAMARCKIAN GENETIC ALGORITHM (LGA), with a maximum of 2500000 energy evaluations.

Final-Value: -14.370


	FINAL GENETIC ALGORITHM DOCKED STATE
	_______________________________________________


Detailed state:  trans 28.060 -14.375 -1.609 quatxyzw -0.523775 -0.708814 -0.405563 -0.242408 center 0.154 0.112 -0.159 ntor 7 4.8507 143.7215 73.2055 -38.8115 79.8214 -70.5364 180.0000
State:	 28.060 -14.375  -1.609  -0.540 -0.731 -0.418 -151.943      4.85  143.72   73.21  -38.81   79.82  -70.54  180.00

DOCKED: MODEL       25
DOCKED: USER    Run = 25
DOCKED: USER    DPF = ligand_dock.biased.dpf
DOCKED: USER  
DOCKED: USER    Estimated Free Energy of Binding    =  -10.95 kcal/mol  [=(1)+(2)+(3)-(4)]
DOCKED: USER    Estimated Inhibition Constant, Ki   =    9.39 nM (nanomolar)  [Temperature = 298.15 K]
DOCKED: USER    
DOCKED: USER    (1) Final Intermolecular Energy     =  -13.04 kcal/mol
DOCKED: USER        vdW + Hbond + desolv Energy     =  -13.04 kcal/mol
DOCKED: USER        Electrostatic Energy            =   +0.00 kcal/mol
DOCKED: USER    (2) Final Total Internal Energy     =   -1.33 kcal/mol
DOCKED: USER    (3) Torsional Free Energy           =   +2.09 kcal/mol
DOCKED: USER    (4) Unbound System's Energy  [=(2)] =   -1.33 kcal/mol
DOCKED: USER    
DOCKED: USER    
DOCKED: USER    NEWDPF move ligand.pdbqt
DOCKED: USER    NEWDPF about 0.154000 0.112000 -0.159000
DOCKED: USER    NEWDPF tran0 28.060143 -14.374592 -1.609475
DOCKED: USER    NEWDPF quaternion0 -0.523775 -0.708814 -0.405563 -0.242408
DOCKED: USER    NEWDPF axisangle0 -0.539877 -0.730605 -0.418031 -151.942604
DOCKED: USER    NEWDPF quat0 -0.539877 -0.730605 -0.418031 -151.942604
DOCKED: USER    NEWDPF dihe0 4.85 143.72 73.21 -38.81 79.82 -70.54 180.00 
DOCKED: USER  keepresnum = 1 
DOCKED: USER  
DOCKED: REMARK  Name = 
DOCKED: REMARK  7 active torsions:
DOCKED: REMARK  status: ('A' for Active; 'I' for Inactive)
DOCKED: REMARK    1  A    between atoms: C_2  and  C_5
DOCKED: REMARK    2  A    between atoms: N_3  and  O_4
DOCKED: REMARK    3  A    between atoms: C_5  and  C_6
DOCKED: REMARK    4  A    between atoms: C_6  and  C_7
DOCKED: REMARK    5  A    between atoms: C_7  and  C_8
DOCKED: REMARK    6  A    between atoms: C_8  and  C_9
DOCKED: REMARK    7  A    between atoms: C_9  and  N_10
DOCKED: REMARK                            x       y       z     vdW  Elec       q    Type
DOCKED: REMARK                         _______ _______ _______ _____ _____    ______ ____
DOCKED: USER                              x       y       z     vdW  Elec       q    Type
DOCKED: USER                           _______ _______ _______ _____ _____    ______ ____
DOCKED: ROOT
DOCKED: ATOM      1  N   UNL     1      27.361 -15.690  -1.769 -0.28 -0.00    +0.000 N 
DOCKED: ATOM      2  C   UNL     1      28.440 -16.621  -1.557 -0.32 -0.00    +0.000 C 
DOCKED: ATOM      3  C   UNL     1      29.362 -16.953  -2.667 -0.20 -0.00    +0.000 A 
DOCKED: ATOM      4  C   UNL     1      30.434 -17.840  -2.464 -0.14 -0.00    +0.000 A 
DOCKED: ATOM      5  C   UNL     1      31.305 -18.151  -3.510 -0.15 -0.00    +0.000 A 
DOCKED: ATOM      6  C   UNL     1      31.122 -17.584  -4.770 -0.19 -0.00    +0.000 A 
DOCKED: ATOM      7  C   UNL     1      30.061 -16.697  -4.998 -0.26 -0.00    +0.000 A 
DOCKED: ATOM      8  C   UNL     1      29.876 -16.129  -6.266 -0.31 -0.00    +0.000 A 
DOCKED: ATOM      9  C   UNL     1      28.820 -15.246  -6.493 -0.24 -0.00    +0.000 A 
DOCKED: ATOM     10  C   UNL     1      27.938 -14.924  -5.460 -0.38 -0.00    +0.000 A 
DOCKED: ATOM     11  C   UNL     1      28.102 -15.481  -4.180 -0.30 -0.00    +0.000 A 
DOCKED: ATOM     12  C   UNL     1      29.170 -16.375  -3.941 -0.23 -0.00    +0.000 A 
DOCKED: ATOM     13  O   UNL     1      28.600 -17.158  -0.426 -0.36 -0.00    +0.000 OA
DOCKED: ATOM     14  C   UNL     1      27.166 -15.136  -3.085 -0.35 -0.00    +0.000 C 
DOCKED: ATOM     15  O   UNL     1      26.198 -14.358  -3.309 -0.41 -0.00    +0.000 OA
DOCKED: ENDROOT
DOCKED: BRANCH   1  16
DOCKED: ATOM     16  C   UNL     1      26.498 -15.291  -0.643 -0.38 -0.00    +0.000 C 
DOCKED: BRANCH  16  17
DOCKED: ATOM     17  C   UNL     1      25.128 -15.991  -0.706 -0.40 -0.00    +0.000 C 
DOCKED: BRANCH  17  18
DOCKED: ATOM     18  C   UNL     1      24.896 -16.808  -1.991 -0.61 -0.00    +0.000 C 
DOCKED: BRANCH  18  19
DOCKED: ATOM     19  C   UNL     1      23.994 -18.048  -1.815 -0.65 -0.00    +0.000 C 
DOCKED: BRANCH  19  20
DOCKED: ATOM     20  C   UNL     1      22.978 -17.939  -0.668 -0.81 -0.00    +0.000 C 
DOCKED: BRANCH  20  22
DOCKED: ATOM     21  O   UNL     1      20.594 -17.772  -0.710 -2.25 -0.00    +0.000 OA
DOCKED: ATOM     22  C   UNL     1      21.614 -18.416  -1.076 -0.76 -0.00    +0.000 C 
DOCKED: ATOM     23  N   UNL     1      21.465 -19.612  -1.844 -0.43 -0.00    +0.000 N 
DOCKED: ATOM     24  H   UNL     1      22.264 -20.117  -2.122 -0.53 -0.00    +0.000 HD
DOCKED: BRANCH  23  25
DOCKED: ATOM     25  O   UNL     1      20.234 -20.055  -2.196 -1.84 -0.00    +0.000 OA
DOCKED: ATOM     26  H   UNL     1      19.566 -19.411  -1.915 -0.27 -0.00    +0.000 HD
DOCKED: ENDBRANCH  23  25
DOCKED: ENDBRANCH  20  22
DOCKED: ENDBRANCH  19  20
DOCKED: ENDBRANCH  18  19
DOCKED: ENDBRANCH  17  18
DOCKED: ENDBRANCH  16  17
DOCKED: ENDBRANCH   1  16
DOCKED: TORSDOF 7
DOCKED: TER
DOCKED: ENDMDL
________________________________________________________________________________


	BEGINNING GENETIC ALGORITHM DOCKING 26 of 100
Run: 26 Seed: 1441346000 603819275 [ Run 26 of 100 GA/GALS ]
Beginning LAMARCKIAN GENETIC ALGORITHM (LGA), with a maximum of 2500000 energy evaluations.

Final-Value: -14.025


	FINAL GENETIC ALGORITHM DOCKED STATE
	_______________________________________________


Detailed state:  trans 27.188 -18.016 -2.224 quatxyzw -0.420946 0.590354 -0.687898 -0.032931 center 0.154 0.112 -0.159 ntor 7 22.6543 -68.0072 171.5671 -140.9779 -167.5000 -157.2488 -3.7820
State:	 27.188 -18.016  -2.224  -0.421  0.591 -0.688 -176.226     22.65  -68.01  171.57 -140.98 -167.50 -157.25   -3.78

DOCKED: MODEL       26
DOCKED: USER    Run = 26
DOCKED: USER    DPF = ligand_dock.biased.dpf
DOCKED: USER  
DOCKED: USER    Estimated Free Energy of Binding    =  -10.83 kcal/mol  [=(1)+(2)+(3)-(4)]
DOCKED: USER    Estimated Inhibition Constant, Ki   =   11.46 nM (nanomolar)  [Temperature = 298.15 K]
DOCKED: USER    
DOCKED: USER    (1) Final Intermolecular Energy     =  -12.92 kcal/mol
DOCKED: USER        vdW + Hbond + desolv Energy     =  -12.92 kcal/mol
DOCKED: USER        Electrostatic Energy            =   +0.00 kcal/mol
DOCKED: USER    (2) Final Total Internal Energy     =   -1.10 kcal/mol
DOCKED: USER    (3) Torsional Free Energy           =   +2.09 kcal/mol
DOCKED: USER    (4) Unbound System's Energy  [=(2)] =   -1.10 kcal/mol
DOCKED: USER    
DOCKED: USER    
DOCKED: USER    NEWDPF move ligand.pdbqt
DOCKED: USER    NEWDPF about 0.154000 0.112000 -0.159000
DOCKED: USER    NEWDPF tran0 27.188391 -18.015658 -2.223935
DOCKED: USER    NEWDPF quaternion0 -0.420946 0.590354 -0.687898 -0.032931
DOCKED: USER    NEWDPF axisangle0 -0.421174 0.590674 -0.688271 -176.225708
DOCKED: USER    NEWDPF quat0 -0.421174 0.590674 -0.688271 -176.225708
DOCKED: USER    NEWDPF dihe0 22.65 -68.01 171.57 -140.98 -167.50 -157.25 -3.78 
DOCKED: USER  keepresnum = 1 
DOCKED: USER  
DOCKED: REMARK  Name = 
DOCKED: REMARK  7 active torsions:
DOCKED: REMARK  status: ('A' for Active; 'I' for Inactive)
DOCKED: REMARK    1  A    between atoms: C_2  and  C_5
DOCKED: REMARK    2  A    between atoms: N_3  and  O_4
DOCKED: REMARK    3  A    between atoms: C_5  and  C_6
DOCKED: REMARK    4  A    between atoms: C_6  and  C_7
DOCKED: REMARK    5  A    between atoms: C_7  and  C_8
DOCKED: REMARK    6  A    between atoms: C_8  and  C_9
DOCKED: REMARK    7  A    between atoms: C_9  and  N_10
DOCKED: REMARK                            x       y       z     vdW  Elec       q    Type
DOCKED: REMARK                         _______ _______ _______ _____ _____    ______ ____
DOCKED: USER                              x       y       z     vdW  Elec       q    Type
DOCKED: USER                           _______ _______ _______ _____ _____    ______ ____
DOCKED: ROOT
DOCKED: ATOM      1  N   UNL     1      27.317 -16.594  -1.768 -0.35 -0.00    +0.000 N 
DOCKED: ATOM      2  C   UNL     1      26.839 -15.874  -2.921 -0.40 -0.00    +0.000 C 
DOCKED: ATOM      3  C   UNL     1      27.747 -15.612  -4.061 -0.30 -0.00    +0.000 A 
DOCKED: ATOM      4  C   UNL     1      27.283 -14.933  -5.201 -0.42 -0.00    +0.000 A 
DOCKED: ATOM      5  C   UNL     1      28.138 -14.689  -6.277 -0.31 -0.00    +0.000 A 
DOCKED: ATOM      6  C   UNL     1      29.464 -15.116  -6.234 -0.32 -0.00    +0.000 A 
DOCKED: ATOM      7  C   UNL     1      29.950 -15.795  -5.108 -0.23 -0.00    +0.000 A 
DOCKED: ATOM      8  C   UNL     1      31.284 -16.223  -5.064 -0.11 -0.00    +0.000 A 
DOCKED: ATOM      9  C   UNL     1      31.768 -16.898  -3.943 -0.08 -0.00    +0.000 A 
DOCKED: ATOM     10  C   UNL     1      30.929 -17.151  -2.857 -0.13 -0.00    +0.000 A 
DOCKED: ATOM     11  C   UNL     1      29.587 -16.732  -2.877 -0.20 -0.00    +0.000 A 
DOCKED: ATOM     12  C   UNL     1      29.089 -16.048  -4.009 -0.24 -0.00    +0.000 A 
DOCKED: ATOM     13  O   UNL     1      25.647 -15.462  -2.959 -0.54 -0.00    +0.000 OA
DOCKED: ATOM     14  C   UNL     1      28.699 -17.003  -1.724 -0.30 -0.00    +0.000 C 
DOCKED: ATOM     15  O   UNL     1      29.155 -17.590  -0.705 -0.34 -0.00    +0.000 OA
DOCKED: ENDROOT
DOCKED: BRANCH   1  16
DOCKED: ATOM     16  C   UNL     1      26.391 -16.933  -0.672 -0.55 -0.00    +0.000 C 
DOCKED: BRANCH  16  17
DOCKED: ATOM     17  C   UNL     1      25.414 -18.048  -1.084 -0.62 -0.00    +0.000 C 
DOCKED: BRANCH  17  18
DOCKED: ATOM     18  C   UNL     1      24.072 -17.537  -1.642 -0.67 -0.00    +0.000 C 
DOCKED: BRANCH  18  19
DOCKED: ATOM     19  C   UNL     1      22.912 -17.523  -0.624 -0.77 -0.00    +0.000 C 
DOCKED: BRANCH  19  20
DOCKED: ATOM     20  C   UNL     1      22.326 -18.908  -0.307 -0.80 -0.00    +0.000 C 
DOCKED: BRANCH  20  22
DOCKED: ATOM     21  O   UNL     1      20.259 -17.983  -1.071 -2.15 -0.00    +0.000 OA
DOCKED: ATOM     22  C   UNL     1      20.839 -18.951  -0.509 -0.85 -0.00    +0.000 C 
DOCKED: ATOM     23  N   UNL     1      20.076 -20.064  -0.038 -0.74 -0.00    +0.000 N 
DOCKED: ATOM     24  H   UNL     1      20.531 -20.815   0.407 -0.16 -0.00    +0.000 HD
DOCKED: BRANCH  23  25
DOCKED: ATOM     25  O   UNL     1      18.731 -20.095  -0.200 -0.87 -0.00    +0.000 OA
DOCKED: ATOM     26  H   UNL     1      18.480 -19.510  -0.932 -0.49 -0.00    +0.000 HD
DOCKED: ENDBRANCH  23  25
DOCKED: ENDBRANCH  20  22
DOCKED: ENDBRANCH  19  20
DOCKED: ENDBRANCH  18  19
DOCKED: ENDBRANCH  17  18
DOCKED: ENDBRANCH  16  17
DOCKED: ENDBRANCH   1  16
DOCKED: TORSDOF 7
DOCKED: TER
DOCKED: ENDMDL
________________________________________________________________________________


	BEGINNING GENETIC ALGORITHM DOCKING 27 of 100
Run: 27 Seed: 1865003409 1369576075 [ Run 27 of 100 GA/GALS ]
Beginning LAMARCKIAN GENETIC ALGORITHM (LGA), with a maximum of 2500000 energy evaluations.

Final-Value: -14.410


	FINAL GENETIC ALGORITHM DOCKED STATE
	_______________________________________________


Detailed state:  trans 27.664 -15.305 -1.355 quatxyzw 0.340366 0.723632 0.434812 0.414060 center 0.154 0.112 -0.159 ntor 7 -2.7704 104.6819 43.8919 83.8875 161.5944 -167.3762 -174.0605
State:	 27.664 -15.305  -1.355   0.374  0.795  0.478 131.080     -2.77  104.68   43.89   83.89  161.59 -167.38 -174.06

DOCKED: MODEL       27
DOCKED: USER    Run = 27
DOCKED: USER    DPF = ligand_dock.biased.dpf
DOCKED: USER  
DOCKED: USER    Estimated Free Energy of Binding    =  -11.11 kcal/mol  [=(1)+(2)+(3)-(4)]
DOCKED: USER    Estimated Inhibition Constant, Ki   =    7.22 nM (nanomolar)  [Temperature = 298.15 K]
DOCKED: USER    
DOCKED: USER    (1) Final Intermolecular Energy     =  -13.20 kcal/mol
DOCKED: USER        vdW + Hbond + desolv Energy     =  -13.20 kcal/mol
DOCKED: USER        Electrostatic Energy            =   +0.00 kcal/mol
DOCKED: USER    (2) Final Total Internal Energy     =   -1.21 kcal/mol
DOCKED: USER    (3) Torsional Free Energy           =   +2.09 kcal/mol
DOCKED: USER    (4) Unbound System's Energy  [=(2)] =   -1.21 kcal/mol
DOCKED: USER    
DOCKED: USER    
DOCKED: USER    NEWDPF move ligand.pdbqt
DOCKED: USER    NEWDPF about 0.154000 0.112000 -0.159000
DOCKED: USER    NEWDPF tran0 27.663605 -15.305251 -1.355459
DOCKED: USER    NEWDPF quaternion0 0.340366 0.723632 0.434812 0.414060
DOCKED: USER    NEWDPF axisangle0 0.373927 0.794982 0.477684 131.079746
DOCKED: USER    NEWDPF quat0 0.373927 0.794982 0.477684 131.079746
DOCKED: USER    NEWDPF dihe0 -2.77 104.68 43.89 83.89 161.59 -167.38 -174.06 
DOCKED: USER  keepresnum = 1 
DOCKED: USER  
DOCKED: REMARK  Name = 
DOCKED: REMARK  7 active torsions:
DOCKED: REMARK  status: ('A' for Active; 'I' for Inactive)
DOCKED: REMARK    1  A    between atoms: C_2  and  C_5
DOCKED: REMARK    2  A    between atoms: N_3  and  O_4
DOCKED: REMARK    3  A    between atoms: C_5  and  C_6
DOCKED: REMARK    4  A    between atoms: C_6  and  C_7
DOCKED: REMARK    5  A    between atoms: C_7  and  C_8
DOCKED: REMARK    6  A    between atoms: C_8  and  C_9
DOCKED: REMARK    7  A    between atoms: C_9  and  N_10
DOCKED: REMARK                            x       y       z     vdW  Elec       q    Type
DOCKED: REMARK                         _______ _______ _______ _____ _____    ______ ____
DOCKED: USER                              x       y       z     vdW  Elec       q    Type
DOCKED: USER                           _______ _______ _______ _____ _____    ______ ____
DOCKED: ROOT
DOCKED: ATOM      1  N   UNL     1      27.502 -16.690  -1.905 -0.35 -0.00    +0.000 N 
DOCKED: ATOM      2  C   UNL     1      28.871 -17.135  -1.978 -0.24 -0.00    +0.000 C 
DOCKED: ATOM      3  C   UNL     1      29.716 -16.753  -3.132 -0.20 -0.00    +0.000 A 
DOCKED: ATOM      4  C   UNL     1      31.060 -17.162  -3.199 -0.13 -0.00    +0.000 A 
DOCKED: ATOM      5  C   UNL     1      31.857 -16.799  -4.286 -0.07 -0.00    +0.000 A 
DOCKED: ATOM      6  C   UNL     1      31.330 -16.025  -5.319 -0.11 -0.00    +0.000 A 
DOCKED: ATOM      7  C   UNL     1      29.993 -15.606  -5.275 -0.22 -0.00    +0.000 A 
DOCKED: ATOM      8  C   UNL     1      29.462 -14.830  -6.315 -0.31 -0.00    +0.000 A 
DOCKED: ATOM      9  C   UNL     1      28.132 -14.414  -6.272 -0.29 -0.00    +0.000 A 
DOCKED: ATOM     10  C   UNL     1      27.318 -14.767  -5.194 -0.40 -0.00    +0.000 A 
DOCKED: ATOM     11  C   UNL     1      27.827 -15.544  -4.139 -0.31 -0.00    +0.000 A 
DOCKED: ATOM     12  C   UNL     1      29.174 -15.970  -4.174 -0.25 -0.00    +0.000 A 
DOCKED: ATOM     13  O   UNL     1      29.350 -17.856  -1.059 -0.34 -0.00    +0.000 OA
DOCKED: ATOM     14  C   UNL     1      26.962 -15.917  -2.996 -0.37 -0.00    +0.000 C 
DOCKED: ATOM     15  O   UNL     1      25.753 -15.557  -2.981 -0.53 -0.00    +0.000 OA
DOCKED: ENDROOT
DOCKED: BRANCH   1  16
DOCKED: ATOM     16  C   UNL     1      26.688 -16.995  -0.716 -0.53 -0.00    +0.000 C 
DOCKED: BRANCH  16  17
DOCKED: ATOM     17  C   UNL     1      25.793 -18.226  -0.945 -0.55 -0.00    +0.000 C 
DOCKED: BRANCH  17  18
DOCKED: ATOM     18  C   UNL     1      24.312 -17.890  -1.205 -0.75 -0.00    +0.000 C 
DOCKED: BRANCH  18  19
DOCKED: ATOM     19  C   UNL     1      23.309 -18.671  -0.329 -0.79 -0.00    +0.000 C 
DOCKED: BRANCH  19  20
DOCKED: ATOM     20  C   UNL     1      22.006 -17.915  -0.026 -0.69 -0.00    +0.000 C 
DOCKED: BRANCH  20  22
DOCKED: ATOM     21  O   UNL     1      19.715 -17.907  -0.707 -1.68 -0.00    +0.000 OA
DOCKED: ATOM     22  C   UNL     1      20.845 -18.455  -0.810 -0.72 -0.00    +0.000 C 
DOCKED: ATOM     23  N   UNL     1      21.007 -19.605  -1.644 -0.72 -0.00    +0.000 N 
DOCKED: ATOM     24  H   UNL     1      21.890 -20.035  -1.716 -0.42 -0.00    +0.000 HD
DOCKED: BRANCH  23  25
DOCKED: ATOM     25  O   UNL     1      19.957 -20.107  -2.336 -1.75 -0.00    +0.000 OA
DOCKED: ATOM     26  H   UNL     1      19.157 -19.600  -2.124 -0.46 -0.00    +0.000 HD
DOCKED: ENDBRANCH  23  25
DOCKED: ENDBRANCH  20  22
DOCKED: ENDBRANCH  19  20
DOCKED: ENDBRANCH  18  19
DOCKED: ENDBRANCH  17  18
DOCKED: ENDBRANCH  16  17
DOCKED: ENDBRANCH   1  16
DOCKED: TORSDOF 7
DOCKED: TER
DOCKED: ENDMDL
________________________________________________________________________________


	BEGINNING GENETIC ALGORITHM DOCKING 28 of 100
Run: 28 Seed: 959001728 1315322237 [ Run 28 of 100 GA/GALS ]
Beginning LAMARCKIAN GENETIC ALGORITHM (LGA), with a maximum of 2500000 energy evaluations.

Final-Value: -14.285


	FINAL GENETIC ALGORITHM DOCKED STATE
	_______________________________________________


Detailed state:  trans 26.384 -16.610 -3.289 quatxyzw -0.300426 0.704726 -0.635238 0.097869 center 0.154 0.112 -0.159 ntor 7 15.1230 -70.4909 -148.0241 -142.1473 148.3286 128.9535 34.5354
State:	 26.384 -16.610  -3.289  -0.302  0.708 -0.638 168.767     15.12  -70.49 -148.02 -142.15  148.33  128.95   34.54

DOCKED: MODEL       28
DOCKED: USER    Run = 28
DOCKED: USER    DPF = ligand_dock.biased.dpf
DOCKED: USER  
DOCKED: USER    Estimated Free Energy of Binding    =  -11.07 kcal/mol  [=(1)+(2)+(3)-(4)]
DOCKED: USER    Estimated Inhibition Constant, Ki   =    7.65 nM (nanomolar)  [Temperature = 298.15 K]
DOCKED: USER    
DOCKED: USER    (1) Final Intermolecular Energy     =  -13.16 kcal/mol
DOCKED: USER        vdW + Hbond + desolv Energy     =  -13.16 kcal/mol
DOCKED: USER        Electrostatic Energy            =   +0.00 kcal/mol
DOCKED: USER    (2) Final Total Internal Energy     =   -1.12 kcal/mol
DOCKED: USER    (3) Torsional Free Energy           =   +2.09 kcal/mol
DOCKED: USER    (4) Unbound System's Energy  [=(2)] =   -1.12 kcal/mol
DOCKED: USER    
DOCKED: USER    
DOCKED: USER    NEWDPF move ligand.pdbqt
DOCKED: USER    NEWDPF about 0.154000 0.112000 -0.159000
DOCKED: USER    NEWDPF tran0 26.383749 -16.609873 -3.289227
DOCKED: USER    NEWDPF quaternion0 -0.300426 0.704726 -0.635238 0.097869
DOCKED: USER    NEWDPF axisangle0 -0.301875 0.708126 -0.638302 168.767113
DOCKED: USER    NEWDPF quat0 -0.301875 0.708126 -0.638302 168.767113
DOCKED: USER    NEWDPF dihe0 15.12 -70.49 -148.02 -142.15 148.33 128.95 34.54 
DOCKED: USER  keepresnum = 1 
DOCKED: USER  
DOCKED: REMARK  Name = 
DOCKED: REMARK  7 active torsions:
DOCKED: REMARK  status: ('A' for Active; 'I' for Inactive)
DOCKED: REMARK    1  A    between atoms: C_2  and  C_5
DOCKED: REMARK    2  A    between atoms: N_3  and  O_4
DOCKED: REMARK    3  A    between atoms: C_5  and  C_6
DOCKED: REMARK    4  A    between atoms: C_6  and  C_7
DOCKED: REMARK    5  A    between atoms: C_7  and  C_8
DOCKED: REMARK    6  A    between atoms: C_8  and  C_9
DOCKED: REMARK    7  A    between atoms: C_9  and  N_10
DOCKED: REMARK                            x       y       z     vdW  Elec       q    Type
DOCKED: REMARK                         _______ _______ _______ _____ _____    ______ ____
DOCKED: USER                              x       y       z     vdW  Elec       q    Type
DOCKED: USER                           _______ _______ _______ _____ _____    ______ ____
DOCKED: ROOT
DOCKED: ATOM      1  N   UNL     1      27.087 -15.429  -2.694 -0.30 -0.00    +0.000 N 
DOCKED: ATOM      2  C   UNL     1      26.927 -14.441  -3.731 -0.38 -0.00    +0.000 C 
DOCKED: ATOM      3  C   UNL     1      27.845 -14.429  -4.893 -0.31 -0.00    +0.000 A 
DOCKED: ATOM      4  C   UNL     1      27.681 -13.486  -5.922 -0.18 -0.00    +0.000 A 
DOCKED: ATOM      5  C   UNL     1      28.545 -13.476  -7.019 -0.25 -0.00    +0.000 A 
DOCKED: ATOM      6  C   UNL     1      29.582 -14.404  -7.106 -0.29 -0.00    +0.000 A 
DOCKED: ATOM      7  C   UNL     1      29.767 -15.353  -6.092 -0.29 -0.00    +0.000 A 
DOCKED: ATOM      8  C   UNL     1      30.811 -16.285  -6.179 -0.23 -0.00    +0.000 A 
DOCKED: ATOM      9  C   UNL     1      30.995 -17.230  -5.169 -0.20 -0.00    +0.000 A 
DOCKED: ATOM     10  C   UNL     1      30.142 -17.255  -4.065 -0.22 -0.00    +0.000 A 
DOCKED: ATOM     11  C   UNL     1      29.088 -16.331  -3.955 -0.22 -0.00    +0.000 A 
DOCKED: ATOM     12  C   UNL     1      28.894 -15.372  -4.973 -0.29 -0.00    +0.000 A 
DOCKED: ATOM     13  O   UNL     1      26.006 -13.583  -3.649 -0.41 -0.00    +0.000 OA
DOCKED: ATOM     14  C   UNL     1      28.183 -16.361  -2.782 -0.28 -0.00    +0.000 C 
DOCKED: ATOM     15  O   UNL     1      28.376 -17.202  -1.863 -0.35 -0.00    +0.000 OA
DOCKED: ENDROOT
DOCKED: BRANCH   1  16
DOCKED: ATOM     16  C   UNL     1      26.121 -15.497  -1.584 -0.44 -0.00    +0.000 C 
DOCKED: BRANCH  16  17
DOCKED: ATOM     17  C   UNL     1      25.258 -16.769  -1.665 -0.62 -0.00    +0.000 C 
DOCKED: BRANCH  17  18
DOCKED: ATOM     18  C   UNL     1      24.033 -16.761  -0.732 -0.58 -0.00    +0.000 C 
DOCKED: BRANCH  18  19
DOCKED: ATOM     19  C   UNL     1      23.697 -18.126  -0.093 -0.73 -0.00    +0.000 C 
DOCKED: BRANCH  19  20
DOCKED: ATOM     20  C   UNL     1      23.016 -19.124  -1.044 -0.79 -0.00    +0.000 C 
DOCKED: BRANCH  20  22
DOCKED: ATOM     21  O   UNL     1      21.006 -17.955  -0.490 -2.02 -0.00    +0.000 OA
DOCKED: ATOM     22  C   UNL     1      21.527 -18.939  -1.082 -0.84 -0.00    +0.000 C 
DOCKED: ATOM     23  N   UNL     1      20.696 -19.888  -1.755 -0.68 -0.00    +0.000 N 
DOCKED: ATOM     24  H   UNL     1      21.106 -20.660  -2.209 -0.35 -0.00    +0.000 HD
DOCKED: BRANCH  23  25
DOCKED: ATOM     25  O   UNL     1      19.350 -19.735  -1.772 -1.35 -0.00    +0.000 OA
DOCKED: ATOM     26  H   UNL     1      19.124 -18.831  -1.502 -0.56 -0.00    +0.000 HD
DOCKED: ENDBRANCH  23  25
DOCKED: ENDBRANCH  20  22
DOCKED: ENDBRANCH  19  20
DOCKED: ENDBRANCH  18  19
DOCKED: ENDBRANCH  17  18
DOCKED: ENDBRANCH  16  17
DOCKED: ENDBRANCH   1  16
DOCKED: TORSDOF 7
DOCKED: TER
DOCKED: ENDMDL
________________________________________________________________________________


	BEGINNING GENETIC ALGORITHM DOCKING 29 of 100
Run: 29 Seed: 1811309862 531497163 [ Run 29 of 100 GA/GALS ]
Beginning LAMARCKIAN GENETIC ALGORITHM (LGA), with a maximum of 2500000 energy evaluations.

Final-Value: -14.098


	FINAL GENETIC ALGORITHM DOCKED STATE
	_______________________________________________


Detailed state:  trans 25.252 -13.902 -3.996 quatxyzw 0.122845 -0.982723 0.001053 -0.138431 center 0.154 0.112 -0.159 ntor 7 -15.7841 156.1961 116.3991 -157.9611 -110.8905 171.5315 -143.7956
State:	 25.252 -13.902  -3.996   0.124 -0.992  0.001 -164.086    -15.78  156.20  116.40 -157.96 -110.89  171.53 -143.80

DOCKED: MODEL       29
DOCKED: USER    Run = 29
DOCKED: USER    DPF = ligand_dock.biased.dpf
DOCKED: USER  
DOCKED: USER    Estimated Free Energy of Binding    =  -10.80 kcal/mol  [=(1)+(2)+(3)-(4)]
DOCKED: USER    Estimated Inhibition Constant, Ki   =   12.11 nM (nanomolar)  [Temperature = 298.15 K]
DOCKED: USER    
DOCKED: USER    (1) Final Intermolecular Energy     =  -12.89 kcal/mol
DOCKED: USER        vdW + Hbond + desolv Energy     =  -12.89 kcal/mol
DOCKED: USER        Electrostatic Energy            =   +0.00 kcal/mol
DOCKED: USER    (2) Final Total Internal Energy     =   -1.21 kcal/mol
DOCKED: USER    (3) Torsional Free Energy           =   +2.09 kcal/mol
DOCKED: USER    (4) Unbound System's Energy  [=(2)] =   -1.21 kcal/mol
DOCKED: USER    
DOCKED: USER    
DOCKED: USER    NEWDPF move ligand.pdbqt
DOCKED: USER    NEWDPF about 0.154000 0.112000 -0.159000
DOCKED: USER    NEWDPF tran0 25.251585 -13.901529 -3.996361
DOCKED: USER    NEWDPF quaternion0 0.122845 -0.982723 0.001053 -0.138431
DOCKED: USER    NEWDPF axisangle0 0.124039 -0.992277 0.001063 -164.085851
DOCKED: USER    NEWDPF quat0 0.124039 -0.992277 0.001063 -164.085851
DOCKED: USER    NEWDPF dihe0 -15.78 156.20 116.40 -157.96 -110.89 171.53 -143.80 
DOCKED: USER  keepresnum = 1 
DOCKED: USER  
DOCKED: REMARK  Name = 
DOCKED: REMARK  7 active torsions:
DOCKED: REMARK  status: ('A' for Active; 'I' for Inactive)
DOCKED: REMARK    1  A    between atoms: C_2  and  C_5
DOCKED: REMARK    2  A    between atoms: N_3  and  O_4
DOCKED: REMARK    3  A    between atoms: C_5  and  C_6
DOCKED: REMARK    4  A    between atoms: C_6  and  C_7
DOCKED: REMARK    5  A    between atoms: C_7  and  C_8
DOCKED: REMARK    6  A    between atoms: C_8  and  C_9
DOCKED: REMARK    7  A    between atoms: C_9  and  N_10
DOCKED: REMARK                            x       y       z     vdW  Elec       q    Type
DOCKED: REMARK                         _______ _______ _______ _____ _____    ______ ____
DOCKED: USER                              x       y       z     vdW  Elec       q    Type
DOCKED: USER                           _______ _______ _______ _____ _____    ______ ____
DOCKED: ROOT
DOCKED: ATOM      1  N   UNL     1      26.315 -14.560  -3.171 -0.37 -0.00    +0.000 N 
DOCKED: ATOM      2  C   UNL     1      26.956 -13.422  -2.562 -0.23 -0.00    +0.000 C 
DOCKED: ATOM      3  C   UNL     1      27.980 -12.658  -3.311 -0.11 -0.00    +0.000 A 
DOCKED: ATOM      4  C   UNL     1      28.594 -11.531  -2.735 -0.05 -0.00    +0.000 A 
DOCKED: ATOM      5  C   UNL     1      29.557 -10.810  -3.442 -0.02 -0.00    +0.000 A 
DOCKED: ATOM      6  C   UNL     1      29.923 -11.199  -4.730 -0.02 -0.00    +0.000 A 
DOCKED: ATOM      7  C   UNL     1      29.327 -12.319  -5.325 -0.08 -0.00    +0.000 A 
DOCKED: ATOM      8  C   UNL     1      29.697 -12.711  -6.619 -0.13 -0.00    +0.000 A 
DOCKED: ATOM      9  C   UNL     1      29.104 -13.826  -7.211 -0.29 -0.00    +0.000 A 
DOCKED: ATOM     10  C   UNL     1      28.139 -14.561  -6.520 -0.18 -0.00    +0.000 A 
DOCKED: ATOM     11  C   UNL     1      27.751 -14.188  -5.221 -0.32 -0.00    +0.000 A 
DOCKED: ATOM     12  C   UNL     1      28.346 -13.059  -4.615 -0.14 -0.00    +0.000 A 
DOCKED: ATOM     13  O   UNL     1      26.649 -13.076  -1.388 -0.21 -0.00    +0.000 OA
DOCKED: ATOM     14  C   UNL     1      26.726 -14.968  -4.491 -0.51 -0.00    +0.000 C 
DOCKED: ATOM     15  O   UNL     1      26.217 -15.990  -5.026 -1.00 +0.00    +0.000 OA
DOCKED: ENDROOT
DOCKED: BRANCH   1  16
DOCKED: ATOM     16  C   UNL     1      25.233 -15.265  -2.461 -0.43 -0.00    +0.000 C 
DOCKED: BRANCH  16  17
DOCKED: ATOM     17  C   UNL     1      25.760 -15.996  -1.214 -0.51 -0.00    +0.000 C 
DOCKED: BRANCH  17  18
DOCKED: ATOM     18  C   UNL     1      25.435 -17.501  -1.179 -0.65 -0.00    +0.000 C 
DOCKED: BRANCH  18  19
DOCKED: ATOM     19  C   UNL     1      24.006 -17.865  -1.636 -0.70 -0.00    +0.000 C 
DOCKED: BRANCH  19  20
DOCKED: ATOM     20  C   UNL     1      22.972 -17.931  -0.500 -0.81 -0.00    +0.000 C 
DOCKED: BRANCH  20  22
DOCKED: ATOM     21  O   UNL     1      20.633 -17.494  -0.718 -2.09 +0.00    +0.000 OA
DOCKED: ATOM     22  C   UNL     1      21.597 -18.253  -1.008 -0.74 -0.00    +0.000 C 
DOCKED: ATOM     23  N   UNL     1      21.369 -19.429  -1.788 -0.61 -0.00    +0.000 N 
DOCKED: ATOM     24  H   UNL     1      22.123 -20.024  -2.006 -0.50 -0.00    +0.000 HD
DOCKED: BRANCH  23  25
DOCKED: ATOM     25  O   UNL     1      20.125 -19.732  -2.229 -1.86 -0.00    +0.000 OA
DOCKED: ATOM     26  H   UNL     1      19.471 -19.210  -1.739 -0.31 -0.00    +0.000 HD
DOCKED: ENDBRANCH  23  25
DOCKED: ENDBRANCH  20  22
DOCKED: ENDBRANCH  19  20
DOCKED: ENDBRANCH  18  19
DOCKED: ENDBRANCH  17  18
DOCKED: ENDBRANCH  16  17
DOCKED: ENDBRANCH   1  16
DOCKED: TORSDOF 7
DOCKED: TER
DOCKED: ENDMDL
________________________________________________________________________________


	BEGINNING GENETIC ALGORITHM DOCKING 30 of 100
Run: 30 Seed: 1938739063 1937220870 [ Run 30 of 100 GA/GALS ]
Beginning LAMARCKIAN GENETIC ALGORITHM (LGA), with a maximum of 2500000 energy evaluations.

Final-Value: -14.173


	FINAL GENETIC ALGORITHM DOCKED STATE
	_______________________________________________


Detailed state:  trans 27.211 -15.998 -1.855 quatxyzw -0.387163 0.127047 -0.862822 -0.299168 center 0.154 0.112 -0.159 ntor 7 -3.1412 -168.3998 112.2482 -166.9874 -113.5182 -175.6691 35.4394
State:	 27.211 -15.998  -1.855  -0.406  0.133 -0.904 -145.185     -3.14 -168.40  112.25 -166.99 -113.52 -175.67   35.44

DOCKED: MODEL       30
DOCKED: USER    Run = 30
DOCKED: USER    DPF = ligand_dock.biased.dpf
DOCKED: USER  
DOCKED: USER    Estimated Free Energy of Binding    =  -10.80 kcal/mol  [=(1)+(2)+(3)-(4)]
DOCKED: USER    Estimated Inhibition Constant, Ki   =   12.17 nM (nanomolar)  [Temperature = 298.15 K]
DOCKED: USER    
DOCKED: USER    (1) Final Intermolecular Energy     =  -12.89 kcal/mol
DOCKED: USER        vdW + Hbond + desolv Energy     =  -12.89 kcal/mol
DOCKED: USER        Electrostatic Energy            =   +0.00 kcal/mol
DOCKED: USER    (2) Final Total Internal Energy     =   -1.29 kcal/mol
DOCKED: USER    (3) Torsional Free Energy           =   +2.09 kcal/mol
DOCKED: USER    (4) Unbound System's Energy  [=(2)] =   -1.29 kcal/mol
DOCKED: USER    
DOCKED: USER    
DOCKED: USER    NEWDPF move ligand.pdbqt
DOCKED: USER    NEWDPF about 0.154000 0.112000 -0.159000
DOCKED: USER    NEWDPF tran0 27.210553 -15.998072 -1.854562
DOCKED: USER    NEWDPF quaternion0 -0.387163 0.127047 -0.862822 -0.299168
DOCKED: USER    NEWDPF axisangle0 -0.405746 0.133145 -0.904236 -145.184749
DOCKED: USER    NEWDPF quat0 -0.405746 0.133145 -0.904236 -145.184749
DOCKED: USER    NEWDPF dihe0 -3.14 -168.40 112.25 -166.99 -113.52 -175.67 35.44 
DOCKED: USER  keepresnum = 1 
DOCKED: USER  
DOCKED: REMARK  Name = 
DOCKED: REMARK  7 active torsions:
DOCKED: REMARK  status: ('A' for Active; 'I' for Inactive)
DOCKED: REMARK    1  A    between atoms: C_2  and  C_5
DOCKED: REMARK    2  A    between atoms: N_3  and  O_4
DOCKED: REMARK    3  A    between atoms: C_5  and  C_6
DOCKED: REMARK    4  A    between atoms: C_6  and  C_7
DOCKED: REMARK    5  A    between atoms: C_7  and  C_8
DOCKED: REMARK    6  A    between atoms: C_8  and  C_9
DOCKED: REMARK    7  A    between atoms: C_9  and  N_10
DOCKED: REMARK                            x       y       z     vdW  Elec       q    Type
DOCKED: REMARK                         _______ _______ _______ _____ _____    ______ ____
DOCKED: USER                              x       y       z     vdW  Elec       q    Type
DOCKED: USER                           _______ _______ _______ _____ _____    ______ ____
DOCKED: ROOT
DOCKED: ATOM      1  N   UNL     1      26.376 -14.953  -2.529 -0.35 -0.00    +0.000 N 
DOCKED: ATOM      2  C   UNL     1      26.552 -15.292  -3.919 -0.51 -0.00    +0.000 C 
DOCKED: ATOM      3  C   UNL     1      27.756 -14.832  -4.648 -0.34 -0.00    +0.000 A 
DOCKED: ATOM      4  C   UNL     1      27.949 -15.180  -5.997 -0.25 +0.00    +0.000 A 
DOCKED: ATOM      5  C   UNL     1      29.085 -14.748  -6.684 -0.32 -0.00    +0.000 A 
DOCKED: ATOM      6  C   UNL     1      30.043 -13.966  -6.039 -0.16 -0.00    +0.000 A 
DOCKED: ATOM      7  C   UNL     1      29.873 -13.606  -4.696 -0.08 -0.00    +0.000 A 
DOCKED: ATOM      8  C   UNL     1      30.835 -12.819  -4.048 -0.02 -0.00    +0.000 A 
DOCKED: ATOM      9  C   UNL     1      30.665 -12.460  -2.711 -0.01 -0.00    +0.000 A 
DOCKED: ATOM     10  C   UNL     1      29.535 -12.881  -2.008 -0.03 -0.00    +0.000 A 
DOCKED: ATOM     11  C   UNL     1      28.556 -13.672  -2.635 -0.09 -0.00    +0.000 A 
DOCKED: ATOM     12  C   UNL     1      28.721 -14.040  -3.988 -0.14 -0.00    +0.000 A 
DOCKED: ATOM     13  O   UNL     1      25.679 -15.979  -4.518 -0.77 -0.00    +0.000 OA
DOCKED: ATOM     14  C   UNL     1      27.359 -14.118  -1.885 -0.22 -0.00    +0.000 C 
DOCKED: ATOM     15  O   UNL     1      27.203 -13.765  -0.685 -0.23 -0.00    +0.000 OA
DOCKED: ENDROOT
DOCKED: BRANCH   1  16
DOCKED: ATOM     16  C   UNL     1      25.224 -15.484  -1.780 -0.36 -0.00    +0.000 C 
DOCKED: BRANCH  16  17
DOCKED: ATOM     17  C   UNL     1      25.666 -16.502  -0.713 -0.52 -0.00    +0.000 C 
DOCKED: BRANCH  17  18
DOCKED: ATOM     18  C   UNL     1      25.227 -17.950  -1.001 -0.68 -0.00    +0.000 C 
DOCKED: BRANCH  18  19
DOCKED: ATOM     19  C   UNL     1      23.765 -18.101  -1.471 -0.76 -0.00    +0.000 C 
DOCKED: BRANCH  19  20
DOCKED: ATOM     20  C   UNL     1      22.788 -18.562  -0.377 -0.83 -0.00    +0.000 C 
DOCKED: BRANCH  20  22
DOCKED: ATOM     21  O   UNL     1      20.660 -17.525  -0.706 -2.11 +0.00    +0.000 OA
DOCKED: ATOM     22  C   UNL     1      21.365 -18.559  -0.855 -0.83 -0.00    +0.000 C 
DOCKED: ATOM     23  N   UNL     1      20.797 -19.732  -1.443 -0.79 -0.00    +0.000 N 
DOCKED: ATOM     24  H   UNL     1      21.348 -20.540  -1.551 -0.27 -0.00    +0.000 HD
DOCKED: BRANCH  23  25
DOCKED: ATOM     25  O   UNL     1      19.506 -19.738  -1.855 -1.66 -0.00    +0.000 OA
DOCKED: ATOM     26  H   UNL     1      19.092 -18.889  -1.636 -0.56 -0.00    +0.000 HD
DOCKED: ENDBRANCH  23  25
DOCKED: ENDBRANCH  20  22
DOCKED: ENDBRANCH  19  20
DOCKED: ENDBRANCH  18  19
DOCKED: ENDBRANCH  17  18
DOCKED: ENDBRANCH  16  17
DOCKED: ENDBRANCH   1  16
DOCKED: TORSDOF 7
DOCKED: TER
DOCKED: ENDMDL
________________________________________________________________________________


	BEGINNING GENETIC ALGORITHM DOCKING 31 of 100
Run: 31 Seed: 53160624 1346091309 [ Run 31 of 100 GA/GALS ]
Beginning LAMARCKIAN GENETIC ALGORITHM (LGA), with a maximum of 2500000 energy evaluations.

Final-Value: -13.954


	FINAL GENETIC ALGORITHM DOCKED STATE
	_______________________________________________


Detailed state:  trans 27.132 -17.670 -1.925 quatxyzw 0.420736 -0.519916 0.741220 0.057108 center 0.154 0.112 -0.159 ntor 7 2.6889 21.4292 170.4313 120.7552 161.4285 -164.0920 17.8088
State:	 27.132 -17.670  -1.925   0.421 -0.521  0.742 173.452      2.69   21.43  170.43  120.76  161.43 -164.09   17.81

DOCKED: MODEL       31
DOCKED: USER    Run = 31
DOCKED: USER    DPF = ligand_dock.biased.dpf
DOCKED: USER  
DOCKED: USER    Estimated Free Energy of Binding    =  -10.67 kcal/mol  [=(1)+(2)+(3)-(4)]
DOCKED: USER    Estimated Inhibition Constant, Ki   =   15.16 nM (nanomolar)  [Temperature = 298.15 K]
DOCKED: USER    
DOCKED: USER    (1) Final Intermolecular Energy     =  -12.76 kcal/mol
DOCKED: USER        vdW + Hbond + desolv Energy     =  -12.76 kcal/mol
DOCKED: USER        Electrostatic Energy            =   +0.00 kcal/mol
DOCKED: USER    (2) Final Total Internal Energy     =   -1.20 kcal/mol
DOCKED: USER    (3) Torsional Free Energy           =   +2.09 kcal/mol
DOCKED: USER    (4) Unbound System's Energy  [=(2)] =   -1.20 kcal/mol
DOCKED: USER    
DOCKED: USER    
DOCKED: USER    NEWDPF move ligand.pdbqt
DOCKED: USER    NEWDPF about 0.154000 0.112000 -0.159000
DOCKED: USER    NEWDPF tran0 27.132256 -17.670379 -1.924589
DOCKED: USER    NEWDPF quaternion0 0.420736 -0.519916 0.741220 0.057108
DOCKED: USER    NEWDPF axisangle0 0.421424 -0.520766 0.742432 173.452299
DOCKED: USER    NEWDPF quat0 0.421424 -0.520766 0.742432 173.452299
DOCKED: USER    NEWDPF dihe0 2.69 21.43 170.43 120.76 161.43 -164.09 17.81 
DOCKED: USER  keepresnum = 1 
DOCKED: USER  
DOCKED: REMARK  Name = 
DOCKED: REMARK  7 active torsions:
DOCKED: REMARK  status: ('A' for Active; 'I' for Inactive)
DOCKED: REMARK    1  A    between atoms: C_2  and  C_5
DOCKED: REMARK    2  A    between atoms: N_3  and  O_4
DOCKED: REMARK    3  A    between atoms: C_5  and  C_6
DOCKED: REMARK    4  A    between atoms: C_6  and  C_7
DOCKED: REMARK    5  A    between atoms: C_7  and  C_8
DOCKED: REMARK    6  A    between atoms: C_8  and  C_9
DOCKED: REMARK    7  A    between atoms: C_9  and  N_10
DOCKED: REMARK                            x       y       z     vdW  Elec       q    Type
DOCKED: REMARK                         _______ _______ _______ _____ _____    ______ ____
DOCKED: USER                              x       y       z     vdW  Elec       q    Type
DOCKED: USER                           _______ _______ _______ _____ _____    ______ ____
DOCKED: ROOT
DOCKED: ATOM      1  N   UNL     1      27.104 -16.195  -1.667 -0.34 -0.00    +0.000 N 
DOCKED: ATOM      2  C   UNL     1      26.666 -15.685  -2.943 -0.43 -0.00    +0.000 C 
DOCKED: ATOM      3  C   UNL     1      27.642 -15.496  -4.040 -0.32 -0.00    +0.000 A 
DOCKED: ATOM      4  C   UNL     1      27.221 -15.024  -5.296 -0.38 -0.00    +0.000 A 
DOCKED: ATOM      5  C   UNL     1      28.140 -14.849  -6.332 -0.31 -0.00    +0.000 A 
DOCKED: ATOM      6  C   UNL     1      29.489 -15.140  -6.133 -0.31 -0.00    +0.000 A 
DOCKED: ATOM      7  C   UNL     1      29.934 -15.611  -4.890 -0.20 -0.00    +0.000 A 
DOCKED: ATOM      8  C   UNL     1      31.290 -15.902  -4.689 -0.09 -0.00    +0.000 A 
DOCKED: ATOM      9  C   UNL     1      31.732 -16.371  -3.452 -0.06 -0.00    +0.000 A 
DOCKED: ATOM     10  C   UNL     1      30.828 -16.552  -2.404 -0.10 -0.00    +0.000 A 
DOCKED: ATOM     11  C   UNL     1      29.463 -16.267  -2.580 -0.18 -0.00    +0.000 A 
DOCKED: ATOM     12  C   UNL     1      29.006 -15.793  -3.830 -0.23 -0.00    +0.000 A 
DOCKED: ATOM     13  O   UNL     1      25.451 -15.396  -3.125 -0.59 -0.00    +0.000 OA
DOCKED: ATOM     14  C   UNL     1      28.506 -16.462  -1.467 -0.31 -0.00    +0.000 C 
DOCKED: ATOM     15  O   UNL     1      28.922 -16.860  -0.345 -0.31 -0.00    +0.000 OA
DOCKED: ENDROOT
DOCKED: BRANCH   1  16
DOCKED: ATOM     16  C   UNL     1      26.120 -16.467  -0.604 -0.49 -0.00    +0.000 C 
DOCKED: BRANCH  16  17
DOCKED: ATOM     17  C   UNL     1      25.662 -17.936  -0.623 -0.67 -0.00    +0.000 C 
DOCKED: BRANCH  17  18
DOCKED: ATOM     18  C   UNL     1      24.297 -18.164  -1.298 -0.74 -0.00    +0.000 C 
DOCKED: BRANCH  18  19
DOCKED: ATOM     19  C   UNL     1      23.294 -18.992  -0.468 -0.74 -0.00    +0.000 C 
DOCKED: BRANCH  19  20
DOCKED: ATOM     20  C   UNL     1      21.998 -19.356  -1.211 -0.70 -0.00    +0.000 C 
DOCKED: BRANCH  20  22
DOCKED: ATOM     21  O   UNL     1      20.168 -17.899  -0.721 -2.12 -0.00    +0.000 OA
DOCKED: ATOM     22  C   UNL     1      20.775 -18.966  -0.433 -0.84 -0.00    +0.000 C 
DOCKED: ATOM     23  N   UNL     1      20.316 -19.778   0.650 -0.70 -0.00    +0.000 N 
DOCKED: ATOM     24  H   UNL     1      20.796 -20.607   0.877 -0.46 -0.00    +0.000 HD
DOCKED: BRANCH  23  25
DOCKED: ATOM     25  O   UNL     1      19.224 -19.417   1.366 -0.71 -0.00    +0.000 OA
DOCKED: ATOM     26  H   UNL     1      18.845 -18.607   0.992 -0.42 -0.00    +0.000 HD
DOCKED: ENDBRANCH  23  25
DOCKED: ENDBRANCH  20  22
DOCKED: ENDBRANCH  19  20
DOCKED: ENDBRANCH  18  19
DOCKED: ENDBRANCH  17  18
DOCKED: ENDBRANCH  16  17
DOCKED: ENDBRANCH   1  16
DOCKED: TORSDOF 7
DOCKED: TER
DOCKED: ENDMDL
________________________________________________________________________________


	BEGINNING GENETIC ALGORITHM DOCKING 32 of 100
Run: 32 Seed: 1529068724 1087873357 [ Run 32 of 100 GA/GALS ]
Beginning LAMARCKIAN GENETIC ALGORITHM (LGA), with a maximum of 2500000 energy evaluations.

Final-Value: -13.613


	FINAL GENETIC ALGORITHM DOCKED STATE
	_______________________________________________


Detailed state:  trans 28.250 -17.142 -2.947 quatxyzw -0.400429 0.364993 -0.761386 -0.355990 center 0.154 0.112 -0.159 ntor 7 -6.8005 -142.9618 34.6384 81.7893 -72.1049 95.3913 171.3714
State:	 28.250 -17.142  -2.947  -0.429  0.391 -0.815 -138.292     -6.80 -142.96   34.64   81.79  -72.10   95.39  171.37

DOCKED: MODEL       32
DOCKED: USER    Run = 32
DOCKED: USER    DPF = ligand_dock.biased.dpf
DOCKED: USER  
DOCKED: USER    Estimated Free Energy of Binding    =  -10.33 kcal/mol  [=(1)+(2)+(3)-(4)]
DOCKED: USER    Estimated Inhibition Constant, Ki   =   26.82 nM (nanomolar)  [Temperature = 298.15 K]
DOCKED: USER    
DOCKED: USER    (1) Final Intermolecular Energy     =  -12.42 kcal/mol
DOCKED: USER        vdW + Hbond + desolv Energy     =  -12.42 kcal/mol
DOCKED: USER        Electrostatic Energy            =   +0.00 kcal/mol
DOCKED: USER    (2) Final Total Internal Energy     =   -1.20 kcal/mol
DOCKED: USER    (3) Torsional Free Energy           =   +2.09 kcal/mol
DOCKED: USER    (4) Unbound System's Energy  [=(2)] =   -1.20 kcal/mol
DOCKED: USER    
DOCKED: USER    
DOCKED: USER    NEWDPF move ligand.pdbqt
DOCKED: USER    NEWDPF about 0.154000 0.112000 -0.159000
DOCKED: USER    NEWDPF tran0 28.250468 -17.142399 -2.946826
DOCKED: USER    NEWDPF quaternion0 -0.400429 0.364993 -0.761386 -0.355990
DOCKED: USER    NEWDPF axisangle0 -0.428500 0.390580 -0.814761 -138.291747
DOCKED: USER    NEWDPF quat0 -0.428500 0.390580 -0.814761 -138.291747
DOCKED: USER    NEWDPF dihe0 -6.80 -142.96 34.64 81.79 -72.10 95.39 171.37 
DOCKED: USER  keepresnum = 1 
DOCKED: USER  
DOCKED: REMARK  Name = 
DOCKED: REMARK  7 active torsions:
DOCKED: REMARK  status: ('A' for Active; 'I' for Inactive)
DOCKED: REMARK    1  A    between atoms: C_2  and  C_5
DOCKED: REMARK    2  A    between atoms: N_3  and  O_4
DOCKED: REMARK    3  A    between atoms: C_5  and  C_6
DOCKED: REMARK    4  A    between atoms: C_6  and  C_7
DOCKED: REMARK    5  A    between atoms: C_7  and  C_8
DOCKED: REMARK    6  A    between atoms: C_8  and  C_9
DOCKED: REMARK    7  A    between atoms: C_9  and  N_10
DOCKED: REMARK                            x       y       z     vdW  Elec       q    Type
DOCKED: REMARK                         _______ _______ _______ _____ _____    ______ ____
DOCKED: USER                              x       y       z     vdW  Elec       q    Type
DOCKED: USER                           _______ _______ _______ _____ _____    ______ ____
DOCKED: ROOT
DOCKED: ATOM      1  N   UNL     1      27.371 -15.932  -2.866 -0.32 -0.00    +0.000 N 
DOCKED: ATOM      2  C   UNL     1      27.217 -15.591  -4.257 -0.39 -0.00    +0.000 C 
DOCKED: ATOM      3  C   UNL     1      28.266 -14.808  -4.950 -0.31 -0.00    +0.000 A 
DOCKED: ATOM      4  C   UNL     1      28.136 -14.492  -6.314 -0.29 -0.00    +0.000 A 
DOCKED: ATOM      5  C   UNL     1      29.126 -13.757  -6.968 -0.28 -0.00    +0.000 A 
DOCKED: ATOM      6  C   UNL     1      30.257 -13.327  -6.275 -0.12 -0.00    +0.000 A 
DOCKED: ATOM      7  C   UNL     1      30.409 -13.628  -4.915 -0.06 -0.00    +0.000 A 
DOCKED: ATOM      8  C   UNL     1      31.545 -13.194  -4.218 -0.02 -0.00    +0.000 A 
DOCKED: ATOM      9  C   UNL     1      31.695 -13.494  -2.864 -0.00 -0.00    +0.000 A 
DOCKED: ATOM     10  C   UNL     1      30.715 -14.228  -2.193 -0.03 -0.00    +0.000 A 
DOCKED: ATOM     11  C   UNL     1      29.567 -14.674  -2.869 -0.09 -0.00    +0.000 A 
DOCKED: ATOM     12  C   UNL     1      29.408 -14.376  -4.241 -0.12 -0.00    +0.000 A 
DOCKED: ATOM     13  O   UNL     1      26.186 -15.955  -4.887 -0.97 +0.00    +0.000 OA
DOCKED: ATOM     14  C   UNL     1      28.530 -15.454  -2.155 -0.21 -0.00    +0.000 C 
DOCKED: ATOM     15  O   UNL     1      28.664 -15.695  -0.924 -0.22 -0.00    +0.000 OA
DOCKED: ENDROOT
DOCKED: BRANCH   1  16
DOCKED: ATOM     16  C   UNL     1      26.372 -16.786  -2.200 -0.41 -0.00    +0.000 C 
DOCKED: BRANCH  16  17
DOCKED: ATOM     17  C   UNL     1      25.583 -16.004  -1.133 -0.52 -0.00    +0.000 C 
DOCKED: BRANCH  17  18
DOCKED: ATOM     18  C   UNL     1      24.229 -16.636  -0.761 -0.52 -0.00    +0.000 C 
DOCKED: BRANCH  18  19
DOCKED: ATOM     19  C   UNL     1      23.859 -17.897  -1.570 -0.71 -0.00    +0.000 C 
DOCKED: BRANCH  19  20
DOCKED: ATOM     20  C   UNL     1      23.027 -18.931  -0.793 -0.82 -0.00    +0.000 C 
DOCKED: BRANCH  20  22
DOCKED: ATOM     21  O   UNL     1      20.954 -17.746  -0.705 -2.15 -0.00    +0.000 OA
DOCKED: ATOM     22  C   UNL     1      21.558 -18.792  -1.066 -0.82 -0.00    +0.000 C 
DOCKED: ATOM     23  N   UNL     1      20.836 -19.850  -1.700 -0.63 -0.00    +0.000 N 
DOCKED: ATOM     24  H   UNL     1      21.309 -20.669  -1.973 -0.25 -0.00    +0.000 HD
DOCKED: BRANCH  23  25
DOCKED: ATOM     25  O   UNL     1      19.505 -19.736  -1.928 -1.63 -0.00    +0.000 OA
DOCKED: ATOM     26  H   UNL     1      19.173 -18.927  -1.508 -0.53 -0.00    +0.000 HD
DOCKED: ENDBRANCH  23  25
DOCKED: ENDBRANCH  20  22
DOCKED: ENDBRANCH  19  20
DOCKED: ENDBRANCH  18  19
DOCKED: ENDBRANCH  17  18
DOCKED: ENDBRANCH  16  17
DOCKED: ENDBRANCH   1  16
DOCKED: TORSDOF 7
DOCKED: TER
DOCKED: ENDMDL
________________________________________________________________________________


	BEGINNING GENETIC ALGORITHM DOCKING 33 of 100
Run: 33 Seed: 218569124 986315891 [ Run 33 of 100 GA/GALS ]
Beginning LAMARCKIAN GENETIC ALGORITHM (LGA), with a maximum of 2500000 energy evaluations.

Final-Value: -14.401


	FINAL GENETIC ALGORITHM DOCKED STATE
	_______________________________________________


Detailed state:  trans 26.662 -17.304 -2.060 quatxyzw -0.358804 0.614758 -0.697997 0.078305 center 0.154 0.112 -0.159 ntor 7 4.1853 -111.8109 124.5240 168.2553 -145.7308 -132.6837 55.1474
State:	 26.662 -17.304  -2.060  -0.360  0.617 -0.700 171.018      4.19 -111.81  124.52  168.26 -145.73 -132.68   55.15

DOCKED: MODEL       33
DOCKED: USER    Run = 33
DOCKED: USER    DPF = ligand_dock.biased.dpf
DOCKED: USER  
DOCKED: USER    Estimated Free Energy of Binding    =  -11.08 kcal/mol  [=(1)+(2)+(3)-(4)]
DOCKED: USER    Estimated Inhibition Constant, Ki   =    7.60 nM (nanomolar)  [Temperature = 298.15 K]
DOCKED: USER    
DOCKED: USER    (1) Final Intermolecular Energy     =  -13.16 kcal/mol
DOCKED: USER        vdW + Hbond + desolv Energy     =  -13.16 kcal/mol
DOCKED: USER        Electrostatic Energy            =   +0.00 kcal/mol
DOCKED: USER    (2) Final Total Internal Energy     =   -1.24 kcal/mol
DOCKED: USER    (3) Torsional Free Energy           =   +2.09 kcal/mol
DOCKED: USER    (4) Unbound System's Energy  [=(2)] =   -1.24 kcal/mol
DOCKED: USER    
DOCKED: USER    
DOCKED: USER    NEWDPF move ligand.pdbqt
DOCKED: USER    NEWDPF about 0.154000 0.112000 -0.159000
DOCKED: USER    NEWDPF tran0 26.661569 -17.303693 -2.060366
DOCKED: USER    NEWDPF quaternion0 -0.358804 0.614758 -0.697997 0.078305
DOCKED: USER    NEWDPF axisangle0 -0.359909 0.616652 -0.700147 171.017734
DOCKED: USER    NEWDPF quat0 -0.359909 0.616652 -0.700147 171.017734
DOCKED: USER    NEWDPF dihe0 4.19 -111.81 124.52 168.26 -145.73 -132.68 55.15 
DOCKED: USER  keepresnum = 1 
DOCKED: USER  
DOCKED: REMARK  Name = 
DOCKED: REMARK  7 active torsions:
DOCKED: REMARK  status: ('A' for Active; 'I' for Inactive)
DOCKED: REMARK    1  A    between atoms: C_2  and  C_5
DOCKED: REMARK    2  A    between atoms: N_3  and  O_4
DOCKED: REMARK    3  A    between atoms: C_5  and  C_6
DOCKED: REMARK    4  A    between atoms: C_6  and  C_7
DOCKED: REMARK    5  A    between atoms: C_7  and  C_8
DOCKED: REMARK    6  A    between atoms: C_8  and  C_9
DOCKED: REMARK    7  A    between atoms: C_9  and  N_10
DOCKED: REMARK                            x       y       z     vdW  Elec       q    Type
DOCKED: REMARK                         _______ _______ _______ _____ _____    ______ ____
DOCKED: USER                              x       y       z     vdW  Elec       q    Type
DOCKED: USER                           _______ _______ _______ _____ _____    ______ ____
DOCKED: ROOT
DOCKED: ATOM      1  N   UNL     1      27.155 -15.932  -1.712 -0.31 -0.00    +0.000 N 
DOCKED: ATOM      2  C   UNL     1      26.813 -15.190  -2.899 -0.39 -0.00    +0.000 C 
DOCKED: ATOM      3  C   UNL     1      27.703 -15.232  -4.082 -0.33 -0.00    +0.000 A 
DOCKED: ATOM      4  C   UNL     1      27.366 -14.532  -5.254 -0.37 -0.00    +0.000 A 
DOCKED: ATOM      5  C   UNL     1      28.203 -14.574  -6.370 -0.28 -0.00    +0.000 A 
DOCKED: ATOM      6  C   UNL     1      29.385 -15.312  -6.336 -0.33 -0.00    +0.000 A 
DOCKED: ATOM      7  C   UNL     1      29.744 -16.018  -5.180 -0.26 -0.00    +0.000 A 
DOCKED: ATOM      8  C   UNL     1      30.933 -16.759  -5.145 -0.18 -0.00    +0.000 A 
DOCKED: ATOM      9  C   UNL     1      31.290 -17.461  -3.993 -0.14 -0.00    +0.000 A 
DOCKED: ATOM     10  C   UNL     1      30.466 -17.430  -2.867 -0.17 -0.00    +0.000 A 
DOCKED: ATOM     11  C   UNL     1      29.268 -16.695  -2.877 -0.22 -0.00    +0.000 A 
DOCKED: ATOM     12  C   UNL     1      28.899 -15.982  -4.039 -0.25 -0.00    +0.000 A 
DOCKED: ATOM     13  O   UNL     1      25.757 -14.500  -2.931 -0.46 -0.00    +0.000 OA
DOCKED: ATOM     14  C   UNL     1      28.395 -16.666  -1.681 -0.32 -0.00    +0.000 C 
DOCKED: ATOM     15  O   UNL     1      28.742 -17.282  -0.637 -0.36 -0.00    +0.000 OA
DOCKED: ENDROOT
DOCKED: BRANCH   1  16
DOCKED: ATOM     16  C   UNL     1      26.227 -15.963  -0.567 -0.42 -0.00    +0.000 C 
DOCKED: BRANCH  16  17
DOCKED: ATOM     17  C   UNL     1      25.995 -17.400  -0.067 -0.51 -0.00    +0.000 C 
DOCKED: BRANCH  17  18
DOCKED: ATOM     18  C   UNL     1      25.200 -18.287  -1.043 -0.60 -0.00    +0.000 C 
DOCKED: BRANCH  18  19
DOCKED: ATOM     19  C   UNL     1      23.680 -18.020  -1.068 -0.79 -0.00    +0.000 C 
DOCKED: BRANCH  19  20
DOCKED: ATOM     20  C   UNL     1      22.811 -19.263  -0.819 -0.77 -0.00    +0.000 C 
DOCKED: BRANCH  20  22
DOCKED: ATOM     21  O   UNL     1      20.892 -17.843  -0.706 -2.22 -0.00    +0.000 OA
DOCKED: ATOM     22  C   UNL     1      21.349 -18.977  -1.011 -0.86 -0.00    +0.000 C 
DOCKED: ATOM     23  N   UNL     1      20.471 -19.992  -1.504 -0.73 -0.00    +0.000 N 
DOCKED: ATOM     24  H   UNL     1      20.831 -20.879  -1.734 -0.28 -0.00    +0.000 HD
DOCKED: BRANCH  23  25
DOCKED: ATOM     25  O   UNL     1      19.149 -19.742  -1.658 -1.03 -0.00    +0.000 OA
DOCKED: ATOM     26  H   UNL     1      18.969 -18.812  -1.453 -0.59 -0.00    +0.000 HD
DOCKED: ENDBRANCH  23  25
DOCKED: ENDBRANCH  20  22
DOCKED: ENDBRANCH  19  20
DOCKED: ENDBRANCH  18  19
DOCKED: ENDBRANCH  17  18
DOCKED: ENDBRANCH  16  17
DOCKED: ENDBRANCH   1  16
DOCKED: TORSDOF 7
DOCKED: TER
DOCKED: ENDMDL
________________________________________________________________________________


	BEGINNING GENETIC ALGORITHM DOCKING 34 of 100
Run: 34 Seed: 2100181536 970329190 [ Run 34 of 100 GA/GALS ]
Beginning LAMARCKIAN GENETIC ALGORITHM (LGA), with a maximum of 2500000 energy evaluations.

Final-Value: -13.904


	FINAL GENETIC ALGORITHM DOCKED STATE
	_______________________________________________


Detailed state:  trans 26.237 -16.968 -1.989 quatxyzw -0.492729 0.743924 -0.424389 0.153914 center 0.154 0.112 -0.159 ntor 7 4.2406 88.0908 177.4948 -179.0055 6.3818 -176.6307 61.7479
State:	 26.237 -16.968  -1.989  -0.499  0.753 -0.430 162.292      4.24   88.09  177.49 -179.01    6.38 -176.63   61.75

DOCKED: MODEL       34
DOCKED: USER    Run = 34
DOCKED: USER    DPF = ligand_dock.biased.dpf
DOCKED: USER  
DOCKED: USER    Estimated Free Energy of Binding    =  -10.43 kcal/mol  [=(1)+(2)+(3)-(4)]
DOCKED: USER    Estimated Inhibition Constant, Ki   =   22.63 nM (nanomolar)  [Temperature = 298.15 K]
DOCKED: USER    
DOCKED: USER    (1) Final Intermolecular Energy     =  -12.52 kcal/mol
DOCKED: USER        vdW + Hbond + desolv Energy     =  -12.52 kcal/mol
DOCKED: USER        Electrostatic Energy            =   +0.00 kcal/mol
DOCKED: USER    (2) Final Total Internal Energy     =   -1.39 kcal/mol
DOCKED: USER    (3) Torsional Free Energy           =   +2.09 kcal/mol
DOCKED: USER    (4) Unbound System's Energy  [=(2)] =   -1.39 kcal/mol
DOCKED: USER    
DOCKED: USER    
DOCKED: USER    NEWDPF move ligand.pdbqt
DOCKED: USER    NEWDPF about 0.154000 0.112000 -0.159000
DOCKED: USER    NEWDPF tran0 26.237369 -16.968374 -1.988947
DOCKED: USER    NEWDPF quaternion0 -0.492729 0.743924 -0.424389 0.153914
DOCKED: USER    NEWDPF axisangle0 -0.498671 0.752896 -0.429507 162.292354
DOCKED: USER    NEWDPF quat0 -0.498671 0.752896 -0.429507 162.292354
DOCKED: USER    NEWDPF dihe0 4.24 88.09 177.49 -179.01 6.38 -176.63 61.75 
DOCKED: USER  keepresnum = 1 
DOCKED: USER  
DOCKED: REMARK  Name = 
DOCKED: REMARK  7 active torsions:
DOCKED: REMARK  status: ('A' for Active; 'I' for Inactive)
DOCKED: REMARK    1  A    between atoms: C_2  and  C_5
DOCKED: REMARK    2  A    between atoms: N_3  and  O_4
DOCKED: REMARK    3  A    between atoms: C_5  and  C_6
DOCKED: REMARK    4  A    between atoms: C_6  and  C_7
DOCKED: REMARK    5  A    between atoms: C_7  and  C_8
DOCKED: REMARK    6  A    between atoms: C_8  and  C_9
DOCKED: REMARK    7  A    between atoms: C_9  and  N_10
DOCKED: REMARK                            x       y       z     vdW  Elec       q    Type
DOCKED: REMARK                         _______ _______ _______ _____ _____    ______ ____
DOCKED: USER                              x       y       z     vdW  Elec       q    Type
DOCKED: USER                           _______ _______ _______ _____ _____    ______ ____
DOCKED: ROOT
DOCKED: ATOM      1  N   UNL     1      27.071 -15.907  -1.338 -0.32 -0.00    +0.000 N 
DOCKED: ATOM      2  C   UNL     1      26.413 -14.705  -1.784 -0.35 -0.00    +0.000 C 
DOCKED: ATOM      3  C   UNL     1      26.713 -14.149  -3.123 -0.30 -0.00    +0.000 A 
DOCKED: ATOM      4  C   UNL     1      26.058 -12.991  -3.578 -0.15 -0.00    +0.000 A 
DOCKED: ATOM      5  C   UNL     1      26.339 -12.468  -4.842 -0.26 -0.00    +0.000 A 
DOCKED: ATOM      6  C   UNL     1      27.274 -13.089  -5.669 -0.12 -0.00    +0.000 A 
DOCKED: ATOM      7  C   UNL     1      27.941 -14.243  -5.237 -0.31 -0.00    +0.000 A 
DOCKED: ATOM      8  C   UNL     1      28.883 -14.866  -6.068 -0.34 -0.00    +0.000 A 
DOCKED: ATOM      9  C   UNL     1      29.547 -16.015  -5.638 -0.30 -0.00    +0.000 A 
DOCKED: ATOM     10  C   UNL     1      29.280 -16.553  -4.378 -0.22 -0.00    +0.000 A 
DOCKED: ATOM     11  C   UNL     1      28.340 -15.947  -3.527 -0.24 -0.00    +0.000 A 
DOCKED: ATOM     12  C   UNL     1      27.662 -14.783  -3.954 -0.29 -0.00    +0.000 A 
DOCKED: ATOM     13  O   UNL     1      25.583 -14.123  -1.034 -0.27 -0.00    +0.000 OA
DOCKED: ATOM     14  C   UNL     1      28.058 -16.520  -2.191 -0.32 -0.00    +0.000 C 
DOCKED: ATOM     15  O   UNL     1      28.685 -17.543  -1.803 -0.28 -0.00    +0.000 OA
DOCKED: ENDROOT
DOCKED: BRANCH   1  16
DOCKED: ATOM     16  C   UNL     1      26.708 -16.511  -0.043 -0.39 -0.00    +0.000 C 
DOCKED: BRANCH  16  17
DOCKED: ATOM     17  C   UNL     1      26.604 -18.043  -0.145 -0.59 -0.00    +0.000 C 
DOCKED: BRANCH  17  18
DOCKED: ATOM     18  C   UNL     1      25.177 -18.593   0.040 -0.46 -0.00    +0.000 C 
DOCKED: BRANCH  18  19
DOCKED: ATOM     19  C   UNL     1      24.245 -18.392  -1.173 -0.74 -0.00    +0.000 C 
DOCKED: BRANCH  19  20
DOCKED: ATOM     20  C   UNL     1      23.080 -17.420  -0.927 -0.73 -0.00    +0.000 C 
DOCKED: BRANCH  20  22
DOCKED: ATOM     21  O   UNL     1      20.701 -17.506  -0.707 -2.10 +0.00    +0.000 OA
DOCKED: ATOM     22  C   UNL     1      21.745 -18.078  -1.123 -0.54 -0.00    +0.000 C 
DOCKED: ATOM     23  N   UNL     1      21.655 -19.362  -1.745 -0.62 -0.00    +0.000 N 
DOCKED: ATOM     24  H   UNL     1      22.473 -19.810  -2.061 -0.45 -0.00    +0.000 HD
DOCKED: BRANCH  23  25
DOCKED: ATOM     25  O   UNL     1      20.454 -19.968  -1.903 -1.69 -0.00    +0.000 OA
DOCKED: ATOM     26  H   UNL     1      19.749 -19.373  -1.604 -0.15 -0.00    +0.000 HD
DOCKED: ENDBRANCH  23  25
DOCKED: ENDBRANCH  20  22
DOCKED: ENDBRANCH  19  20
DOCKED: ENDBRANCH  18  19
DOCKED: ENDBRANCH  17  18
DOCKED: ENDBRANCH  16  17
DOCKED: ENDBRANCH   1  16
DOCKED: TORSDOF 7
DOCKED: TER
DOCKED: ENDMDL
________________________________________________________________________________


	BEGINNING GENETIC ALGORITHM DOCKING 35 of 100
Run: 35 Seed: 1441224122 1513603513 [ Run 35 of 100 GA/GALS ]
Beginning LAMARCKIAN GENETIC ALGORITHM (LGA), with a maximum of 2500000 energy evaluations.

Final-Value: -14.817


	FINAL GENETIC ALGORITHM DOCKED STATE
	_______________________________________________


Detailed state:  trans 26.323 -17.526 -3.149 quatxyzw 0.274837 -0.614085 0.736670 0.068428 center 0.154 0.112 -0.159 ntor 7 -1.4244 -175.3490 -104.6685 139.2915 -145.8488 142.2614 49.2323
State:	 26.323 -17.526  -3.149   0.275 -0.616  0.738 172.153     -1.42 -175.35 -104.67  139.29 -145.85  142.26   49.23

DOCKED: MODEL       35
DOCKED: USER    Run = 35
DOCKED: USER    DPF = ligand_dock.biased.dpf
DOCKED: USER  
DOCKED: USER    Estimated Free Energy of Binding    =  -11.54 kcal/mol  [=(1)+(2)+(3)-(4)]
DOCKED: USER    Estimated Inhibition Constant, Ki   =    3.48 nM (nanomolar)  [Temperature = 298.15 K]
DOCKED: USER    
DOCKED: USER    (1) Final Intermolecular Energy     =  -13.63 kcal/mol
DOCKED: USER        vdW + Hbond + desolv Energy     =  -13.63 kcal/mol
DOCKED: USER        Electrostatic Energy            =   +0.00 kcal/mol
DOCKED: USER    (2) Final Total Internal Energy     =   -1.19 kcal/mol
DOCKED: USER    (3) Torsional Free Energy           =   +2.09 kcal/mol
DOCKED: USER    (4) Unbound System's Energy  [=(2)] =   -1.19 kcal/mol
DOCKED: USER    
DOCKED: USER    
DOCKED: USER    NEWDPF move ligand.pdbqt
DOCKED: USER    NEWDPF about 0.154000 0.112000 -0.159000
DOCKED: USER    NEWDPF tran0 26.323051 -17.525761 -3.149093
DOCKED: USER    NEWDPF quaternion0 0.274837 -0.614085 0.736670 0.068428
DOCKED: USER    NEWDPF axisangle0 0.275483 -0.615527 0.738400 172.152550
DOCKED: USER    NEWDPF quat0 0.275483 -0.615527 0.738400 172.152550
DOCKED: USER    NEWDPF dihe0 -1.42 -175.35 -104.67 139.29 -145.85 142.26 49.23 
DOCKED: USER  keepresnum = 1 
DOCKED: USER  
DOCKED: REMARK  Name = 
DOCKED: REMARK  7 active torsions:
DOCKED: REMARK  status: ('A' for Active; 'I' for Inactive)
DOCKED: REMARK    1  A    between atoms: C_2  and  C_5
DOCKED: REMARK    2  A    between atoms: N_3  and  O_4
DOCKED: REMARK    3  A    between atoms: C_5  and  C_6
DOCKED: REMARK    4  A    between atoms: C_6  and  C_7
DOCKED: REMARK    5  A    between atoms: C_7  and  C_8
DOCKED: REMARK    6  A    between atoms: C_8  and  C_9
DOCKED: REMARK    7  A    between atoms: C_9  and  N_10
DOCKED: REMARK                            x       y       z     vdW  Elec       q    Type
DOCKED: REMARK                         _______ _______ _______ _____ _____    ______ ____
DOCKED: USER                              x       y       z     vdW  Elec       q    Type
DOCKED: USER                           _______ _______ _______ _____ _____    ______ ____
DOCKED: ROOT
DOCKED: ATOM      1  N   UNL     1      26.521 -16.136  -2.625 -0.40 -0.00    +0.000 N 
DOCKED: ATOM      2  C   UNL     1      26.492 -15.361  -3.840 -0.51 -0.00    +0.000 C 
DOCKED: ATOM      3  C   UNL     1      27.711 -15.242  -4.673 -0.38 -0.00    +0.000 A 
DOCKED: ATOM      4  C   UNL     1      27.686 -14.509  -5.873 -0.24 -0.00    +0.000 A 
DOCKED: ATOM      5  C   UNL     1      28.834 -14.400  -6.660 -0.33 -0.00    +0.000 A 
DOCKED: ATOM      6  C   UNL     1      30.020 -15.018  -6.265 -0.26 -0.00    +0.000 A 
DOCKED: ATOM      7  C   UNL     1      30.070 -15.753  -5.073 -0.21 -0.00    +0.000 A 
DOCKED: ATOM      8  C   UNL     1      31.263 -16.373  -4.675 -0.11 -0.00    +0.000 A 
DOCKED: ATOM      9  C   UNL     1      31.312 -17.104  -3.488 -0.11 -0.00    +0.000 A 
DOCKED: ATOM     10  C   UNL     1      30.175 -17.224  -2.688 -0.17 -0.00    +0.000 A 
DOCKED: ATOM     11  C   UNL     1      28.967 -16.613  -3.065 -0.21 -0.00    +0.000 A 
DOCKED: ATOM     12  C   UNL     1      28.908 -15.871  -4.266 -0.26 -0.00    +0.000 A 
DOCKED: ATOM     13  O   UNL     1      25.430 -14.778  -4.194 -0.84 -0.00    +0.000 OA
DOCKED: ATOM     14  C   UNL     1      27.762 -16.743  -2.214 -0.31 -0.00    +0.000 C 
DOCKED: ATOM     15  O   UNL     1      27.826 -17.384  -1.130 -0.46 -0.00    +0.000 OA
DOCKED: ENDROOT
DOCKED: BRANCH   1  16
DOCKED: ATOM     16  C   UNL     1      25.287 -16.328  -1.843 -0.58 -0.00    +0.000 C 
DOCKED: BRANCH  16  17
DOCKED: ATOM     17  C   UNL     1      24.995 -17.820  -1.606 -0.60 -0.00    +0.000 C 
DOCKED: BRANCH  17  18
DOCKED: ATOM     18  C   UNL     1      23.506 -18.145  -1.386 -0.77 -0.00    +0.000 C 
DOCKED: BRANCH  18  19
DOCKED: ATOM     19  C   UNL     1      22.966 -17.791   0.016 -0.64 -0.00    +0.000 C 
DOCKED: BRANCH  19  20
DOCKED: ATOM     20  C   UNL     1      21.750 -18.620   0.458 -0.63 -0.00    +0.000 C 
DOCKED: BRANCH  20  22
DOCKED: ATOM     21  O   UNL     1      19.750 -18.033  -0.711 -1.74 -0.00    +0.000 OA
DOCKED: ATOM     22  C   UNL     1      20.753 -18.794  -0.651 -0.83 -0.00    +0.000 C 
DOCKED: ATOM     23  N   UNL     1      20.917 -19.837  -1.614 -0.62 -0.00    +0.000 N 
DOCKED: ATOM     24  H   UNL     1      21.697 -20.434  -1.559 -0.32 -0.00    +0.000 HD
DOCKED: BRANCH  23  25
DOCKED: ATOM     25  O   UNL     1      20.007 -20.009  -2.603 -1.62 -0.00    +0.000 OA
DOCKED: ATOM     26  H   UNL     1      19.294 -19.359  -2.504 -0.48 -0.00    +0.000 HD
DOCKED: ENDBRANCH  23  25
DOCKED: ENDBRANCH  20  22
DOCKED: ENDBRANCH  19  20
DOCKED: ENDBRANCH  18  19
DOCKED: ENDBRANCH  17  18
DOCKED: ENDBRANCH  16  17
DOCKED: ENDBRANCH   1  16
DOCKED: TORSDOF 7
DOCKED: TER
DOCKED: ENDMDL
________________________________________________________________________________


	BEGINNING GENETIC ALGORITHM DOCKING 36 of 100
Run: 36 Seed: 444264854 1544892758 [ Run 36 of 100 GA/GALS ]
Beginning LAMARCKIAN GENETIC ALGORITHM (LGA), with a maximum of 2500000 energy evaluations.

Final-Value: -13.978


	FINAL GENETIC ALGORITHM DOCKED STATE
	_______________________________________________


Detailed state:  trans 27.881 -15.865 -2.170 quatxyzw 0.323587 -0.238831 0.559123 0.725005 center 0.154 0.112 -0.159 ntor 7 1.4119 100.1256 71.8549 -165.9081 137.5508 -165.2041 -164.9763
State:	 27.881 -15.865  -2.170   0.470 -0.347  0.812 87.061      1.41  100.13   71.85 -165.91  137.55 -165.20 -164.98

DOCKED: MODEL       36
DOCKED: USER    Run = 36
DOCKED: USER    DPF = ligand_dock.biased.dpf
DOCKED: USER  
DOCKED: USER    Estimated Free Energy of Binding    =  -10.62 kcal/mol  [=(1)+(2)+(3)-(4)]
DOCKED: USER    Estimated Inhibition Constant, Ki   =   16.29 nM (nanomolar)  [Temperature = 298.15 K]
DOCKED: USER    
DOCKED: USER    (1) Final Intermolecular Energy     =  -12.71 kcal/mol
DOCKED: USER        vdW + Hbond + desolv Energy     =  -12.71 kcal/mol
DOCKED: USER        Electrostatic Energy            =   +0.00 kcal/mol
DOCKED: USER    (2) Final Total Internal Energy     =   -1.27 kcal/mol
DOCKED: USER    (3) Torsional Free Energy           =   +2.09 kcal/mol
DOCKED: USER    (4) Unbound System's Energy  [=(2)] =   -1.27 kcal/mol
DOCKED: USER    
DOCKED: USER    
DOCKED: USER    NEWDPF move ligand.pdbqt
DOCKED: USER    NEWDPF about 0.154000 0.112000 -0.159000
DOCKED: USER    NEWDPF tran0 27.880620 -15.865477 -2.169600
DOCKED: USER    NEWDPF quaternion0 0.323587 -0.238831 0.559123 0.725005
DOCKED: USER    NEWDPF axisangle0 0.469822 -0.346763 0.811802 87.061426
DOCKED: USER    NEWDPF quat0 0.469822 -0.346763 0.811802 87.061426
DOCKED: USER    NEWDPF dihe0 1.41 100.13 71.85 -165.91 137.55 -165.20 -164.98 
DOCKED: USER  keepresnum = 1 
DOCKED: USER  
DOCKED: REMARK  Name = 
DOCKED: REMARK  7 active torsions:
DOCKED: REMARK  status: ('A' for Active; 'I' for Inactive)
DOCKED: REMARK    1  A    between atoms: C_2  and  C_5
DOCKED: REMARK    2  A    between atoms: N_3  and  O_4
DOCKED: REMARK    3  A    between atoms: C_5  and  C_6
DOCKED: REMARK    4  A    between atoms: C_6  and  C_7
DOCKED: REMARK    5  A    between atoms: C_7  and  C_8
DOCKED: REMARK    6  A    between atoms: C_8  and  C_9
DOCKED: REMARK    7  A    between atoms: C_9  and  N_10
DOCKED: REMARK                            x       y       z     vdW  Elec       q    Type
DOCKED: REMARK                         _______ _______ _______ _____ _____    ______ ____
DOCKED: USER                              x       y       z     vdW  Elec       q    Type
DOCKED: USER                           _______ _______ _______ _____ _____    ______ ____
DOCKED: ROOT
DOCKED: ATOM      1  N   UNL     1      26.402 -15.637  -2.256 -0.38 -0.00    +0.000 N 
DOCKED: ATOM      2  C   UNL     1      26.286 -14.958  -3.521 -0.50 -0.00    +0.000 C 
DOCKED: ATOM      3  C   UNL     1      26.537 -13.501  -3.607 -0.29 -0.00    +0.000 A 
DOCKED: ATOM      4  C   UNL     1      26.451 -12.833  -4.842 -0.25 -0.00    +0.000 A 
DOCKED: ATOM      5  C   UNL     1      26.691 -11.461  -4.923 -0.20 -0.00    +0.000 A 
DOCKED: ATOM      6  C   UNL     1      27.019 -10.734  -3.779 -0.12 -0.00    +0.000 A 
DOCKED: ATOM      7  C   UNL     1      27.110 -11.376  -2.537 -0.08 -0.00    +0.000 A 
DOCKED: ATOM      8  C   UNL     1      27.438 -10.646  -1.387 -0.10 -0.00    +0.000 A 
DOCKED: ATOM      9  C   UNL     1      27.528 -11.285  -0.150 -0.12 -0.00    +0.000 A 
DOCKED: ATOM     10  C   UNL     1      27.291 -12.657  -0.049 -0.17 -0.00    +0.000 A 
DOCKED: ATOM     11  C   UNL     1      26.961 -13.412  -1.187 -0.18 -0.00    +0.000 A 
DOCKED: ATOM     12  C   UNL     1      26.868 -12.772  -2.444 -0.06 -0.00    +0.000 A 
DOCKED: ATOM     13  O   UNL     1      25.967 -15.602  -4.558 -0.78 -0.00    +0.000 OA
DOCKED: ATOM     14  C   UNL     1      26.711 -14.868  -1.077 -0.33 -0.00    +0.000 C 
DOCKED: ATOM     15  O   UNL     1      26.769 -15.430   0.051 -0.38 -0.00    +0.000 OA
DOCKED: ENDROOT
DOCKED: BRANCH   1  16
DOCKED: ATOM     16  C   UNL     1      26.240 -17.100  -2.185 -0.28 -0.00    +0.000 C 
DOCKED: BRANCH  16  17
DOCKED: ATOM     17  C   UNL     1      24.769 -17.495  -1.964 -0.63 -0.00    +0.000 C 
DOCKED: BRANCH  17  18
DOCKED: ATOM     18  C   UNL     1      24.430 -17.882  -0.513 -0.74 -0.00    +0.000 C 
DOCKED: BRANCH  18  19
DOCKED: ATOM     19  C   UNL     1      23.239 -18.852  -0.363 -0.76 -0.00    +0.000 C 
DOCKED: BRANCH  19  20
DOCKED: ATOM     20  C   UNL     1      21.912 -18.177   0.021 -0.73 -0.00    +0.000 C 
DOCKED: BRANCH  20  22
DOCKED: ATOM     21  O   UNL     1      19.604 -18.238  -0.595 -1.52 -0.00    +0.000 OA
DOCKED: ATOM     22  C   UNL     1      20.767 -18.670  -0.815 -0.82 -0.00    +0.000 C 
DOCKED: ATOM     23  N   UNL     1      20.983 -19.649  -1.834 -0.68 -0.00    +0.000 N 
DOCKED: ATOM     24  H   UNL     1      21.892 -19.990  -1.999 -0.49 -0.00    +0.000 HD
DOCKED: BRANCH  23  25
DOCKED: ATOM     25  O   UNL     1      19.948 -20.111  -2.576 -1.67 -0.00    +0.000 OA
DOCKED: ATOM     26  H   UNL     1      19.132 -19.662  -2.307 -0.45 -0.00    +0.000 HD
DOCKED: ENDBRANCH  23  25
DOCKED: ENDBRANCH  20  22
DOCKED: ENDBRANCH  19  20
DOCKED: ENDBRANCH  18  19
DOCKED: ENDBRANCH  17  18
DOCKED: ENDBRANCH  16  17
DOCKED: ENDBRANCH   1  16
DOCKED: TORSDOF 7
DOCKED: TER
DOCKED: ENDMDL
________________________________________________________________________________


	BEGINNING GENETIC ALGORITHM DOCKING 37 of 100
Run: 37 Seed: 559170468 1267954850 [ Run 37 of 100 GA/GALS ]
Beginning LAMARCKIAN GENETIC ALGORITHM (LGA), with a maximum of 2500000 energy evaluations.

Final-Value: -14.796


	FINAL GENETIC ALGORITHM DOCKED STATE
	_______________________________________________


Detailed state:  trans 26.651 -17.575 -2.296 quatxyzw -0.367611 0.655213 -0.657168 0.060741 center 0.154 0.112 -0.159 ntor 7 9.4904 161.2420 179.7003 168.9524 -77.0895 -174.5107 65.2163
State:	 26.651 -17.575  -2.296  -0.368  0.656 -0.658 173.035      9.49  161.24  179.70  168.95  -77.09 -174.51   65.22

DOCKED: MODEL       37
DOCKED: USER    Run = 37
DOCKED: USER    DPF = ligand_dock.biased.dpf
DOCKED: USER  
DOCKED: USER    Estimated Free Energy of Binding    =  -11.55 kcal/mol  [=(1)+(2)+(3)-(4)]
DOCKED: USER    Estimated Inhibition Constant, Ki   =    3.40 nM (nanomolar)  [Temperature = 298.15 K]
DOCKED: USER    
DOCKED: USER    (1) Final Intermolecular Energy     =  -13.64 kcal/mol
DOCKED: USER        vdW + Hbond + desolv Energy     =  -13.64 kcal/mol
DOCKED: USER        Electrostatic Energy            =   +0.00 kcal/mol
DOCKED: USER    (2) Final Total Internal Energy     =   -1.15 kcal/mol
DOCKED: USER    (3) Torsional Free Energy           =   +2.09 kcal/mol
DOCKED: USER    (4) Unbound System's Energy  [=(2)] =   -1.15 kcal/mol
DOCKED: USER    
DOCKED: USER    
DOCKED: USER    NEWDPF move ligand.pdbqt
DOCKED: USER    NEWDPF about 0.154000 0.112000 -0.159000
DOCKED: USER    NEWDPF tran0 26.650534 -17.574592 -2.296028
DOCKED: USER    NEWDPF quaternion0 -0.367611 0.655213 -0.657168 0.060741
DOCKED: USER    NEWDPF axisangle0 -0.368291 0.656425 -0.658383 173.035346
DOCKED: USER    NEWDPF quat0 -0.368291 0.656425 -0.658383 173.035346
DOCKED: USER    NEWDPF dihe0 9.49 161.24 179.70 168.95 -77.09 -174.51 65.22 
DOCKED: USER  keepresnum = 1 
DOCKED: USER  
DOCKED: REMARK  Name = 
DOCKED: REMARK  7 active torsions:
DOCKED: REMARK  status: ('A' for Active; 'I' for Inactive)
DOCKED: REMARK    1  A    between atoms: C_2  and  C_5
DOCKED: REMARK    2  A    between atoms: N_3  and  O_4
DOCKED: REMARK    3  A    between atoms: C_5  and  C_6
DOCKED: REMARK    4  A    between atoms: C_6  and  C_7
DOCKED: REMARK    5  A    between atoms: C_7  and  C_8
DOCKED: REMARK    6  A    between atoms: C_8  and  C_9
DOCKED: REMARK    7  A    between atoms: C_9  and  N_10
DOCKED: REMARK                            x       y       z     vdW  Elec       q    Type
DOCKED: REMARK                         _______ _______ _______ _____ _____    ______ ____
DOCKED: USER                              x       y       z     vdW  Elec       q    Type
DOCKED: USER                           _______ _______ _______ _____ _____    ______ ____
DOCKED: ROOT
DOCKED: ATOM      1  N   UNL     1      27.150 -16.255  -1.792 -0.34 -0.00    +0.000 N 
DOCKED: ATOM      2  C   UNL     1      26.793 -15.375  -2.876 -0.40 -0.00    +0.000 C 
DOCKED: ATOM      3  C   UNL     1      27.666 -15.274  -4.068 -0.33 -0.00    +0.000 A 
DOCKED: ATOM      4  C   UNL     1      27.313 -14.438  -5.142 -0.36 -0.00    +0.000 A 
DOCKED: ATOM      5  C   UNL     1      28.135 -14.344  -6.266 -0.29 -0.00    +0.000 A 
DOCKED: ATOM      6  C   UNL     1      29.317 -15.081  -6.337 -0.33 -0.00    +0.000 A 
DOCKED: ATOM      7  C   UNL     1      29.691 -15.920  -5.279 -0.27 -0.00    +0.000 A 
DOCKED: ATOM      8  C   UNL     1      30.880 -16.659  -5.350 -0.20 -0.00    +0.000 A 
DOCKED: ATOM      9  C   UNL     1      31.252 -17.494  -4.297 -0.15 -0.00    +0.000 A 
DOCKED: ATOM     10  C   UNL     1      30.444 -17.600  -3.164 -0.16 -0.00    +0.000 A 
DOCKED: ATOM     11  C   UNL     1      29.246 -16.870  -3.069 -0.19 -0.00    +0.000 A 
DOCKED: ATOM     12  C   UNL     1      28.862 -16.022  -4.132 -0.25 -0.00    +0.000 A 
DOCKED: ATOM     13  O   UNL     1      25.737 -14.687  -2.810 -0.47 -0.00    +0.000 OA
DOCKED: ATOM     14  C   UNL     1      28.390 -16.986  -1.866 -0.29 -0.00    +0.000 C 
DOCKED: ATOM     15  O   UNL     1      28.750 -17.723  -0.909 -0.38 -0.00    +0.000 OA
DOCKED: ENDROOT
DOCKED: BRANCH   1  16
DOCKED: ATOM     16  C   UNL     1      26.237 -16.423  -0.647 -0.49 -0.00    +0.000 C 
DOCKED: BRANCH  16  17
DOCKED: ATOM     17  C   UNL     1      26.205 -17.884  -0.162 -0.63 -0.00    +0.000 C 
DOCKED: BRANCH  17  18
DOCKED: ATOM     18  C   UNL     1      24.874 -18.610  -0.435 -0.65 -0.00    +0.000 C 
DOCKED: BRANCH  18  19
DOCKED: ATOM     19  C   UNL     1      23.741 -17.706  -0.964 -0.77 -0.00    +0.000 C 
DOCKED: BRANCH  19  20
DOCKED: ATOM     20  C   UNL     1      22.447 -17.756  -0.136 -0.73 -0.00    +0.000 C 
DOCKED: BRANCH  20  22
DOCKED: ATOM     21  O   UNL     1      20.264 -17.536  -1.085 -2.04 -0.00    +0.000 OA
DOCKED: ATOM     22  C   UNL     1      21.283 -18.263  -0.939 -0.73 -0.00    +0.000 C 
DOCKED: ATOM     23  N   UNL     1      21.312 -19.575  -1.506 -0.67 -0.00    +0.000 N 
DOCKED: ATOM     24  H   UNL     1      22.107 -20.143  -1.383 -0.33 -0.00    +0.000 HD
DOCKED: BRANCH  23  25
DOCKED: ATOM     25  O   UNL     1      20.255 -20.042  -2.212 -1.84 -0.00    +0.000 OA
DOCKED: ATOM     26  H   UNL     1      19.626 -19.321  -2.369 -0.35 -0.00    +0.000 HD
DOCKED: ENDBRANCH  23  25
DOCKED: ENDBRANCH  20  22
DOCKED: ENDBRANCH  19  20
DOCKED: ENDBRANCH  18  19
DOCKED: ENDBRANCH  17  18
DOCKED: ENDBRANCH  16  17
DOCKED: ENDBRANCH   1  16
DOCKED: TORSDOF 7
DOCKED: TER
DOCKED: ENDMDL
________________________________________________________________________________


	BEGINNING GENETIC ALGORITHM DOCKING 38 of 100
Run: 38 Seed: 1530036215 446472628 [ Run 38 of 100 GA/GALS ]
Beginning LAMARCKIAN GENETIC ALGORITHM (LGA), with a maximum of 2500000 energy evaluations.

Final-Value: -14.595


	FINAL GENETIC ALGORITHM DOCKED STATE
	_______________________________________________


Detailed state:  trans 26.241 -17.471 -2.250 quatxyzw 0.332480 -0.624251 0.706466 -0.025943 center 0.154 0.112 -0.159 ntor 7 -3.2827 -20.8491 9.7378 79.3938 2.6696 158.1513 57.4397
State:	 26.241 -17.471  -2.250   0.333 -0.624  0.707 -177.027     -3.28  -20.85    9.74   79.39    2.67  158.15   57.44

DOCKED: MODEL       38
DOCKED: USER    Run = 38
DOCKED: USER    DPF = ligand_dock.biased.dpf
DOCKED: USER  
DOCKED: USER    Estimated Free Energy of Binding    =  -11.31 kcal/mol  [=(1)+(2)+(3)-(4)]
DOCKED: USER    Estimated Inhibition Constant, Ki   =    5.11 nM (nanomolar)  [Temperature = 298.15 K]
DOCKED: USER    
DOCKED: USER    (1) Final Intermolecular Energy     =  -13.40 kcal/mol
DOCKED: USER        vdW + Hbond + desolv Energy     =  -13.40 kcal/mol
DOCKED: USER        Electrostatic Energy            =   +0.00 kcal/mol
DOCKED: USER    (2) Final Total Internal Energy     =   -1.20 kcal/mol
DOCKED: USER    (3) Torsional Free Energy           =   +2.09 kcal/mol
DOCKED: USER    (4) Unbound System's Energy  [=(2)] =   -1.20 kcal/mol
DOCKED: USER    
DOCKED: USER    
DOCKED: USER    NEWDPF move ligand.pdbqt
DOCKED: USER    NEWDPF about 0.154000 0.112000 -0.159000
DOCKED: USER    NEWDPF tran0 26.240564 -17.470835 -2.250357
DOCKED: USER    NEWDPF quaternion0 0.332480 -0.624251 0.706466 -0.025943
DOCKED: USER    NEWDPF axisangle0 0.332592 -0.624461 0.706704 -177.026845
DOCKED: USER    NEWDPF quat0 0.332592 -0.624461 0.706704 -177.026845
DOCKED: USER    NEWDPF dihe0 -3.28 -20.85 9.74 79.39 2.67 158.15 57.44 
DOCKED: USER  keepresnum = 1 
DOCKED: USER  
DOCKED: REMARK  Name = 
DOCKED: REMARK  7 active torsions:
DOCKED: REMARK  status: ('A' for Active; 'I' for Inactive)
DOCKED: REMARK    1  A    between atoms: C_2  and  C_5
DOCKED: REMARK    2  A    between atoms: N_3  and  O_4
DOCKED: REMARK    3  A    between atoms: C_5  and  C_6
DOCKED: REMARK    4  A    between atoms: C_6  and  C_7
DOCKED: REMARK    5  A    between atoms: C_7  and  C_8
DOCKED: REMARK    6  A    between atoms: C_8  and  C_9
DOCKED: REMARK    7  A    between atoms: C_9  and  N_10
DOCKED: REMARK                            x       y       z     vdW  Elec       q    Type
DOCKED: REMARK                         _______ _______ _______ _____ _____    ______ ____
DOCKED: USER                              x       y       z     vdW  Elec       q    Type
DOCKED: USER                           _______ _______ _______ _____ _____    ______ ____
DOCKED: ROOT
DOCKED: ATOM      1  N   UNL     1      26.642 -16.098  -1.803 -0.37 -0.00    +0.000 N 
DOCKED: ATOM      2  C   UNL     1      26.403 -15.323  -2.994 -0.46 -0.00    +0.000 C 
DOCKED: ATOM      3  C   UNL     1      27.416 -15.290  -4.074 -0.35 -0.00    +0.000 A 
DOCKED: ATOM      4  C   UNL     1      27.181 -14.557  -5.251 -0.35 -0.00    +0.000 A 
DOCKED: ATOM      5  C   UNL     1      28.135 -14.529  -6.270 -0.30 -0.00    +0.000 A 
DOCKED: ATOM      6  C   UNL     1      29.334 -15.228  -6.132 -0.33 -0.00    +0.000 A 
DOCKED: ATOM      7  C   UNL     1      29.591 -15.965  -4.969 -0.26 -0.00    +0.000 A 
DOCKED: ATOM      8  C   UNL     1      30.797 -16.667  -4.830 -0.18 -0.00    +0.000 A 
DOCKED: ATOM      9  C   UNL     1      31.053 -17.400  -3.671 -0.15 -0.00    +0.000 A 
DOCKED: ATOM     10  C   UNL     1      30.112 -17.440  -2.641 -0.16 -0.00    +0.000 A 
DOCKED: ATOM     11  C   UNL     1      28.895 -16.745  -2.756 -0.22 -0.00    +0.000 A 
DOCKED: ATOM     12  C   UNL     1      28.627 -16.001  -3.927 -0.24 -0.00    +0.000 A 
DOCKED: ATOM     13  O   UNL     1      25.332 -14.668  -3.118 -0.60 -0.00    +0.000 OA
DOCKED: ATOM     14  C   UNL     1      27.898 -16.790  -1.662 -0.36 -0.00    +0.000 C 
DOCKED: ATOM     15  O   UNL     1      28.153 -17.435  -0.608 -0.43 -0.00    +0.000 OA
DOCKED: ENDROOT
DOCKED: BRANCH   1  16
DOCKED: ATOM     16  C   UNL     1      25.598 -16.203  -0.769 -0.49 -0.00    +0.000 C 
DOCKED: BRANCH  16  17
DOCKED: ATOM     17  C   UNL     1      25.407 -17.658  -0.306 -0.65 -0.00    +0.000 C 
DOCKED: BRANCH  17  18
DOCKED: ATOM     18  C   UNL     1      23.935 -18.073  -0.117 -0.72 -0.00    +0.000 C 
DOCKED: BRANCH  18  19
DOCKED: ATOM     19  C   UNL     1      23.138 -18.240  -1.428 -0.74 -0.00    +0.000 C 
DOCKED: BRANCH  19  20
DOCKED: ATOM     20  C   UNL     1      22.082 -19.357  -1.393 -0.63 -0.00    +0.000 C 
DOCKED: BRANCH  20  22
DOCKED: ATOM     21  O   UNL     1      20.253 -17.944  -0.783 -2.19 -0.00    +0.000 OA
DOCKED: ATOM     22  C   UNL     1      20.906 -18.993  -0.534 -0.87 -0.00    +0.000 C 
DOCKED: ATOM     23  N   UNL     1      20.545 -19.810   0.583 -0.68 -0.00    +0.000 N 
DOCKED: ATOM     24  H   UNL     1      21.062 -20.624   0.779 -0.58 -0.00    +0.000 HD
DOCKED: BRANCH  23  25
DOCKED: ATOM     25  O   UNL     1      19.497 -19.472   1.372 -0.72 -0.00    +0.000 OA
DOCKED: ATOM     26  H   UNL     1      19.130 -18.624   1.077 -0.37 -0.00    +0.000 HD
DOCKED: ENDBRANCH  23  25
DOCKED: ENDBRANCH  20  22
DOCKED: ENDBRANCH  19  20
DOCKED: ENDBRANCH  18  19
DOCKED: ENDBRANCH  17  18
DOCKED: ENDBRANCH  16  17
DOCKED: ENDBRANCH   1  16
DOCKED: TORSDOF 7
DOCKED: TER
DOCKED: ENDMDL
________________________________________________________________________________


	BEGINNING GENETIC ALGORITHM DOCKING 39 of 100
Run: 39 Seed: 1203639792 1070182900 [ Run 39 of 100 GA/GALS ]
Beginning LAMARCKIAN GENETIC ALGORITHM (LGA), with a maximum of 2500000 energy evaluations.

Final-Value: -13.897


	FINAL GENETIC ALGORITHM DOCKED STATE
	_______________________________________________


Detailed state:  trans 26.600 -17.434 -1.827 quatxyzw -0.507819 0.720872 -0.455150 0.123701 center 0.154 0.112 -0.159 ntor 7 80.7354 -35.9702 155.3262 131.8291 161.3922 -118.1557 30.7762
State:	 26.600 -17.434  -1.827  -0.512  0.726 -0.459 165.789     80.74  -35.97  155.33  131.83  161.39 -118.16   30.78

DOCKED: MODEL       39
DOCKED: USER    Run = 39
DOCKED: USER    DPF = ligand_dock.biased.dpf
DOCKED: USER  
DOCKED: USER    Estimated Free Energy of Binding    =  -10.92 kcal/mol  [=(1)+(2)+(3)-(4)]
DOCKED: USER    Estimated Inhibition Constant, Ki   =    9.97 nM (nanomolar)  [Temperature = 298.15 K]
DOCKED: USER    
DOCKED: USER    (1) Final Intermolecular Energy     =  -13.00 kcal/mol
DOCKED: USER        vdW + Hbond + desolv Energy     =  -13.00 kcal/mol
DOCKED: USER        Electrostatic Energy            =   +0.00 kcal/mol
DOCKED: USER    (2) Final Total Internal Energy     =   -0.89 kcal/mol
DOCKED: USER    (3) Torsional Free Energy           =   +2.09 kcal/mol
DOCKED: USER    (4) Unbound System's Energy  [=(2)] =   -0.89 kcal/mol
DOCKED: USER    
DOCKED: USER    
DOCKED: USER    NEWDPF move ligand.pdbqt
DOCKED: USER    NEWDPF about 0.154000 0.112000 -0.159000
DOCKED: USER    NEWDPF tran0 26.600010 -17.434428 -1.826601
DOCKED: USER    NEWDPF quaternion0 -0.507819 0.720872 -0.455150 0.123701
DOCKED: USER    NEWDPF axisangle0 -0.511749 0.726451 -0.458673 165.788507
DOCKED: USER    NEWDPF quat0 -0.511749 0.726451 -0.458673 165.788507
DOCKED: USER    NEWDPF dihe0 80.74 -35.97 155.33 131.83 161.39 -118.16 30.78 
DOCKED: USER  keepresnum = 1 
DOCKED: USER  
DOCKED: REMARK  Name = 
DOCKED: REMARK  7 active torsions:
DOCKED: REMARK  status: ('A' for Active; 'I' for Inactive)
DOCKED: REMARK    1  A    between atoms: C_2  and  C_5
DOCKED: REMARK    2  A    between atoms: N_3  and  O_4
DOCKED: REMARK    3  A    between atoms: C_5  and  C_6
DOCKED: REMARK    4  A    between atoms: C_6  and  C_7
DOCKED: REMARK    5  A    between atoms: C_7  and  C_8
DOCKED: REMARK    6  A    between atoms: C_8  and  C_9
DOCKED: REMARK    7  A    between atoms: C_9  and  N_10
DOCKED: REMARK                            x       y       z     vdW  Elec       q    Type
DOCKED: REMARK                         _______ _______ _______ _____ _____    ______ ____
DOCKED: USER                              x       y       z     vdW  Elec       q    Type
DOCKED: USER                           _______ _______ _______ _____ _____    ______ ____
DOCKED: ROOT
DOCKED: ATOM      1  N   UNL     1      27.309 -16.291  -1.167 -0.35 -0.00    +0.000 N 
DOCKED: ATOM      2  C   UNL     1      26.584 -15.160  -1.688 -0.37 -0.00    +0.000 C 
DOCKED: ATOM      3  C   UNL     1      26.914 -14.619  -3.026 -0.30 -0.00    +0.000 A 
DOCKED: ATOM      4  C   UNL     1      26.196 -13.532  -3.554 -0.31 -0.00    +0.000 A 
DOCKED: ATOM      5  C   UNL     1      26.505 -13.024  -4.817 -0.25 -0.00    +0.000 A 
DOCKED: ATOM      6  C   UNL     1      27.532 -13.591  -5.571 -0.24 -0.00    +0.000 A 
DOCKED: ATOM      7  C   UNL     1      28.263 -14.675  -5.067 -0.31 -0.00    +0.000 A 
DOCKED: ATOM      8  C   UNL     1      29.297 -15.243  -5.824 -0.31 -0.00    +0.000 A 
DOCKED: ATOM      9  C   UNL     1      30.025 -16.321  -5.321 -0.26 -0.00    +0.000 A 
DOCKED: ATOM     10  C   UNL     1      29.731 -16.842  -4.060 -0.23 -0.00    +0.000 A 
DOCKED: ATOM     11  C   UNL     1      28.699 -16.290  -3.282 -0.22 -0.00    +0.000 A 
DOCKED: ATOM     12  C   UNL     1      27.956 -15.198  -3.783 -0.28 -0.00    +0.000 A 
DOCKED: ATOM     13  O   UNL     1      25.669 -14.625  -1.003 -0.39 -0.00    +0.000 OA
DOCKED: ATOM     14  C   UNL     1      28.388 -16.846  -1.944 -0.30 -0.00    +0.000 C 
DOCKED: ATOM     15  O   UNL     1      29.071 -17.804  -1.489 -0.29 -0.00    +0.000 OA
DOCKED: ENDROOT
DOCKED: BRANCH   1  16
DOCKED: ATOM     16  C   UNL     1      26.922 -16.885   0.125 -0.39 -0.00    +0.000 C 
DOCKED: BRANCH  16  17
DOCKED: ATOM     17  C   UNL     1      26.216 -18.239  -0.065 -0.65 -0.00    +0.000 C 
DOCKED: BRANCH  17  18
DOCKED: ATOM     18  C   UNL     1      25.001 -18.190  -1.011 -0.68 -0.00    +0.000 C 
DOCKED: BRANCH  18  19
DOCKED: ATOM     19  C   UNL     1      23.714 -18.827  -0.444 -0.70 -0.00    +0.000 C 
DOCKED: BRANCH  19  20
DOCKED: ATOM     20  C   UNL     1      22.654 -19.170  -1.503 -0.65 -0.00    +0.000 C 
DOCKED: BRANCH  20  22
DOCKED: ATOM     21  O   UNL     1      21.016 -17.873  -0.342 -1.94 +0.00    +0.000 OA
DOCKED: ATOM     22  C   UNL     1      21.260 -18.915  -1.007 -0.85 -0.00    +0.000 C 
DOCKED: ATOM     23  N   UNL     1      20.219 -19.863  -1.254 -0.80 -0.00    +0.000 N 
DOCKED: ATOM     24  H   UNL     1      20.414 -20.680  -1.767 -0.41 -0.00    +0.000 HD
DOCKED: BRANCH  23  25
DOCKED: ATOM     25  O   UNL     1      18.965 -19.646  -0.789 -0.97 -0.00    +0.000 OA
DOCKED: ATOM     26  H   UNL     1      18.500 -19.036  -1.384 -0.55 -0.00    +0.000 HD
DOCKED: ENDBRANCH  23  25
DOCKED: ENDBRANCH  20  22
DOCKED: ENDBRANCH  19  20
DOCKED: ENDBRANCH  18  19
DOCKED: ENDBRANCH  17  18
DOCKED: ENDBRANCH  16  17
DOCKED: ENDBRANCH   1  16
DOCKED: TORSDOF 7
DOCKED: TER
DOCKED: ENDMDL
________________________________________________________________________________


	BEGINNING GENETIC ALGORITHM DOCKING 40 of 100
Run: 40 Seed: 1052422799 1805985036 [ Run 40 of 100 GA/GALS ]
Beginning LAMARCKIAN GENETIC ALGORITHM (LGA), with a maximum of 2500000 energy evaluations.

Final-Value: -11.582


	FINAL GENETIC ALGORITHM DOCKED STATE
	_______________________________________________


Detailed state:  trans 26.335 -12.527 0.537 quatxyzw -0.072903 0.367311 -0.623491 0.686314 center 0.154 0.112 -0.159 ntor 7 179.6551 138.2873 -129.6874 79.4574 113.4694 63.3706 49.8726
State:	 26.335 -12.527   0.537  -0.100  0.505 -0.857 93.322    179.66  138.29 -129.69   79.46  113.47   63.37   49.87

DOCKED: MODEL       40
DOCKED: USER    Run = 40
DOCKED: USER    DPF = ligand_dock.biased.dpf
DOCKED: USER  
DOCKED: USER    Estimated Free Energy of Binding    =   -7.29 kcal/mol  [=(1)+(2)+(3)-(4)]
DOCKED: USER    Estimated Inhibition Constant, Ki   =    4.54 uM (micromolar)  [Temperature = 298.15 K]
DOCKED: USER    
DOCKED: USER    (1) Final Intermolecular Energy     =   -9.38 kcal/mol
DOCKED: USER        vdW + Hbond + desolv Energy     =   -9.38 kcal/mol
DOCKED: USER        Electrostatic Energy            =   +0.00 kcal/mol
DOCKED: USER    (2) Final Total Internal Energy     =   -2.20 kcal/mol
DOCKED: USER    (3) Torsional Free Energy           =   +2.09 kcal/mol
DOCKED: USER    (4) Unbound System's Energy  [=(2)] =   -2.20 kcal/mol
DOCKED: USER    
DOCKED: USER    
DOCKED: USER    NEWDPF move ligand.pdbqt
DOCKED: USER    NEWDPF about 0.154000 0.112000 -0.159000
DOCKED: USER    NEWDPF tran0 26.335372 -12.527480 0.536836
DOCKED: USER    NEWDPF quaternion0 -0.072903 0.367311 -0.623491 0.686314
DOCKED: USER    NEWDPF axisangle0 -0.100237 0.505030 -0.857261 93.321946
DOCKED: USER    NEWDPF quat0 -0.100237 0.505030 -0.857261 93.321946
DOCKED: USER    NEWDPF dihe0 179.66 138.29 -129.69 79.46 113.47 63.37 49.87 
DOCKED: USER  keepresnum = 1 
DOCKED: USER  
DOCKED: REMARK  Name = 
DOCKED: REMARK  7 active torsions:
DOCKED: REMARK  status: ('A' for Active; 'I' for Inactive)
DOCKED: REMARK    1  A    between atoms: C_2  and  C_5
DOCKED: REMARK    2  A    between atoms: N_3  and  O_4
DOCKED: REMARK    3  A    between atoms: C_5  and  C_6
DOCKED: REMARK    4  A    between atoms: C_6  and  C_7
DOCKED: REMARK    5  A    between atoms: C_7  and  C_8
DOCKED: REMARK    6  A    between atoms: C_8  and  C_9
DOCKED: REMARK    7  A    between atoms: C_9  and  N_10
DOCKED: REMARK                            x       y       z     vdW  Elec       q    Type
DOCKED: REMARK                         _______ _______ _______ _____ _____    ______ ____
DOCKED: USER                              x       y       z     vdW  Elec       q    Type
DOCKED: USER                           _______ _______ _______ _____ _____    ______ ____
DOCKED: ROOT
DOCKED: ATOM      1  N   UNL     1      27.592 -12.608  -0.275 -0.14 -0.00    +0.000 N 
DOCKED: ATOM      2  C   UNL     1      27.076 -12.522  -1.618 -0.11 -0.00    +0.000 C 
DOCKED: ATOM      3  C   UNL     1      26.542 -13.730  -2.287 -0.20 -0.00    +0.000 A 
DOCKED: ATOM      4  C   UNL     1      26.013 -13.652  -3.587 -0.34 -0.00    +0.000 A 
DOCKED: ATOM      5  C   UNL     1      25.507 -14.790  -4.216 -0.49 -0.00    +0.000 A 
DOCKED: ATOM      6  C   UNL     1      25.520 -16.021  -3.561 -0.38 -0.00    +0.000 A 
DOCKED: ATOM      7  C   UNL     1      26.042 -16.125  -2.265 -0.45 -0.00    +0.000 A 
DOCKED: ATOM      8  C   UNL     1      26.057 -17.363  -1.607 -0.42 -0.00    +0.000 A 
DOCKED: ATOM      9  C   UNL     1      26.577 -17.466  -0.317 -0.52 -0.00    +0.000 A 
DOCKED: ATOM     10  C   UNL     1      27.089 -16.339   0.328 -0.20 -0.00    +0.000 A 
DOCKED: ATOM     11  C   UNL     1      27.085 -15.087  -0.310 -0.29 -0.00    +0.000 A 
DOCKED: ATOM     12  C   UNL     1      26.559 -14.973  -1.616 -0.31 -0.00    +0.000 A 
DOCKED: ATOM     13  O   UNL     1      27.082 -11.417  -2.228 -0.15 -0.00    +0.000 OA
DOCKED: ATOM     14  C   UNL     1      27.627 -13.892   0.377 -0.25 -0.00    +0.000 C 
DOCKED: ATOM     15  O   UNL     1      28.120 -14.004   1.533 -0.27 -0.00    +0.000 OA
DOCKED: ENDROOT
DOCKED: BRANCH   1  16
DOCKED: ATOM     16  C   UNL     1      28.041 -11.390   0.423 -0.12 -0.00    +0.000 C 
DOCKED: BRANCH  16  17
DOCKED: ATOM     17  C   UNL     1      27.340 -11.229   1.784 -0.26 +0.00    +0.000 C 
DOCKED: BRANCH  17  18
DOCKED: ATOM     18  C   UNL     1      28.303 -11.029   2.969 -0.20 +0.00    +0.000 C 
DOCKED: BRANCH  18  19
DOCKED: ATOM     19  C   UNL     1      27.618 -10.926   4.348 -0.33 +0.00    +0.000 C 
DOCKED: BRANCH  19  20
DOCKED: ATOM     20  C   UNL     1      28.422 -11.539   5.506 -0.36 +0.00    +0.000 C 
DOCKED: BRANCH  20  22
DOCKED: ATOM     21  O   UNL     1      28.502 -13.740   6.434 -0.49 -0.00    +0.000 OA
DOCKED: ATOM     22  C   UNL     1      28.527 -13.032   5.391 -0.44 -0.00    +0.000 C 
DOCKED: ATOM     23  N   UNL     1      28.692 -13.650   4.113 -0.35 -0.00    +0.000 N 
DOCKED: ATOM     24  H   UNL     1      28.719 -13.093   3.301 -0.04 -0.00    +0.000 HD
DOCKED: BRANCH  23  25
DOCKED: ATOM     25  O   UNL     1      28.808 -14.995   4.009 -0.47 -0.00    +0.000 OA
DOCKED: ATOM     26  H   UNL     1      28.906 -15.241   3.076 -1.83 -0.00    +0.000 HD
DOCKED: ENDBRANCH  23  25
DOCKED: ENDBRANCH  20  22
DOCKED: ENDBRANCH  19  20
DOCKED: ENDBRANCH  18  19
DOCKED: ENDBRANCH  17  18
DOCKED: ENDBRANCH  16  17
DOCKED: ENDBRANCH   1  16
DOCKED: TORSDOF 7
DOCKED: TER
DOCKED: ENDMDL
________________________________________________________________________________


	BEGINNING GENETIC ALGORITHM DOCKING 41 of 100
Run: 41 Seed: 1592357732 411491622 [ Run 41 of 100 GA/GALS ]
Beginning LAMARCKIAN GENETIC ALGORITHM (LGA), with a maximum of 2500000 energy evaluations.

Final-Value: -12.597


	FINAL GENETIC ALGORITHM DOCKED STATE
	_______________________________________________


Detailed state:  trans 26.742 -16.488 0.937 quatxyzw -0.198610 0.373930 0.766484 0.482942 center 0.154 0.112 -0.159 ntor 7 1.8358 -0.4116 -174.4475 171.8176 -117.2142 -163.7932 153.8234
State:	 26.742 -16.488   0.937  -0.227  0.427  0.875 122.245      1.84   -0.41 -174.45  171.82 -117.21 -163.79  153.82

DOCKED: MODEL       41
DOCKED: USER    Run = 41
DOCKED: USER    DPF = ligand_dock.biased.dpf
DOCKED: USER  
DOCKED: USER    Estimated Free Energy of Binding    =   -9.45 kcal/mol  [=(1)+(2)+(3)-(4)]
DOCKED: USER    Estimated Inhibition Constant, Ki   =  119.27 nM (nanomolar)  [Temperature = 298.15 K]
DOCKED: USER    
DOCKED: USER    (1) Final Intermolecular Energy     =  -11.53 kcal/mol
DOCKED: USER        vdW + Hbond + desolv Energy     =  -11.53 kcal/mol
DOCKED: USER        Electrostatic Energy            =   +0.00 kcal/mol
DOCKED: USER    (2) Final Total Internal Energy     =   -1.06 kcal/mol
DOCKED: USER    (3) Torsional Free Energy           =   +2.09 kcal/mol
DOCKED: USER    (4) Unbound System's Energy  [=(2)] =   -1.06 kcal/mol
DOCKED: USER    
DOCKED: USER    
DOCKED: USER    NEWDPF move ligand.pdbqt
DOCKED: USER    NEWDPF about 0.154000 0.112000 -0.159000
DOCKED: USER    NEWDPF tran0 26.741896 -16.488161 0.936621
DOCKED: USER    NEWDPF quaternion0 -0.198610 0.373930 0.766484 0.482942
DOCKED: USER    NEWDPF axisangle0 -0.226814 0.427030 0.875329 122.244523
DOCKED: USER    NEWDPF quat0 -0.226814 0.427030 0.875329 122.244523
DOCKED: USER    NEWDPF dihe0 1.84 -0.41 -174.45 171.82 -117.21 -163.79 153.82 
DOCKED: USER  keepresnum = 1 
DOCKED: USER  
DOCKED: REMARK  Name = 
DOCKED: REMARK  7 active torsions:
DOCKED: REMARK  status: ('A' for Active; 'I' for Inactive)
DOCKED: REMARK    1  A    between atoms: C_2  and  C_5
DOCKED: REMARK    2  A    between atoms: N_3  and  O_4
DOCKED: REMARK    3  A    between atoms: C_5  and  C_6
DOCKED: REMARK    4  A    between atoms: C_6  and  C_7
DOCKED: REMARK    5  A    between atoms: C_7  and  C_8
DOCKED: REMARK    6  A    between atoms: C_8  and  C_9
DOCKED: REMARK    7  A    between atoms: C_9  and  N_10
DOCKED: REMARK                            x       y       z     vdW  Elec       q    Type
DOCKED: REMARK                         _______ _______ _______ _____ _____    ______ ____
DOCKED: USER                              x       y       z     vdW  Elec       q    Type
DOCKED: USER                           _______ _______ _______ _____ _____    ______ ____
DOCKED: ROOT
DOCKED: ATOM      1  N   UNL     1      27.208 -16.132  -0.442 -0.36 -0.00    +0.000 N 
DOCKED: ATOM      2  C   UNL     1      28.636 -16.056  -0.255 -0.25 -0.00    +0.000 C 
DOCKED: ATOM      3  C   UNL     1      29.248 -14.824   0.293 -0.15 -0.00    +0.000 A 
DOCKED: ATOM      4  C   UNL     1      30.636 -14.749   0.503 -0.09 -0.00    +0.000 A 
DOCKED: ATOM      5  C   UNL     1      31.212 -13.589   1.022 -0.04 -0.00    +0.000 A 
DOCKED: ATOM      6  C   UNL     1      30.417 -12.489   1.340 -0.03 -0.00    +0.000 A 
DOCKED: ATOM      7  C   UNL     1      29.031 -12.538   1.140 -0.08 -0.00    +0.000 A 
DOCKED: ATOM      8  C   UNL     1      28.231 -11.432   1.457 -0.11 -0.00    +0.000 A 
DOCKED: ATOM      9  C   UNL     1      26.852 -11.481   1.257 -0.26 +0.00    +0.000 A 
DOCKED: ATOM     10  C   UNL     1      26.257 -12.632   0.738 -0.30 -0.00    +0.000 A 
DOCKED: ATOM     11  C   UNL     1      27.037 -13.755   0.411 -0.26 -0.00    +0.000 A 
DOCKED: ATOM     12  C   UNL     1      28.435 -13.714   0.612 -0.15 -0.00    +0.000 A 
DOCKED: ATOM     13  O   UNL     1      29.367 -17.037  -0.562 -0.29 -0.00    +0.000 OA
DOCKED: ATOM     14  C   UNL     1      26.403 -14.976  -0.138 -0.26 -0.00    +0.000 C 
DOCKED: ATOM     15  O   UNL     1      25.158 -14.999  -0.340 -0.30 -0.00    +0.000 OA
DOCKED: ENDROOT
DOCKED: BRANCH   1  16
DOCKED: ATOM     16  C   UNL     1      26.590 -17.387  -0.903 -0.55 -0.00    +0.000 C 
DOCKED: BRANCH  16  17
DOCKED: ATOM     17  C   UNL     1      25.639 -17.145  -2.088 -0.50 -0.00    +0.000 C 
DOCKED: BRANCH  17  18
DOCKED: ATOM     18  C   UNL     1      24.149 -17.092  -1.701 -0.58 -0.00    +0.000 C 
DOCKED: BRANCH  18  19
DOCKED: ATOM     19  C   UNL     1      23.675 -18.248  -0.795 -0.81 -0.00    +0.000 C 
DOCKED: BRANCH  19  20
DOCKED: ATOM     20  C   UNL     1      22.521 -19.081  -1.376 -0.73 -0.00    +0.000 C 
DOCKED: BRANCH  20  22
DOCKED: ATOM     21  O   UNL     1      20.561 -17.861  -0.757 -2.31 -0.00    +0.000 OA
DOCKED: ATOM     22  C   UNL     1      21.250 -18.904  -0.596 -0.86 -0.00    +0.000 C 
DOCKED: ATOM     23  N   UNL     1      20.837 -19.893   0.350 -0.63 -0.00    +0.000 N 
DOCKED: ATOM     24  H   UNL     1      21.382 -20.703   0.479 -0.60 -0.00    +0.000 HD
DOCKED: BRANCH  23  25
DOCKED: ATOM     25  O   UNL     1      19.702 -19.725   1.070 -0.77 -0.00    +0.000 OA
DOCKED: ATOM     26  H   UNL     1      19.270 -18.898   0.806 -0.26 -0.00    +0.000 HD
DOCKED: ENDBRANCH  23  25
DOCKED: ENDBRANCH  20  22
DOCKED: ENDBRANCH  19  20
DOCKED: ENDBRANCH  18  19
DOCKED: ENDBRANCH  17  18
DOCKED: ENDBRANCH  16  17
DOCKED: ENDBRANCH   1  16
DOCKED: TORSDOF 7
DOCKED: TER
DOCKED: ENDMDL
________________________________________________________________________________


	BEGINNING GENETIC ALGORITHM DOCKING 42 of 100
Run: 42 Seed: 500480385 654329722 [ Run 42 of 100 GA/GALS ]
Beginning LAMARCKIAN GENETIC ALGORITHM (LGA), with a maximum of 2500000 energy evaluations.

Final-Value: -13.764


	FINAL GENETIC ALGORITHM DOCKED STATE
	_______________________________________________


Detailed state:  trans 26.287 -14.381 -2.444 quatxyzw -0.162745 -0.539519 -0.615280 -0.551239 center 0.154 0.112 -0.159 ntor 7 17.6950 -51.6366 -175.7962 17.5783 -167.9316 155.8987 2.5812
State:	 26.287 -14.381  -2.444  -0.195 -0.647 -0.737 -113.096     17.70  -51.64 -175.80   17.58 -167.93  155.90    2.58

DOCKED: MODEL       42
DOCKED: USER    Run = 42
DOCKED: USER    DPF = ligand_dock.biased.dpf
DOCKED: USER  
DOCKED: USER    Estimated Free Energy of Binding    =  -10.34 kcal/mol  [=(1)+(2)+(3)-(4)]
DOCKED: USER    Estimated Inhibition Constant, Ki   =   26.27 nM (nanomolar)  [Temperature = 298.15 K]
DOCKED: USER    
DOCKED: USER    (1) Final Intermolecular Energy     =  -12.43 kcal/mol
DOCKED: USER        vdW + Hbond + desolv Energy     =  -12.43 kcal/mol
DOCKED: USER        Electrostatic Energy            =   +0.00 kcal/mol
DOCKED: USER    (2) Final Total Internal Energy     =   -1.33 kcal/mol
DOCKED: USER    (3) Torsional Free Energy           =   +2.09 kcal/mol
DOCKED: USER    (4) Unbound System's Energy  [=(2)] =   -1.33 kcal/mol
DOCKED: USER    
DOCKED: USER    
DOCKED: USER    NEWDPF move ligand.pdbqt
DOCKED: USER    NEWDPF about 0.154000 0.112000 -0.159000
DOCKED: USER    NEWDPF tran0 26.286774 -14.380808 -2.443957
DOCKED: USER    NEWDPF quaternion0 -0.162745 -0.539519 -0.615280 -0.551239
DOCKED: USER    NEWDPF axisangle0 -0.195057 -0.646636 -0.737438 -113.095957
DOCKED: USER    NEWDPF quat0 -0.195057 -0.646636 -0.737438 -113.095957
DOCKED: USER    NEWDPF dihe0 17.70 -51.64 -175.80 17.58 -167.93 155.90 2.58 
DOCKED: USER  keepresnum = 1 
DOCKED: USER  
DOCKED: REMARK  Name = 
DOCKED: REMARK  7 active torsions:
DOCKED: REMARK  status: ('A' for Active; 'I' for Inactive)
DOCKED: REMARK    1  A    between atoms: C_2  and  C_5
DOCKED: REMARK    2  A    between atoms: N_3  and  O_4
DOCKED: REMARK    3  A    between atoms: C_5  and  C_6
DOCKED: REMARK    4  A    between atoms: C_6  and  C_7
DOCKED: REMARK    5  A    between atoms: C_7  and  C_8
DOCKED: REMARK    6  A    between atoms: C_8  and  C_9
DOCKED: REMARK    7  A    between atoms: C_9  and  N_10
DOCKED: REMARK                            x       y       z     vdW  Elec       q    Type
DOCKED: REMARK                         _______ _______ _______ _____ _____    ______ ____
DOCKED: USER                              x       y       z     vdW  Elec       q    Type
DOCKED: USER                           _______ _______ _______ _____ _____    ______ ____
DOCKED: ROOT
DOCKED: ATOM      1  N   UNL     1      26.168 -15.134  -3.734 -0.48 -0.00    +0.000 N 
DOCKED: ATOM      2  C   UNL     1      27.551 -15.271  -4.119 -0.39 -0.00    +0.000 C 
DOCKED: ATOM      3  C   UNL     1      28.243 -14.158  -4.807 -0.24 -0.00    +0.000 A 
DOCKED: ATOM      4  C   UNL     1      29.599 -14.272  -5.164 -0.15 -0.00    +0.000 A 
DOCKED: ATOM      5  C   UNL     1      30.252 -13.221  -5.811 -0.09 -0.00    +0.000 A 
DOCKED: ATOM      6  C   UNL     1      29.567 -12.045  -6.111 -0.08 -0.00    +0.000 A 
DOCKED: ATOM      7  C   UNL     1      28.216 -11.907  -5.767 -0.13 -0.00    +0.000 A 
DOCKED: ATOM      8  C   UNL     1      27.527 -10.725  -6.070 -0.11 -0.00    +0.000 A 
DOCKED: ATOM      9  C   UNL     1      26.181 -10.588  -5.728 -0.20 -0.00    +0.000 A 
DOCKED: ATOM     10  C   UNL     1      25.510 -11.627  -5.082 -0.28 -0.00    +0.000 A 
DOCKED: ATOM     11  C   UNL     1      26.179 -12.823  -4.766 -0.24 -0.00    +0.000 A 
DOCKED: ATOM     12  C   UNL     1      27.542 -12.969  -5.108 -0.22 -0.00    +0.000 A 
DOCKED: ATOM     13  O   UNL     1      28.172 -16.341  -3.872 -0.28 -0.00    +0.000 OA
DOCKED: ATOM     14  C   UNL     1      25.465 -13.924  -4.079 -0.51 -0.00    +0.000 C 
DOCKED: ATOM     15  O   UNL     1      24.242 -13.799  -3.799 -0.96 -0.00    +0.000 OA
DOCKED: ENDROOT
DOCKED: BRANCH   1  16
DOCKED: ATOM     16  C   UNL     1      25.505 -16.205  -2.970 -0.53 -0.00    +0.000 C 
DOCKED: BRANCH  16  17
DOCKED: ATOM     17  C   UNL     1      25.887 -16.155  -1.480 -0.52 -0.00    +0.000 C 
DOCKED: BRANCH  17  18
DOCKED: ATOM     18  C   UNL     1      26.109 -17.537  -0.838 -0.61 -0.00    +0.000 C 
DOCKED: BRANCH  18  19
DOCKED: ATOM     19  C   UNL     1      24.907 -18.077  -0.034 -0.66 -0.00    +0.000 C 
DOCKED: BRANCH  19  20
DOCKED: ATOM     20  C   UNL     1      23.838 -18.784  -0.882 -0.78 -0.00    +0.000 C 
DOCKED: BRANCH  20  22
DOCKED: ATOM     21  O   UNL     1      22.539 -16.786  -0.704 -0.80 -0.00    +0.000 OA
DOCKED: ATOM     22  C   UNL     1      22.539 -18.032  -0.892 -0.80 -0.00    +0.000 C 
DOCKED: ATOM     23  N   UNL     1      21.303 -18.725  -1.080 -0.79 -0.00    +0.000 N 
DOCKED: ATOM     24  H   UNL     1      21.305 -19.700  -1.219 -0.09 -0.00    +0.000 HD
DOCKED: BRANCH  23  25
DOCKED: ATOM     25  O   UNL     1      20.127 -18.051  -1.068 -2.02 -0.00    +0.000 OA
DOCKED: ATOM     26  H   UNL     1      20.295 -17.105  -1.202 -0.48 -0.00    +0.000 HD
DOCKED: ENDBRANCH  23  25
DOCKED: ENDBRANCH  20  22
DOCKED: ENDBRANCH  19  20
DOCKED: ENDBRANCH  18  19
DOCKED: ENDBRANCH  17  18
DOCKED: ENDBRANCH  16  17
DOCKED: ENDBRANCH   1  16
DOCKED: TORSDOF 7
DOCKED: TER
DOCKED: ENDMDL
________________________________________________________________________________


	BEGINNING GENETIC ALGORITHM DOCKING 43 of 100
Run: 43 Seed: 1691283198 449304616 [ Run 43 of 100 GA/GALS ]
Beginning LAMARCKIAN GENETIC ALGORITHM (LGA), with a maximum of 2500000 energy evaluations.

Final-Value: -13.649


	FINAL GENETIC ALGORITHM DOCKED STATE
	_______________________________________________


Detailed state:  trans 26.221 -14.879 -1.990 quatxyzw -0.250855 -0.746565 -0.552117 -0.273642 center 0.154 0.112 -0.159 ntor 7 56.7730 64.8976 109.5569 -25.4417 -144.1253 -179.9480 -38.3204
State:	 26.221 -14.879  -1.990  -0.261 -0.776 -0.574 -148.238     56.77   64.90  109.56  -25.44 -144.13 -179.95  -38.32

DOCKED: MODEL       43
DOCKED: USER    Run = 43
DOCKED: USER    DPF = ligand_dock.biased.dpf
DOCKED: USER  
DOCKED: USER    Estimated Free Energy of Binding    =  -10.98 kcal/mol  [=(1)+(2)+(3)-(4)]
DOCKED: USER    Estimated Inhibition Constant, Ki   =    8.95 nM (nanomolar)  [Temperature = 298.15 K]
DOCKED: USER    
DOCKED: USER    (1) Final Intermolecular Energy     =  -13.07 kcal/mol
DOCKED: USER        vdW + Hbond + desolv Energy     =  -13.07 kcal/mol
DOCKED: USER        Electrostatic Energy            =   +0.00 kcal/mol
DOCKED: USER    (2) Final Total Internal Energy     =   -0.58 kcal/mol
DOCKED: USER    (3) Torsional Free Energy           =   +2.09 kcal/mol
DOCKED: USER    (4) Unbound System's Energy  [=(2)] =   -0.58 kcal/mol
DOCKED: USER    
DOCKED: USER    
DOCKED: USER    NEWDPF move ligand.pdbqt
DOCKED: USER    NEWDPF about 0.154000 0.112000 -0.159000
DOCKED: USER    NEWDPF tran0 26.221210 -14.878808 -1.989613
DOCKED: USER    NEWDPF quaternion0 -0.250855 -0.746565 -0.552117 -0.273642
DOCKED: USER    NEWDPF axisangle0 -0.260810 -0.776191 -0.574027 -148.237782
DOCKED: USER    NEWDPF quat0 -0.260810 -0.776191 -0.574027 -148.237782
DOCKED: USER    NEWDPF dihe0 56.77 64.90 109.56 -25.44 -144.13 -179.95 -38.32 
DOCKED: USER  keepresnum = 1 
DOCKED: USER  
DOCKED: REMARK  Name = 
DOCKED: REMARK  7 active torsions:
DOCKED: REMARK  status: ('A' for Active; 'I' for Inactive)
DOCKED: REMARK    1  A    between atoms: C_2  and  C_5
DOCKED: REMARK    2  A    between atoms: N_3  and  O_4
DOCKED: REMARK    3  A    between atoms: C_5  and  C_6
DOCKED: REMARK    4  A    between atoms: C_6  and  C_7
DOCKED: REMARK    5  A    between atoms: C_7  and  C_8
DOCKED: REMARK    6  A    between atoms: C_8  and  C_9
DOCKED: REMARK    7  A    between atoms: C_9  and  N_10
DOCKED: REMARK                            x       y       z     vdW  Elec       q    Type
DOCKED: REMARK                         _______ _______ _______ _____ _____    ______ ____
DOCKED: USER                              x       y       z     vdW  Elec       q    Type
DOCKED: USER                           _______ _______ _______ _____ _____    ______ ____
DOCKED: ROOT
DOCKED: ATOM      1  N   UNL     1      26.212 -16.171  -2.748 -0.44 -0.00    +0.000 N 
DOCKED: ATOM      2  C   UNL     1      27.484 -16.736  -2.374 -0.22 -0.00    +0.000 C 
DOCKED: ATOM      3  C   UNL     1      28.719 -16.311  -3.072 -0.23 -0.00    +0.000 A 
DOCKED: ATOM      4  C   UNL     1      29.968 -16.838  -2.697 -0.18 -0.00    +0.000 A 
DOCKED: ATOM      5  C   UNL     1      31.132 -16.435  -3.353 -0.09 -0.00    +0.000 A 
DOCKED: ATOM      6  C   UNL     1      31.071 -15.504  -4.389 -0.08 -0.00    +0.000 A 
DOCKED: ATOM      7  C   UNL     1      29.838 -14.965  -4.781 -0.15 -0.00    +0.000 A 
DOCKED: ATOM      8  C   UNL     1      29.776 -14.030  -5.823 -0.17 -0.00    +0.000 A 
DOCKED: ATOM      9  C   UNL     1      28.549 -13.494  -6.214 -0.26 -0.00    +0.000 A 
DOCKED: ATOM     10  C   UNL     1      27.373 -13.885  -5.571 -0.23 -0.00    +0.000 A 
DOCKED: ATOM     11  C   UNL     1      27.409 -14.821  -4.523 -0.37 -0.00    +0.000 A 
DOCKED: ATOM     12  C   UNL     1      28.648 -15.368  -4.120 -0.25 -0.00    +0.000 A 
DOCKED: ATOM     13  O   UNL     1      27.547 -17.598  -1.454 -0.43 -0.00    +0.000 OA
DOCKED: ATOM     14  C   UNL     1      26.160 -15.233  -3.841 -0.56 -0.00    +0.000 C 
DOCKED: ATOM     15  O   UNL     1      25.054 -14.762  -4.221 -0.96 -0.00    +0.000 OA
DOCKED: ENDROOT
DOCKED: BRANCH   1  16
DOCKED: ATOM     16  C   UNL     1      24.996 -16.527  -1.996 -0.59 -0.00    +0.000 C 
DOCKED: BRANCH  16  17
DOCKED: ATOM     17  C   UNL     1      25.285 -16.664  -0.490 -0.41 -0.00    +0.000 C 
DOCKED: BRANCH  17  18
DOCKED: ATOM     18  C   UNL     1      25.065 -18.083   0.068 -0.62 -0.00    +0.000 C 
DOCKED: BRANCH  18  19
DOCKED: ATOM     19  C   UNL     1      23.586 -18.484   0.250 -0.49 -0.00    +0.000 C 
DOCKED: BRANCH  19  20
DOCKED: ATOM     20  C   UNL     1      22.658 -18.032  -0.889 -0.80 -0.00    +0.000 C 
DOCKED: BRANCH  20  22
DOCKED: ATOM     21  O   UNL     1      20.278 -17.924  -1.074 -2.16 -0.00    +0.000 OA
DOCKED: ATOM     22  C   UNL     1      21.282 -18.619  -0.761 -0.86 -0.00    +0.000 C 
DOCKED: ATOM     23  N   UNL     1      21.104 -19.944  -0.255 -0.65 -0.00    +0.000 N 
DOCKED: ATOM     24  H   UNL     1      21.890 -20.480  -0.004 -0.54 -0.00    +0.000 HD
DOCKED: BRANCH  23  25
DOCKED: ATOM     25  O   UNL     1      19.861 -20.467  -0.119 -0.86 -0.00    +0.000 OA
DOCKED: ATOM     26  H   UNL     1      19.405 -20.444  -0.974 -0.48 -0.00    +0.000 HD
DOCKED: ENDBRANCH  23  25
DOCKED: ENDBRANCH  20  22
DOCKED: ENDBRANCH  19  20
DOCKED: ENDBRANCH  18  19
DOCKED: ENDBRANCH  17  18
DOCKED: ENDBRANCH  16  17
DOCKED: ENDBRANCH   1  16
DOCKED: TORSDOF 7
DOCKED: TER
DOCKED: ENDMDL
________________________________________________________________________________


	BEGINNING GENETIC ALGORITHM DOCKING 44 of 100
Run: 44 Seed: 1504075771 1488847817 [ Run 44 of 100 GA/GALS ]
Beginning LAMARCKIAN GENETIC ALGORITHM (LGA), with a maximum of 2500000 energy evaluations.

Final-Value: -14.050


	FINAL GENETIC ALGORITHM DOCKED STATE
	_______________________________________________


Detailed state:  trans 25.423 -15.184 -2.355 quatxyzw 0.449311 -0.809303 -0.267425 -0.267642 center 0.154 0.112 -0.159 ntor 7 1.1271 131.5569 78.2792 160.9757 139.1756 -176.2515 32.4932
State:	 25.423 -15.184  -2.355   0.466 -0.840 -0.278 -148.952      1.13  131.56   78.28  160.98  139.18 -176.25   32.49

DOCKED: MODEL       44
DOCKED: USER    Run = 44
DOCKED: USER    DPF = ligand_dock.biased.dpf
DOCKED: USER  
DOCKED: USER    Estimated Free Energy of Binding    =  -10.77 kcal/mol  [=(1)+(2)+(3)-(4)]
DOCKED: USER    Estimated Inhibition Constant, Ki   =   12.76 nM (nanomolar)  [Temperature = 298.15 K]
DOCKED: USER    
DOCKED: USER    (1) Final Intermolecular Energy     =  -12.86 kcal/mol
DOCKED: USER        vdW + Hbond + desolv Energy     =  -12.86 kcal/mol
DOCKED: USER        Electrostatic Energy            =   +0.00 kcal/mol
DOCKED: USER    (2) Final Total Internal Energy     =   -1.19 kcal/mol
DOCKED: USER    (3) Torsional Free Energy           =   +2.09 kcal/mol
DOCKED: USER    (4) Unbound System's Energy  [=(2)] =   -1.19 kcal/mol
DOCKED: USER    
DOCKED: USER    
DOCKED: USER    NEWDPF move ligand.pdbqt
DOCKED: USER    NEWDPF about 0.154000 0.112000 -0.159000
DOCKED: USER    NEWDPF tran0 25.423267 -15.183827 -2.354757
DOCKED: USER    NEWDPF quaternion0 0.449311 -0.809303 -0.267425 -0.267642
DOCKED: USER    NEWDPF axisangle0 0.466324 -0.839945 -0.277550 -148.952011
DOCKED: USER    NEWDPF quat0 0.466324 -0.839945 -0.277550 -148.952011
DOCKED: USER    NEWDPF dihe0 1.13 131.56 78.28 160.98 139.18 -176.25 32.49 
DOCKED: USER  keepresnum = 1 
DOCKED: USER  
DOCKED: REMARK  Name = 
DOCKED: REMARK  7 active torsions:
DOCKED: REMARK  status: ('A' for Active; 'I' for Inactive)
DOCKED: REMARK    1  A    between atoms: C_2  and  C_5
DOCKED: REMARK    2  A    between atoms: N_3  and  O_4
DOCKED: REMARK    3  A    between atoms: C_5  and  C_6
DOCKED: REMARK    4  A    between atoms: C_6  and  C_7
DOCKED: REMARK    5  A    between atoms: C_7  and  C_8
DOCKED: REMARK    6  A    between atoms: C_8  and  C_9
DOCKED: REMARK    7  A    between atoms: C_9  and  N_10
DOCKED: REMARK                            x       y       z     vdW  Elec       q    Type
DOCKED: REMARK                         _______ _______ _______ _____ _____    ______ ____
DOCKED: USER                              x       y       z     vdW  Elec       q    Type
DOCKED: USER                           _______ _______ _______ _____ _____    ______ ____
DOCKED: ROOT
DOCKED: ATOM      1  N   UNL     1      26.919 -15.253  -2.301 -0.29 -0.00    +0.000 N 
DOCKED: ATOM      2  C   UNL     1      27.213 -14.354  -1.214 -0.26 -0.00    +0.000 C 
DOCKED: ATOM      3  C   UNL     1      27.268 -12.894  -1.452 -0.13 -0.00    +0.000 A 
DOCKED: ATOM      4  C   UNL     1      27.529 -12.006  -0.393 -0.12 -0.00    +0.000 A 
DOCKED: ATOM      5  C   UNL     1      27.578 -10.630  -0.618 -0.10 -0.00    +0.000 A 
DOCKED: ATOM      6  C   UNL     1      27.368 -10.117  -1.897 -0.10 -0.00    +0.000 A 
DOCKED: ATOM      7  C   UNL     1      27.108 -10.981  -2.970 -0.11 -0.00    +0.000 A 
DOCKED: ATOM      8  C   UNL     1      26.899 -10.466  -4.256 -0.13 -0.00    +0.000 A 
DOCKED: ATOM      9  C   UNL     1      26.639 -11.325  -5.324 -0.20 -0.00    +0.000 A 
DOCKED: ATOM     10  C   UNL     1      26.587 -12.705  -5.119 -0.18 -0.00    +0.000 A 
DOCKED: ATOM     11  C   UNL     1      26.793 -13.246  -3.838 -0.26 -0.00    +0.000 A 
DOCKED: ATOM     12  C   UNL     1      27.055 -12.383  -2.752 -0.13 -0.00    +0.000 A 
DOCKED: ATOM     13  O   UNL     1      27.428 -14.810  -0.057 -0.29 -0.00    +0.000 OA
DOCKED: ATOM     14  C   UNL     1      26.736 -14.711  -3.624 -0.42 -0.00    +0.000 C 
DOCKED: ATOM     15  O   UNL     1      26.527 -15.480  -4.602 -0.76 -0.00    +0.000 OA
DOCKED: ENDROOT
DOCKED: BRANCH   1  16
DOCKED: ATOM     16  C   UNL     1      26.776 -16.697  -2.047 -0.40 -0.00    +0.000 C 
DOCKED: BRANCH  16  17
DOCKED: ATOM     17  C   UNL     1      25.310 -17.150  -2.171 -0.56 -0.00    +0.000 C 
DOCKED: BRANCH  17  18
DOCKED: ATOM     18  C   UNL     1      24.674 -17.599  -0.843 -0.72 -0.00    +0.000 C 
DOCKED: BRANCH  18  19
DOCKED: ATOM     19  C   UNL     1      23.547 -18.644  -0.986 -0.82 -0.00    +0.000 C 
DOCKED: BRANCH  19  20
DOCKED: ATOM     20  C   UNL     1      22.279 -18.330  -0.175 -0.82 -0.00    +0.000 C 
DOCKED: BRANCH  20  22
DOCKED: ATOM     21  O   UNL     1      19.974 -18.004  -0.714 -1.95 -0.00    +0.000 OA
DOCKED: ATOM     22  C   UNL     1      21.027 -18.660  -0.934 -0.83 -0.00    +0.000 C 
DOCKED: ATOM     23  N   UNL     1      21.015 -19.735  -1.877 -0.64 -0.00    +0.000 N 
DOCKED: ATOM     24  H   UNL     1      21.837 -20.251  -2.040 -0.50 -0.00    +0.000 HD
DOCKED: BRANCH  23  25
DOCKED: ATOM     25  O   UNL     1      19.880 -20.049  -2.548 -1.67 -0.00    +0.000 OA
DOCKED: ATOM     26  H   UNL     1      19.172 -19.440  -2.288 -0.48 -0.00    +0.000 HD
DOCKED: ENDBRANCH  23  25
DOCKED: ENDBRANCH  20  22
DOCKED: ENDBRANCH  19  20
DOCKED: ENDBRANCH  18  19
DOCKED: ENDBRANCH  17  18
DOCKED: ENDBRANCH  16  17
DOCKED: ENDBRANCH   1  16
DOCKED: TORSDOF 7
DOCKED: TER
DOCKED: ENDMDL
________________________________________________________________________________


	BEGINNING GENETIC ALGORITHM DOCKING 45 of 100
Run: 45 Seed: 1042025100 2076187091 [ Run 45 of 100 GA/GALS ]
Beginning LAMARCKIAN GENETIC ALGORITHM (LGA), with a maximum of 2500000 energy evaluations.

Final-Value: -14.846


	FINAL GENETIC ALGORITHM DOCKED STATE
	_______________________________________________


Detailed state:  trans 26.054 -16.606 -4.238 quatxyzw -0.326521 0.742122 -0.548175 -0.205285 center 0.154 0.112 -0.159 ntor 7 -1.1927 116.7096 94.8142 -99.2714 -138.7468 170.4289 157.3798
State:	 26.054 -16.606  -4.238  -0.334  0.758 -0.560 -156.308     -1.19  116.71   94.81  -99.27 -138.75  170.43  157.38

DOCKED: MODEL       45
DOCKED: USER    Run = 45
DOCKED: USER    DPF = ligand_dock.biased.dpf
DOCKED: USER  
DOCKED: USER    Estimated Free Energy of Binding    =  -11.50 kcal/mol  [=(1)+(2)+(3)-(4)]
DOCKED: USER    Estimated Inhibition Constant, Ki   =    3.71 nM (nanomolar)  [Temperature = 298.15 K]
DOCKED: USER    
DOCKED: USER    (1) Final Intermolecular Energy     =  -13.59 kcal/mol
DOCKED: USER        vdW + Hbond + desolv Energy     =  -13.59 kcal/mol
DOCKED: USER        Electrostatic Energy            =   +0.00 kcal/mol
DOCKED: USER    (2) Final Total Internal Energy     =   -1.26 kcal/mol
DOCKED: USER    (3) Torsional Free Energy           =   +2.09 kcal/mol
DOCKED: USER    (4) Unbound System's Energy  [=(2)] =   -1.26 kcal/mol
DOCKED: USER    
DOCKED: USER    
DOCKED: USER    NEWDPF move ligand.pdbqt
DOCKED: USER    NEWDPF about 0.154000 0.112000 -0.159000
DOCKED: USER    NEWDPF tran0 26.054034 -16.606455 -4.237959
DOCKED: USER    NEWDPF quaternion0 -0.326521 0.742122 -0.548175 -0.205285
DOCKED: USER    NEWDPF axisangle0 -0.333627 0.758272 -0.560104 -156.307623
DOCKED: USER    NEWDPF quat0 -0.333627 0.758272 -0.560104 -156.307623
DOCKED: USER    NEWDPF dihe0 -1.19 116.71 94.81 -99.27 -138.75 170.43 157.38 
DOCKED: USER  keepresnum = 1 
DOCKED: USER  
DOCKED: REMARK  Name = 
DOCKED: REMARK  7 active torsions:
DOCKED: REMARK  status: ('A' for Active; 'I' for Inactive)
DOCKED: REMARK    1  A    between atoms: C_2  and  C_5
DOCKED: REMARK    2  A    between atoms: N_3  and  O_4
DOCKED: REMARK    3  A    between atoms: C_5  and  C_6
DOCKED: REMARK    4  A    between atoms: C_6  and  C_7
DOCKED: REMARK    5  A    between atoms: C_7  and  C_8
DOCKED: REMARK    6  A    between atoms: C_8  and  C_9
DOCKED: REMARK    7  A    between atoms: C_9  and  N_10
DOCKED: REMARK                            x       y       z     vdW  Elec       q    Type
DOCKED: REMARK                         _______ _______ _______ _____ _____    ______ ____
DOCKED: USER                              x       y       z     vdW  Elec       q    Type
DOCKED: USER                           _______ _______ _______ _____ _____    ______ ____
DOCKED: ROOT
DOCKED: ATOM      1  N   UNL     1      26.004 -15.617  -3.113 -0.47 -0.00    +0.000 N 
DOCKED: ATOM      2  C   UNL     1      25.718 -14.392  -3.816 -0.53 -0.00    +0.000 C 
DOCKED: ATOM      3  C   UNL     1      26.813 -13.634  -4.463 -0.32 -0.00    +0.000 A 
DOCKED: ATOM      4  C   UNL     1      26.541 -12.451  -5.172 -0.19 -0.00    +0.000 A 
DOCKED: ATOM      5  C   UNL     1      27.574 -11.738  -5.784 -0.15 -0.00    +0.000 A 
DOCKED: ATOM      6  C   UNL     1      28.889 -12.191  -5.698 -0.11 -0.00    +0.000 A 
DOCKED: ATOM      7  C   UNL     1      29.187 -13.367  -4.996 -0.12 -0.00    +0.000 A 
DOCKED: ATOM      8  C   UNL     1      30.510 -13.822  -4.908 -0.06 -0.00    +0.000 A 
DOCKED: ATOM      9  C   UNL     1      30.805 -14.992  -4.209 -0.07 -0.00    +0.000 A 
DOCKED: ATOM     10  C   UNL     1      29.787 -15.718  -3.590 -0.15 -0.00    +0.000 A 
DOCKED: ATOM     11  C   UNL     1      28.452 -15.283  -3.664 -0.23 -0.00    +0.000 A 
DOCKED: ATOM     12  C   UNL     1      28.144 -14.100  -4.371 -0.21 -0.00    +0.000 A 
DOCKED: ATOM     13  O   UNL     1      24.534 -13.961  -3.879 -1.04 -0.00    +0.000 OA
DOCKED: ATOM     14  C   UNL     1      27.373 -16.057  -3.007 -0.28 -0.00    +0.000 C 
DOCKED: ATOM     15  O   UNL     1      27.656 -17.098  -2.355 -0.33 -0.00    +0.000 OA
DOCKED: ENDROOT
DOCKED: BRANCH   1  16
DOCKED: ATOM     16  C   UNL     1      24.904 -16.418  -2.547 -0.35 -0.00    +0.000 C 
DOCKED: BRANCH  16  17
DOCKED: ATOM     17  C   UNL     1      25.131 -16.711  -1.053 -0.61 -0.00    +0.000 C 
DOCKED: BRANCH  17  18
DOCKED: ATOM     18  C   UNL     1      25.073 -18.206  -0.687 -0.72 -0.00    +0.000 C 
DOCKED: BRANCH  18  19
DOCKED: ATOM     19  C   UNL     1      23.670 -18.841  -0.781 -0.79 -0.00    +0.000 C 
DOCKED: BRANCH  19  20
DOCKED: ATOM     20  C   UNL     1      22.515 -17.889  -0.428 -0.82 -0.00    +0.000 C 
DOCKED: BRANCH  20  22
DOCKED: ATOM     21  O   UNL     1      20.245 -17.524  -1.081 -2.02 -0.00    +0.000 OA
DOCKED: ATOM     22  C   UNL     1      21.217 -18.327  -1.041 -0.71 -0.00    +0.000 C 
DOCKED: ATOM     23  N   UNL     1      21.066 -19.656  -1.546 -0.72 -0.00    +0.000 N 
DOCKED: ATOM     24  H   UNL     1      21.824 -20.282  -1.506 -0.34 -0.00    +0.000 HD
DOCKED: BRANCH  23  25
DOCKED: ATOM     25  O   UNL     1      19.888 -20.059  -2.081 -1.79 -0.00    +0.000 OA
DOCKED: ATOM     26  H   UNL     1      19.244 -19.336  -2.029 -0.46 -0.00    +0.000 HD
DOCKED: ENDBRANCH  23  25
DOCKED: ENDBRANCH  20  22
DOCKED: ENDBRANCH  19  20
DOCKED: ENDBRANCH  18  19
DOCKED: ENDBRANCH  17  18
DOCKED: ENDBRANCH  16  17
DOCKED: ENDBRANCH   1  16
DOCKED: TORSDOF 7
DOCKED: TER
DOCKED: ENDMDL
________________________________________________________________________________


	BEGINNING GENETIC ALGORITHM DOCKING 46 of 100
Run: 46 Seed: 353534389 1193598565 [ Run 46 of 100 GA/GALS ]
Beginning LAMARCKIAN GENETIC ALGORITHM (LGA), with a maximum of 2500000 energy evaluations.

Final-Value: -13.965


	FINAL GENETIC ALGORITHM DOCKED STATE
	_______________________________________________


Detailed state:  trans 25.587 -14.659 -1.588 quatxyzw 0.499807 -0.621726 -0.602709 -0.019807 center 0.154 0.112 -0.159 ntor 7 -7.6641 160.6015 60.3790 146.6942 154.6863 -118.8164 9.6272
State:	 25.587 -14.659  -1.588   0.500 -0.622 -0.603 -177.730     -7.66  160.60   60.38  146.69  154.69 -118.82    9.63

DOCKED: MODEL       46
DOCKED: USER    Run = 46
DOCKED: USER    DPF = ligand_dock.biased.dpf
DOCKED: USER  
DOCKED: USER    Estimated Free Energy of Binding    =  -10.59 kcal/mol  [=(1)+(2)+(3)-(4)]
DOCKED: USER    Estimated Inhibition Constant, Ki   =   17.38 nM (nanomolar)  [Temperature = 298.15 K]
DOCKED: USER    
DOCKED: USER    (1) Final Intermolecular Energy     =  -12.67 kcal/mol
DOCKED: USER        vdW + Hbond + desolv Energy     =  -12.67 kcal/mol
DOCKED: USER        Electrostatic Energy            =   +0.00 kcal/mol
DOCKED: USER    (2) Final Total Internal Energy     =   -1.29 kcal/mol
DOCKED: USER    (3) Torsional Free Energy           =   +2.09 kcal/mol
DOCKED: USER    (4) Unbound System's Energy  [=(2)] =   -1.29 kcal/mol
DOCKED: USER    
DOCKED: USER    
DOCKED: USER    NEWDPF move ligand.pdbqt
DOCKED: USER    NEWDPF about 0.154000 0.112000 -0.159000
DOCKED: USER    NEWDPF tran0 25.586853 -14.658571 -1.587913
DOCKED: USER    NEWDPF quaternion0 0.499807 -0.621726 -0.602709 -0.019807
DOCKED: USER    NEWDPF axisangle0 0.499905 -0.621848 -0.602827 -177.730141
DOCKED: USER    NEWDPF quat0 0.499905 -0.621848 -0.602827 -177.730141
DOCKED: USER    NEWDPF dihe0 -7.66 160.60 60.38 146.69 154.69 -118.82 9.63 
DOCKED: USER  keepresnum = 1 
DOCKED: USER  
DOCKED: REMARK  Name = 
DOCKED: REMARK  7 active torsions:
DOCKED: REMARK  status: ('A' for Active; 'I' for Inactive)
DOCKED: REMARK    1  A    between atoms: C_2  and  C_5
DOCKED: REMARK    2  A    between atoms: N_3  and  O_4
DOCKED: REMARK    3  A    between atoms: C_5  and  C_6
DOCKED: REMARK    4  A    between atoms: C_6  and  C_7
DOCKED: REMARK    5  A    between atoms: C_7  and  C_8
DOCKED: REMARK    6  A    between atoms: C_8  and  C_9
DOCKED: REMARK    7  A    between atoms: C_9  and  N_10
DOCKED: REMARK                            x       y       z     vdW  Elec       q    Type
DOCKED: REMARK                         _______ _______ _______ _____ _____    ______ ____
DOCKED: USER                              x       y       z     vdW  Elec       q    Type
DOCKED: USER                           _______ _______ _______ _____ _____    ______ ____
DOCKED: ROOT
DOCKED: ATOM      1  N   UNL     1      27.074 -14.843  -1.617 -0.25 -0.00    +0.000 N 
DOCKED: ATOM      2  C   UNL     1      27.350 -15.191  -0.246 -0.32 -0.00    +0.000 C 
DOCKED: ATOM      3  C   UNL     1      27.481 -14.129   0.778 -0.25 -0.00    +0.000 A 
DOCKED: ATOM      4  C   UNL     1      27.725 -14.459   2.122 -0.22 -0.00    +0.000 A 
DOCKED: ATOM      5  C   UNL     1      27.845 -13.458   3.087 -0.32 -0.00    +0.000 A 
DOCKED: ATOM      6  C   UNL     1      27.724 -12.116   2.728 -0.23 -0.00    +0.000 A 
DOCKED: ATOM      7  C   UNL     1      27.481 -11.761   1.395 -0.19 +0.00    +0.000 A 
DOCKED: ATOM      8  C   UNL     1      27.361 -10.412   1.034 -0.18 +0.00    +0.000 A 
DOCKED: ATOM      9  C   UNL     1      27.120 -10.059  -0.294 -0.14 +0.00    +0.000 A 
DOCKED: ATOM     10  C   UNL     1      26.997 -11.046  -1.274 -0.05 -0.00    +0.000 A 
DOCKED: ATOM     11  C   UNL     1      27.114 -12.405  -0.937 -0.11 -0.00    +0.000 A 
DOCKED: ATOM     12  C   UNL     1      27.357 -12.772   0.406 -0.19 -0.00    +0.000 A 
DOCKED: ATOM     13  O   UNL     1      27.485 -16.401   0.084 -0.41 -0.00    +0.000 OA
DOCKED: ATOM     14  C   UNL     1      26.982 -13.451  -1.978 -0.21 -0.00    +0.000 C 
DOCKED: ATOM     15  O   UNL     1      26.791 -13.118  -3.179 -0.24 -0.00    +0.000 OA
DOCKED: ENDROOT
DOCKED: BRANCH   1  16
DOCKED: ATOM     16  C   UNL     1      26.855 -15.902  -2.618 -0.40 -0.00    +0.000 C 
DOCKED: BRANCH  16  17
DOCKED: ATOM     17  C   UNL     1      25.388 -16.367  -2.636 -0.54 -0.00    +0.000 C 
DOCKED: BRANCH  17  18
DOCKED: ATOM     18  C   UNL     1      24.856 -16.831  -1.268 -0.64 -0.00    +0.000 C 
DOCKED: BRANCH  18  19
DOCKED: ATOM     19  C   UNL     1      24.019 -18.127  -1.305 -0.77 -0.00    +0.000 C 
DOCKED: BRANCH  19  20
DOCKED: ATOM     20  C   UNL     1      22.891 -18.188  -0.262 -0.81 -0.00    +0.000 C 
DOCKED: BRANCH  20  22
DOCKED: ATOM     21  O   UNL     1      20.634 -17.540  -0.706 -2.12 +0.00    +0.000 OA
DOCKED: ATOM     22  C   UNL     1      21.546 -18.388  -0.897 -0.80 -0.00    +0.000 C 
DOCKED: ATOM     23  N   UNL     1      21.284 -19.551  -1.686 -0.62 -0.00    +0.000 N 
DOCKED: ATOM     24  H   UNL     1      21.996 -20.217  -1.827 -0.46 -0.00    +0.000 HD
DOCKED: BRANCH  23  25
DOCKED: ATOM     25  O   UNL     1      20.065 -19.745  -2.243 -1.86 -0.00    +0.000 OA
DOCKED: ATOM     26  H   UNL     1      19.448 -19.072  -1.915 -0.35 -0.00    +0.000 HD
DOCKED: ENDBRANCH  23  25
DOCKED: ENDBRANCH  20  22
DOCKED: ENDBRANCH  19  20
DOCKED: ENDBRANCH  18  19
DOCKED: ENDBRANCH  17  18
DOCKED: ENDBRANCH  16  17
DOCKED: ENDBRANCH   1  16
DOCKED: TORSDOF 7
DOCKED: TER
DOCKED: ENDMDL
________________________________________________________________________________


	BEGINNING GENETIC ALGORITHM DOCKING 47 of 100
Run: 47 Seed: 630034988 1484675154 [ Run 47 of 100 GA/GALS ]
Beginning LAMARCKIAN GENETIC ALGORITHM (LGA), with a maximum of 2500000 energy evaluations.

Final-Value: -14.970


	FINAL GENETIC ALGORITHM DOCKED STATE
	_______________________________________________


Detailed state:  trans 26.560 -16.893 -2.753 quatxyzw 0.521006 -0.767280 0.346463 -0.140704 center 0.154 0.112 -0.159 ntor 7 1.5583 -127.3089 170.4576 -131.9411 173.2303 -106.9298 13.0386
State:	 26.560 -16.893  -2.753   0.526 -0.775  0.350 -163.823      1.56 -127.31  170.46 -131.94  173.23 -106.93   13.04

DOCKED: MODEL       47
DOCKED: USER    Run = 47
DOCKED: USER    DPF = ligand_dock.biased.dpf
DOCKED: USER  
DOCKED: USER    Estimated Free Energy of Binding    =  -11.55 kcal/mol  [=(1)+(2)+(3)-(4)]
DOCKED: USER    Estimated Inhibition Constant, Ki   =    3.44 nM (nanomolar)  [Temperature = 298.15 K]
DOCKED: USER    
DOCKED: USER    (1) Final Intermolecular Energy     =  -13.63 kcal/mol
DOCKED: USER        vdW + Hbond + desolv Energy     =  -13.63 kcal/mol
DOCKED: USER        Electrostatic Energy            =   +0.00 kcal/mol
DOCKED: USER    (2) Final Total Internal Energy     =   -1.34 kcal/mol
DOCKED: USER    (3) Torsional Free Energy           =   +2.09 kcal/mol
DOCKED: USER    (4) Unbound System's Energy  [=(2)] =   -1.34 kcal/mol
DOCKED: USER    
DOCKED: USER    
DOCKED: USER    NEWDPF move ligand.pdbqt
DOCKED: USER    NEWDPF about 0.154000 0.112000 -0.159000
DOCKED: USER    NEWDPF tran0 26.559818 -16.892516 -2.753472
DOCKED: USER    NEWDPF quaternion0 0.521006 -0.767280 0.346463 -0.140704
DOCKED: USER    NEWDPF axisangle0 0.526242 -0.774989 0.349945 -163.822802
DOCKED: USER    NEWDPF quat0 0.526242 -0.774989 0.349945 -163.822802
DOCKED: USER    NEWDPF dihe0 1.56 -127.31 170.46 -131.94 173.23 -106.93 13.04 
DOCKED: USER  keepresnum = 1 
DOCKED: USER  
DOCKED: REMARK  Name = 
DOCKED: REMARK  7 active torsions:
DOCKED: REMARK  status: ('A' for Active; 'I' for Inactive)
DOCKED: REMARK    1  A    between atoms: C_2  and  C_5
DOCKED: REMARK    2  A    between atoms: N_3  and  O_4
DOCKED: REMARK    3  A    between atoms: C_5  and  C_6
DOCKED: REMARK    4  A    between atoms: C_6  and  C_7
DOCKED: REMARK    5  A    between atoms: C_7  and  C_8
DOCKED: REMARK    6  A    between atoms: C_8  and  C_9
DOCKED: REMARK    7  A    between atoms: C_9  and  N_10
DOCKED: REMARK                            x       y       z     vdW  Elec       q    Type
DOCKED: REMARK                         _______ _______ _______ _____ _____    ______ ____
DOCKED: USER                              x       y       z     vdW  Elec       q    Type
DOCKED: USER                           _______ _______ _______ _____ _____    ______ ____
DOCKED: ROOT
DOCKED: ATOM      1  N   UNL     1      27.439 -15.937  -2.006 -0.29 -0.00    +0.000 N 
DOCKED: ATOM      2  C   UNL     1      26.749 -14.688  -2.209 -0.33 -0.00    +0.000 C 
DOCKED: ATOM      3  C   UNL     1      26.949 -13.925  -3.462 -0.27 -0.00    +0.000 A 
DOCKED: ATOM      4  C   UNL     1      26.261 -12.718  -3.681 -0.22 -0.00    +0.000 A 
DOCKED: ATOM      5  C   UNL     1      26.447 -12.000  -4.863 -0.25 -0.00    +0.000 A 
DOCKED: ATOM      6  C   UNL     1      27.319 -12.472  -5.844 -0.16 -0.00    +0.000 A 
DOCKED: ATOM      7  C   UNL     1      28.017 -13.672  -5.649 -0.26 -0.00    +0.000 A 
DOCKED: ATOM      8  C   UNL     1      28.895 -14.146  -6.634 -0.32 -0.00    +0.000 A 
DOCKED: ATOM      9  C   UNL     1      29.589 -15.340  -6.440 -0.32 -0.00    +0.000 A 
DOCKED: ATOM     10  C   UNL     1      29.417 -16.071  -5.264 -0.29 -0.00    +0.000 A 
DOCKED: ATOM     11  C   UNL     1      28.542 -15.617  -4.261 -0.28 -0.00    +0.000 A 
DOCKED: ATOM     12  C   UNL     1      27.834 -14.410  -4.450 -0.28 -0.00    +0.000 A 
DOCKED: ATOM     13  O   UNL     1      25.976 -14.240  -1.318 -0.35 -0.00    +0.000 OA
DOCKED: ATOM     14  C   UNL     1      28.361 -16.396  -3.015 -0.24 -0.00    +0.000 C 
DOCKED: ATOM     15  O   UNL     1      29.015 -17.460  -2.839 -0.18 -0.00    +0.000 OA
DOCKED: ENDROOT
DOCKED: BRANCH   1  16
DOCKED: ATOM     16  C   UNL     1      27.173 -16.740  -0.800 -0.46 -0.00    +0.000 C 
DOCKED: BRANCH  16  17
DOCKED: ATOM     17  C   UNL     1      26.007 -17.720  -1.021 -0.59 -0.00    +0.000 C 
DOCKED: BRANCH  17  18
DOCKED: ATOM     18  C   UNL     1      24.803 -17.112  -1.764 -0.66 -0.00    +0.000 C 
DOCKED: BRANCH  18  19
DOCKED: ATOM     19  C   UNL     1      23.490 -17.085  -0.953 -0.68 -0.00    +0.000 C 
DOCKED: BRANCH  19  20
DOCKED: ATOM     20  C   UNL     1      22.912 -18.472  -0.629 -0.83 -0.00    +0.000 C 
DOCKED: BRANCH  20  22
DOCKED: ATOM     21  O   UNL     1      20.651 -17.701  -0.708 -2.23 -0.00    +0.000 OA
DOCKED: ATOM     22  C   UNL     1      21.474 -18.594  -1.043 -0.80 -0.00    +0.000 C 
DOCKED: ATOM     23  N   UNL     1      21.029 -19.733  -1.784 -0.67 -0.00    +0.000 N 
DOCKED: ATOM     24  H   UNL     1      21.673 -20.434  -2.037 -0.48 -0.00    +0.000 HD
DOCKED: BRANCH  23  25
DOCKED: ATOM     25  O   UNL     1      19.727 -19.856  -2.140 -1.70 -0.00    +0.000 OA
DOCKED: ATOM     26  H   UNL     1      19.234 -19.078  -1.838 -0.49 -0.00    +0.000 HD
DOCKED: ENDBRANCH  23  25
DOCKED: ENDBRANCH  20  22
DOCKED: ENDBRANCH  19  20
DOCKED: ENDBRANCH  18  19
DOCKED: ENDBRANCH  17  18
DOCKED: ENDBRANCH  16  17
DOCKED: ENDBRANCH   1  16
DOCKED: TORSDOF 7
DOCKED: TER
DOCKED: ENDMDL
________________________________________________________________________________


	BEGINNING GENETIC ALGORITHM DOCKING 48 of 100
Run: 48 Seed: 551306651 1765136521 [ Run 48 of 100 GA/GALS ]
Beginning LAMARCKIAN GENETIC ALGORITHM (LGA), with a maximum of 2500000 energy evaluations.

Final-Value: -15.194


	FINAL GENETIC ALGORITHM DOCKED STATE
	_______________________________________________


Detailed state:  trans 26.127 -17.008 -2.363 quatxyzw -0.176633 0.557470 -0.809256 0.055968 center 0.154 0.112 -0.159 ntor 7 -9.7412 144.3541 54.9895 -102.9044 92.7868 -19.2135 18.9463
State:	 26.127 -17.008  -2.363  -0.177  0.558 -0.811 173.583     -9.74  144.35   54.99 -102.90   92.79  -19.21   18.95

DOCKED: MODEL       48
DOCKED: USER    Run = 48
DOCKED: USER    DPF = ligand_dock.biased.dpf
DOCKED: USER  
DOCKED: USER    Estimated Free Energy of Binding    =  -11.76 kcal/mol  [=(1)+(2)+(3)-(4)]
DOCKED: USER    Estimated Inhibition Constant, Ki   =    2.39 nM (nanomolar)  [Temperature = 298.15 K]
DOCKED: USER    
DOCKED: USER    (1) Final Intermolecular Energy     =  -13.85 kcal/mol
DOCKED: USER        vdW + Hbond + desolv Energy     =  -13.85 kcal/mol
DOCKED: USER        Electrostatic Energy            =   +0.00 kcal/mol
DOCKED: USER    (2) Final Total Internal Energy     =   -1.34 kcal/mol
DOCKED: USER    (3) Torsional Free Energy           =   +2.09 kcal/mol
DOCKED: USER    (4) Unbound System's Energy  [=(2)] =   -1.34 kcal/mol
DOCKED: USER    
DOCKED: USER    
DOCKED: USER    NEWDPF move ligand.pdbqt
DOCKED: USER    NEWDPF about 0.154000 0.112000 -0.159000
DOCKED: USER    NEWDPF tran0 26.126559 -17.007719 -2.362749
DOCKED: USER    NEWDPF quaternion0 -0.176633 0.557470 -0.809256 0.055968
DOCKED: USER    NEWDPF axisangle0 -0.176910 0.558345 -0.810527 173.583136
DOCKED: USER    NEWDPF quat0 -0.176910 0.558345 -0.810527 173.583136
DOCKED: USER    NEWDPF dihe0 -9.74 144.35 54.99 -102.90 92.79 -19.21 18.95 
DOCKED: USER  keepresnum = 1 
DOCKED: USER  
DOCKED: REMARK  Name = 
DOCKED: REMARK  7 active torsions:
DOCKED: REMARK  status: ('A' for Active; 'I' for Inactive)
DOCKED: REMARK    1  A    between atoms: C_2  and  C_5
DOCKED: REMARK    2  A    between atoms: N_3  and  O_4
DOCKED: REMARK    3  A    between atoms: C_5  and  C_6
DOCKED: REMARK    4  A    between atoms: C_6  and  C_7
DOCKED: REMARK    5  A    between atoms: C_7  and  C_8
DOCKED: REMARK    6  A    between atoms: C_8  and  C_9
DOCKED: REMARK    7  A    between atoms: C_9  and  N_10
DOCKED: REMARK                            x       y       z     vdW  Elec       q    Type
DOCKED: REMARK                         _______ _______ _______ _____ _____    ______ ____
DOCKED: USER                              x       y       z     vdW  Elec       q    Type
DOCKED: USER                           _______ _______ _______ _____ _____    ______ ____
DOCKED: ROOT
DOCKED: ATOM      1  N   UNL     1      26.705 -15.643  -2.142 -0.34 -0.00    +0.000 N 
DOCKED: ATOM      2  C   UNL     1      26.905 -15.190  -3.495 -0.42 -0.00    +0.000 C 
DOCKED: ATOM      3  C   UNL     1      28.113 -15.603  -4.246 -0.30 -0.00    +0.000 A 
DOCKED: ATOM      4  C   UNL     1      28.305 -15.187  -5.575 -0.37 -0.00    +0.000 A 
DOCKED: ATOM      5  C   UNL     1      29.442 -15.580  -6.283 -0.33 -0.00    +0.000 A 
DOCKED: ATOM      6  C   UNL     1      30.402 -16.390  -5.680 -0.25 -0.00    +0.000 A 
DOCKED: ATOM      7  C   UNL     1      30.234 -16.818  -4.356 -0.22 -0.00    +0.000 A 
DOCKED: ATOM      8  C   UNL     1      31.201 -17.631  -3.748 -0.15 -0.00    +0.000 A 
DOCKED: ATOM      9  C   UNL     1      31.033 -18.056  -2.430 -0.15 -0.00    +0.000 A 
DOCKED: ATOM     10  C   UNL     1      29.904 -17.674  -1.706 -0.16 -0.00    +0.000 A 
DOCKED: ATOM     11  C   UNL     1      28.920 -16.858  -2.292 -0.22 -0.00    +0.000 A 
DOCKED: ATOM     12  C   UNL     1      29.081 -16.424  -3.627 -0.21 -0.00    +0.000 A 
DOCKED: ATOM     13  O   UNL     1      26.053 -14.436  -4.042 -0.53 -0.00    +0.000 OA
DOCKED: ATOM     14  C   UNL     1      27.721 -16.455  -1.521 -0.37 -0.00    +0.000 C 
DOCKED: ATOM     15  O   UNL     1      27.595 -16.823  -0.322 -0.43 -0.00    +0.000 OA
DOCKED: ENDROOT
DOCKED: BRANCH   1  16
DOCKED: ATOM     16  C   UNL     1      25.462 -15.306  -1.426 -0.37 -0.00    +0.000 C 
DOCKED: BRANCH  16  17
DOCKED: ATOM     17  C   UNL     1      24.420 -16.432  -1.544 -0.52 -0.00    +0.000 C 
DOCKED: BRANCH  17  18
DOCKED: ATOM     18  C   UNL     1      24.991 -17.846  -1.327 -0.67 -0.00    +0.000 C 
DOCKED: BRANCH  18  19
DOCKED: ATOM     19  C   UNL     1      23.937 -18.926  -1.003 -0.73 -0.00    +0.000 C 
DOCKED: BRANCH  19  20
DOCKED: ATOM     20  C   UNL     1      22.779 -18.441  -0.116 -0.79 -0.00    +0.000 C 
DOCKED: BRANCH  20  22
DOCKED: ATOM     21  O   UNL     1      20.632 -17.574  -0.709 -2.15 +0.00    +0.000 OA
DOCKED: ATOM     22  C   UNL     1      21.457 -18.520  -0.823 -0.83 -0.00    +0.000 C 
DOCKED: ATOM     23  N   UNL     1      21.116 -19.675  -1.593 -0.68 -0.00    +0.000 N 
DOCKED: ATOM     24  H   UNL     1      21.759 -20.416  -1.674 -0.37 -0.00    +0.000 HD
DOCKED: BRANCH  23  25
DOCKED: ATOM     25  O   UNL     1      19.915 -19.758  -2.214 -1.88 -0.00    +0.000 OA
DOCKED: ATOM     26  H   UNL     1      19.345 -19.032  -1.916 -0.41 -0.00    +0.000 HD
DOCKED: ENDBRANCH  23  25
DOCKED: ENDBRANCH  20  22
DOCKED: ENDBRANCH  19  20
DOCKED: ENDBRANCH  18  19
DOCKED: ENDBRANCH  17  18
DOCKED: ENDBRANCH  16  17
DOCKED: ENDBRANCH   1  16
DOCKED: TORSDOF 7
DOCKED: TER
DOCKED: ENDMDL
________________________________________________________________________________


	BEGINNING GENETIC ALGORITHM DOCKING 49 of 100
Run: 49 Seed: 1162359288 948850300 [ Run 49 of 100 GA/GALS ]
Beginning LAMARCKIAN GENETIC ALGORITHM (LGA), with a maximum of 2500000 energy evaluations.

Final-Value: -14.079


	FINAL GENETIC ALGORITHM DOCKED STATE
	_______________________________________________


Detailed state:  trans 28.111 -15.768 -2.423 quatxyzw -0.427649 0.329233 -0.506290 -0.672601 center 0.154 0.112 -0.159 ntor 7 -18.9706 -154.9420 -172.9331 145.4355 -175.0535 57.6362 157.6757
State:	 28.111 -15.768  -2.423  -0.578  0.445 -0.684 -95.464    -18.97 -154.94 -172.93  145.44 -175.05   57.64  157.68

DOCKED: MODEL       49
DOCKED: USER    Run = 49
DOCKED: USER    DPF = ligand_dock.biased.dpf
DOCKED: USER  
DOCKED: USER    Estimated Free Energy of Binding    =  -10.82 kcal/mol  [=(1)+(2)+(3)-(4)]
DOCKED: USER    Estimated Inhibition Constant, Ki   =   11.76 nM (nanomolar)  [Temperature = 298.15 K]
DOCKED: USER    
DOCKED: USER    (1) Final Intermolecular Energy     =  -12.91 kcal/mol
DOCKED: USER        vdW + Hbond + desolv Energy     =  -12.91 kcal/mol
DOCKED: USER        Electrostatic Energy            =   +0.00 kcal/mol
DOCKED: USER    (2) Final Total Internal Energy     =   -1.17 kcal/mol
DOCKED: USER    (3) Torsional Free Energy           =   +2.09 kcal/mol
DOCKED: USER    (4) Unbound System's Energy  [=(2)] =   -1.17 kcal/mol
DOCKED: USER    
DOCKED: USER    
DOCKED: USER    NEWDPF move ligand.pdbqt
DOCKED: USER    NEWDPF about 0.154000 0.112000 -0.159000
DOCKED: USER    NEWDPF tran0 28.111396 -15.767543 -2.423048
DOCKED: USER    NEWDPF quaternion0 -0.427649 0.329233 -0.506290 -0.672601
DOCKED: USER    NEWDPF axisangle0 -0.577900 0.444906 -0.684171 -95.463724
DOCKED: USER    NEWDPF quat0 -0.577900 0.444906 -0.684171 -95.463724
DOCKED: USER    NEWDPF dihe0 -18.97 -154.94 -172.93 145.44 -175.05 57.64 157.68 
DOCKED: USER  keepresnum = 1 
DOCKED: USER  
DOCKED: REMARK  Name = 
DOCKED: REMARK  7 active torsions:
DOCKED: REMARK  status: ('A' for Active; 'I' for Inactive)
DOCKED: REMARK    1  A    between atoms: C_2  and  C_5
DOCKED: REMARK    2  A    between atoms: N_3  and  O_4
DOCKED: REMARK    3  A    between atoms: C_5  and  C_6
DOCKED: REMARK    4  A    between atoms: C_6  and  C_7
DOCKED: REMARK    5  A    between atoms: C_7  and  C_8
DOCKED: REMARK    6  A    between atoms: C_8  and  C_9
DOCKED: REMARK    7  A    between atoms: C_9  and  N_10
DOCKED: REMARK                            x       y       z     vdW  Elec       q    Type
DOCKED: REMARK                         _______ _______ _______ _____ _____    ______ ____
DOCKED: USER                              x       y       z     vdW  Elec       q    Type
DOCKED: USER                           _______ _______ _______ _____ _____    ______ ____
DOCKED: ROOT
DOCKED: ATOM      1  N   UNL     1      26.672 -15.545  -2.070 -0.33 -0.00    +0.000 N 
DOCKED: ATOM      2  C   UNL     1      26.167 -14.941  -3.277 -0.49 -0.00    +0.000 C 
DOCKED: ATOM      3  C   UNL     1      26.353 -13.492  -3.517 -0.30 -0.00    +0.000 A 
DOCKED: ATOM      4  C   UNL     1      25.886 -12.899  -4.703 -0.20 -0.00    +0.000 A 
DOCKED: ATOM      5  C   UNL     1      26.065 -11.533  -4.930 -0.27 -0.00    +0.000 A 
DOCKED: ATOM      6  C   UNL     1      26.710 -10.741  -3.982 -0.15 -0.00    +0.000 A 
DOCKED: ATOM      7  C   UNL     1      27.185 -11.308  -2.792 -0.10 -0.00    +0.000 A 
DOCKED: ATOM      8  C   UNL     1      27.832 -10.511  -1.838 -0.08 -0.00    +0.000 A 
DOCKED: ATOM      9  C   UNL     1      28.304 -11.076  -0.653 -0.07 -0.00    +0.000 A 
DOCKED: ATOM     10  C   UNL     1      28.134 -12.439  -0.407 -0.10 -0.00    +0.000 A 
DOCKED: ATOM     11  C   UNL     1      27.488 -13.260  -1.348 -0.15 -0.00    +0.000 A 
DOCKED: ATOM     12  C   UNL     1      27.008 -12.696  -2.551 -0.13 -0.00    +0.000 A 
DOCKED: ATOM     13  O   UNL     1      25.560 -15.647  -4.129 -0.75 -0.00    +0.000 OA
DOCKED: ATOM     14  C   UNL     1      27.310 -14.707  -1.085 -0.27 -0.00    +0.000 C 
DOCKED: ATOM     15  O   UNL     1      27.716 -15.201   0.001 -0.30 -0.00    +0.000 OA
DOCKED: ENDROOT
DOCKED: BRANCH   1  16
DOCKED: ATOM     16  C   UNL     1      26.566 -17.001  -1.871 -0.41 -0.00    +0.000 C 
DOCKED: BRANCH  16  17
DOCKED: ATOM     17  C   UNL     1      25.877 -17.340  -0.537 -0.61 -0.00    +0.000 C 
DOCKED: BRANCH  17  18
DOCKED: ATOM     18  C   UNL     1      24.601 -18.189  -0.683 -0.76 -0.00    +0.000 C 
DOCKED: BRANCH  18  19
DOCKED: ATOM     19  C   UNL     1      23.282 -17.419  -0.454 -0.71 -0.00    +0.000 C 
DOCKED: BRANCH  19  20
DOCKED: ATOM     20  C   UNL     1      22.147 -18.264   0.146 -0.75 -0.00    +0.000 C 
DOCKED: BRANCH  20  22
DOCKED: ATOM     21  O   UNL     1      20.214 -17.577  -1.080 -2.00 -0.00    +0.000 OA
DOCKED: ATOM     22  C   UNL     1      21.038 -18.500  -0.838 -0.79 -0.00    +0.000 C 
DOCKED: ATOM     23  N   UNL     1      20.892 -19.772  -1.473 -0.73 -0.00    +0.000 N 
DOCKED: ATOM     24  H   UNL     1      21.533 -20.493  -1.276 -0.22 -0.00    +0.000 HD
DOCKED: BRANCH  23  25
DOCKED: ATOM     25  O   UNL     1      19.879 -19.993  -2.346 -1.75 -0.00    +0.000 OA
DOCKED: ATOM     26  H   UNL     1      19.186 -19.328  -2.212 -0.47 -0.00    +0.000 HD
DOCKED: ENDBRANCH  23  25
DOCKED: ENDBRANCH  20  22
DOCKED: ENDBRANCH  19  20
DOCKED: ENDBRANCH  18  19
DOCKED: ENDBRANCH  17  18
DOCKED: ENDBRANCH  16  17
DOCKED: ENDBRANCH   1  16
DOCKED: TORSDOF 7
DOCKED: TER
DOCKED: ENDMDL
________________________________________________________________________________


	BEGINNING GENETIC ALGORITHM DOCKING 50 of 100
Run: 50 Seed: 2112096548 1899986470 [ Run 50 of 100 GA/GALS ]
Beginning LAMARCKIAN GENETIC ALGORITHM (LGA), with a maximum of 2500000 energy evaluations.

Final-Value: -13.871


	FINAL GENETIC ALGORITHM DOCKED STATE
	_______________________________________________


Detailed state:  trans 27.315 -15.409 -4.279 quatxyzw -0.522607 0.608753 -0.418260 -0.425864 center 0.154 0.112 -0.159 ntor 7 -3.5828 -142.1784 56.2387 55.8059 -22.4783 41.7852 -177.5217
State:	 27.315 -15.409  -4.279  -0.578  0.673 -0.462 -129.589     -3.58 -142.18   56.24   55.81  -22.48   41.79 -177.52

DOCKED: MODEL       50
DOCKED: USER    Run = 50
DOCKED: USER    DPF = ligand_dock.biased.dpf
DOCKED: USER  
DOCKED: USER    Estimated Free Energy of Binding    =  -10.50 kcal/mol  [=(1)+(2)+(3)-(4)]
DOCKED: USER    Estimated Inhibition Constant, Ki   =   19.96 nM (nanomolar)  [Temperature = 298.15 K]
DOCKED: USER    
DOCKED: USER    (1) Final Intermolecular Energy     =  -12.59 kcal/mol
DOCKED: USER        vdW + Hbond + desolv Energy     =  -12.59 kcal/mol
DOCKED: USER        Electrostatic Energy            =   +0.00 kcal/mol
DOCKED: USER    (2) Final Total Internal Energy     =   -1.28 kcal/mol
DOCKED: USER    (3) Torsional Free Energy           =   +2.09 kcal/mol
DOCKED: USER    (4) Unbound System's Energy  [=(2)] =   -1.28 kcal/mol
DOCKED: USER    
DOCKED: USER    
DOCKED: USER    NEWDPF move ligand.pdbqt
DOCKED: USER    NEWDPF about 0.154000 0.112000 -0.159000
DOCKED: USER    NEWDPF tran0 27.315133 -15.408597 -4.278587
DOCKED: USER    NEWDPF quaternion0 -0.522607 0.608753 -0.418260 -0.425864
DOCKED: USER    NEWDPF axisangle0 -0.577602 0.672813 -0.462275 -129.589333
DOCKED: USER    NEWDPF quat0 -0.577602 0.672813 -0.462275 -129.589333
DOCKED: USER    NEWDPF dihe0 -3.58 -142.18 56.24 55.81 -22.48 41.79 -177.52 
DOCKED: USER  keepresnum = 1 
DOCKED: USER  
DOCKED: REMARK  Name = 
DOCKED: REMARK  7 active torsions:
DOCKED: REMARK  status: ('A' for Active; 'I' for Inactive)
DOCKED: REMARK    1  A    between atoms: C_2  and  C_5
DOCKED: REMARK    2  A    between atoms: N_3  and  O_4
DOCKED: REMARK    3  A    between atoms: C_5  and  C_6
DOCKED: REMARK    4  A    between atoms: C_6  and  C_7
DOCKED: REMARK    5  A    between atoms: C_7  and  C_8
DOCKED: REMARK    6  A    between atoms: C_8  and  C_9
DOCKED: REMARK    7  A    between atoms: C_9  and  N_10
DOCKED: REMARK                            x       y       z     vdW  Elec       q    Type
DOCKED: REMARK                         _______ _______ _______ _____ _____    ______ ____
DOCKED: USER                              x       y       z     vdW  Elec       q    Type
DOCKED: USER                           _______ _______ _______ _____ _____    ______ ____
DOCKED: ROOT
DOCKED: ATOM      1  N   UNL     1      26.602 -14.829  -3.096 -0.34 -0.00    +0.000 N 
DOCKED: ATOM      2  C   UNL     1      25.629 -13.976  -3.732 -0.48 -0.00    +0.000 C 
DOCKED: ATOM      3  C   UNL     1      26.016 -12.622  -4.189 -0.30 -0.00    +0.000 A 
DOCKED: ATOM      4  C   UNL     1      25.081 -11.792  -4.834 -0.33 -0.00    +0.000 A 
DOCKED: ATOM      5  C   UNL     1      25.447 -10.517  -5.267 -0.30 -0.00    +0.000 A 
DOCKED: ATOM      6  C   UNL     1      26.745 -10.050  -5.066 -0.13 -0.00    +0.000 A 
DOCKED: ATOM      7  C   UNL     1      27.694 -10.857  -4.426 -0.09 -0.00    +0.000 A 
DOCKED: ATOM      8  C   UNL     1      28.999 -10.387  -4.222 -0.03 -0.00    +0.000 A 
DOCKED: ATOM      9  C   UNL     1      29.944 -11.191  -3.584 -0.01 -0.00    +0.000 A 
DOCKED: ATOM     10  C   UNL     1      29.597 -12.469  -3.142 -0.03 -0.00    +0.000 A 
DOCKED: ATOM     11  C   UNL     1      28.296 -12.963  -3.335 -0.10 -0.00    +0.000 A 
DOCKED: ATOM     12  C   UNL     1      27.333 -12.156  -3.981 -0.16 -0.00    +0.000 A 
DOCKED: ATOM     13  O   UNL     1      24.446 -14.381  -3.897 -0.91 -0.00    +0.000 OA
DOCKED: ATOM     14  C   UNL     1      27.931 -14.320  -2.867 -0.20 -0.00    +0.000 C 
DOCKED: ATOM     15  O   UNL     1      28.786 -15.027  -2.267 -0.15 -0.00    +0.000 OA
DOCKED: ENDROOT
DOCKED: BRANCH   1  16
DOCKED: ATOM     16  C   UNL     1      26.242 -16.208  -2.721 -0.44 -0.00    +0.000 C 
DOCKED: BRANCH  16  17
DOCKED: ATOM     17  C   UNL     1      25.943 -16.323  -1.216 -0.52 -0.00    +0.000 C 
DOCKED: BRANCH  17  18
DOCKED: ATOM     18  C   UNL     1      24.447 -16.463  -0.878 -0.49 -0.00    +0.000 C 
DOCKED: BRANCH  18  19
DOCKED: ATOM     19  C   UNL     1      23.683 -17.493  -1.738 -0.47 -0.00    +0.000 C 
DOCKED: BRANCH  19  20
DOCKED: ATOM     20  C   UNL     1      23.003 -18.613  -0.934 -0.83 -0.00    +0.000 C 
DOCKED: BRANCH  20  22
DOCKED: ATOM     21  O   UNL     1      20.839 -17.626  -0.705 -2.14 -0.00    +0.000 OA
DOCKED: ATOM     22  C   UNL     1      21.512 -18.610  -1.113 -0.76 -0.00    +0.000 C 
DOCKED: ATOM     23  N   UNL     1      20.852 -19.729  -1.709 -0.74 -0.00    +0.000 N 
DOCKED: ATOM     24  H   UNL     1      21.380 -20.499  -2.019 -0.43 -0.00    +0.000 HD
DOCKED: BRANCH  23  25
DOCKED: ATOM     25  O   UNL     1      19.505 -19.737  -1.852 -1.66 -0.00    +0.000 OA
DOCKED: ATOM     26  H   UNL     1      19.132 -18.937  -1.449 -0.56 -0.00    +0.000 HD
DOCKED: ENDBRANCH  23  25
DOCKED: ENDBRANCH  20  22
DOCKED: ENDBRANCH  19  20
DOCKED: ENDBRANCH  18  19
DOCKED: ENDBRANCH  17  18
DOCKED: ENDBRANCH  16  17
DOCKED: ENDBRANCH   1  16
DOCKED: TORSDOF 7
DOCKED: TER
DOCKED: ENDMDL
________________________________________________________________________________


	BEGINNING GENETIC ALGORITHM DOCKING 51 of 100
Run: 51 Seed: 58112939 455414554 [ Run 51 of 100 GA/GALS ]
Beginning LAMARCKIAN GENETIC ALGORITHM (LGA), with a maximum of 2500000 energy evaluations.

Final-Value: -13.828


	FINAL GENETIC ALGORITHM DOCKED STATE
	_______________________________________________


Detailed state:  trans 26.978 -15.338 -0.831 quatxyzw 0.315785 0.707364 0.472034 0.420832 center 0.154 0.112 -0.159 ntor 7 6.9682 162.7432 167.8367 154.7211 69.8405 153.3679 -163.3145
State:	 26.978 -15.338  -0.831   0.348  0.780  0.520 130.226      6.97  162.74  167.84  154.72   69.84  153.37 -163.31

DOCKED: MODEL       51
DOCKED: USER    Run = 51
DOCKED: USER    DPF = ligand_dock.biased.dpf
DOCKED: USER  
DOCKED: USER    Estimated Free Energy of Binding    =  -10.56 kcal/mol  [=(1)+(2)+(3)-(4)]
DOCKED: USER    Estimated Inhibition Constant, Ki   =   18.07 nM (nanomolar)  [Temperature = 298.15 K]
DOCKED: USER    
DOCKED: USER    (1) Final Intermolecular Energy     =  -12.65 kcal/mol
DOCKED: USER        vdW + Hbond + desolv Energy     =  -12.65 kcal/mol
DOCKED: USER        Electrostatic Energy            =   +0.00 kcal/mol
DOCKED: USER    (2) Final Total Internal Energy     =   -1.18 kcal/mol
DOCKED: USER    (3) Torsional Free Energy           =   +2.09 kcal/mol
DOCKED: USER    (4) Unbound System's Energy  [=(2)] =   -1.18 kcal/mol
DOCKED: USER    
DOCKED: USER    
DOCKED: USER    NEWDPF move ligand.pdbqt
DOCKED: USER    NEWDPF about 0.154000 0.112000 -0.159000
DOCKED: USER    NEWDPF tran0 26.978051 -15.337989 -0.831019
DOCKED: USER    NEWDPF quaternion0 0.315785 0.707364 0.472034 0.420832
DOCKED: USER    NEWDPF axisangle0 0.348111 0.779775 0.520355 130.225713
DOCKED: USER    NEWDPF quat0 0.348111 0.779775 0.520355 130.225713
DOCKED: USER    NEWDPF dihe0 6.97 162.74 167.84 154.72 69.84 153.37 -163.31 
DOCKED: USER  keepresnum = 1 
DOCKED: USER  
DOCKED: REMARK  Name = 
DOCKED: REMARK  7 active torsions:
DOCKED: REMARK  status: ('A' for Active; 'I' for Inactive)
DOCKED: REMARK    1  A    between atoms: C_2  and  C_5
DOCKED: REMARK    2  A    between atoms: N_3  and  O_4
DOCKED: REMARK    3  A    between atoms: C_5  and  C_6
DOCKED: REMARK    4  A    between atoms: C_6  and  C_7
DOCKED: REMARK    5  A    between atoms: C_7  and  C_8
DOCKED: REMARK    6  A    between atoms: C_8  and  C_9
DOCKED: REMARK    7  A    between atoms: C_9  and  N_10
DOCKED: REMARK                            x       y       z     vdW  Elec       q    Type
DOCKED: REMARK                         _______ _______ _______ _____ _____    ______ ____
DOCKED: USER                              x       y       z     vdW  Elec       q    Type
DOCKED: USER                           _______ _______ _______ _____ _____    ______ ____
DOCKED: ROOT
DOCKED: ATOM      1  N   UNL     1      26.830 -16.665  -1.511 -0.40 -0.00    +0.000 N 
DOCKED: ATOM      2  C   UNL     1      28.201 -17.104  -1.592 -0.33 -0.00    +0.000 C 
DOCKED: ATOM      3  C   UNL     1      29.072 -16.618  -2.685 -0.22 -0.00    +0.000 A 
DOCKED: ATOM      4  C   UNL     1      30.418 -17.020  -2.759 -0.16 -0.00    +0.000 A 
DOCKED: ATOM      5  C   UNL     1      31.240 -16.559  -3.788 -0.10 -0.00    +0.000 A 
DOCKED: ATOM      6  C   UNL     1      30.736 -15.692  -4.757 -0.12 -0.00    +0.000 A 
DOCKED: ATOM      7  C   UNL     1      29.399 -15.277  -4.706 -0.21 -0.00    +0.000 A 
DOCKED: ATOM      8  C   UNL     1      28.892 -14.407  -5.681 -0.28 -0.00    +0.000 A 
DOCKED: ATOM      9  C   UNL     1      27.561 -13.994  -5.631 -0.24 -0.00    +0.000 A 
DOCKED: ATOM     10  C   UNL     1      26.722 -14.445  -4.610 -0.41 -0.00    +0.000 A 
DOCKED: ATOM     11  C   UNL     1      27.207 -15.318  -3.620 -0.35 -0.00    +0.000 A 
DOCKED: ATOM     12  C   UNL     1      28.554 -15.740  -3.663 -0.24 -0.00    +0.000 A 
DOCKED: ATOM     13  O   UNL     1      28.659 -17.907  -0.733 -0.38 -0.00    +0.000 OA
DOCKED: ATOM     14  C   UNL     1      26.315 -15.794  -2.537 -0.47 -0.00    +0.000 C 
DOCKED: ATOM     15  O   UNL     1      25.107 -15.435  -2.517 -0.55 -0.00    +0.000 OA
DOCKED: ENDROOT
DOCKED: BRANCH   1  16
DOCKED: ATOM     16  C   UNL     1      25.989 -17.078  -0.374 -0.56 -0.00    +0.000 C 
DOCKED: BRANCH  16  17
DOCKED: ATOM     17  C   UNL     1      25.302 -18.429  -0.642 -0.65 -0.00    +0.000 C 
DOCKED: BRANCH  17  18
DOCKED: ATOM     18  C   UNL     1      23.868 -18.530  -0.089 -0.66 -0.00    +0.000 C 
DOCKED: BRANCH  18  19
DOCKED: ATOM     19  C   UNL     1      22.862 -19.231  -1.026 -0.76 -0.00    +0.000 C 
DOCKED: BRANCH  19  20
DOCKED: ATOM     20  C   UNL     1      21.475 -18.569  -1.081 -0.79 -0.00    +0.000 C 
DOCKED: BRANCH  20  22
DOCKED: ATOM     21  O   UNL     1      19.510 -19.734  -1.784 -1.66 -0.00    +0.000 OA
DOCKED: ATOM     22  C   UNL     1      20.368 -19.563  -0.877 -0.89 -0.00    +0.000 C 
DOCKED: ATOM     23  N   UNL     1      20.263 -20.287   0.351 -0.71 -0.00    +0.000 N 
DOCKED: ATOM     24  H   UNL     1      20.930 -20.144   1.061 -0.50 -0.00    +0.000 HD
DOCKED: BRANCH  23  25
DOCKED: ATOM     25  O   UNL     1      19.253 -21.168   0.546 -0.73 -0.00    +0.000 OA
DOCKED: ATOM     26  H   UNL     1      18.752 -21.274  -0.278 -0.27 -0.00    +0.000 HD
DOCKED: ENDBRANCH  23  25
DOCKED: ENDBRANCH  20  22
DOCKED: ENDBRANCH  19  20
DOCKED: ENDBRANCH  18  19
DOCKED: ENDBRANCH  17  18
DOCKED: ENDBRANCH  16  17
DOCKED: ENDBRANCH   1  16
DOCKED: TORSDOF 7
DOCKED: TER
DOCKED: ENDMDL
________________________________________________________________________________


	BEGINNING GENETIC ALGORITHM DOCKING 52 of 100
Run: 52 Seed: 146965077 237792938 [ Run 52 of 100 GA/GALS ]
Beginning LAMARCKIAN GENETIC ALGORITHM (LGA), with a maximum of 2500000 energy evaluations.

Final-Value: -14.462


	FINAL GENETIC ALGORITHM DOCKED STATE
	_______________________________________________


Detailed state:  trans 26.842 -17.449 -2.427 quatxyzw -0.382824 0.663318 -0.639163 0.070185 center 0.154 0.112 -0.159 ntor 7 1.5356 -141.1654 -165.9609 -149.1139 -177.1392 -159.3741 17.8606
State:	 26.842 -17.449  -2.427  -0.384  0.665 -0.641 171.951      1.54 -141.17 -165.96 -149.11 -177.14 -159.37   17.86

DOCKED: MODEL       52
DOCKED: USER    Run = 52
DOCKED: USER    DPF = ligand_dock.biased.dpf
DOCKED: USER  
DOCKED: USER    Estimated Free Energy of Binding    =  -11.13 kcal/mol  [=(1)+(2)+(3)-(4)]
DOCKED: USER    Estimated Inhibition Constant, Ki   =    6.95 nM (nanomolar)  [Temperature = 298.15 K]
DOCKED: USER    
DOCKED: USER    (1) Final Intermolecular Energy     =  -13.22 kcal/mol
DOCKED: USER        vdW + Hbond + desolv Energy     =  -13.22 kcal/mol
DOCKED: USER        Electrostatic Energy            =   +0.00 kcal/mol
DOCKED: USER    (2) Final Total Internal Energy     =   -1.24 kcal/mol
DOCKED: USER    (3) Torsional Free Energy           =   +2.09 kcal/mol
DOCKED: USER    (4) Unbound System's Energy  [=(2)] =   -1.24 kcal/mol
DOCKED: USER    
DOCKED: USER    
DOCKED: USER    NEWDPF move ligand.pdbqt
DOCKED: USER    NEWDPF about 0.154000 0.112000 -0.159000
DOCKED: USER    NEWDPF tran0 26.842023 -17.449169 -2.426521
DOCKED: USER    NEWDPF quaternion0 -0.382824 0.663318 -0.639163 0.070185
DOCKED: USER    NEWDPF axisangle0 -0.383770 0.664958 -0.640743 171.950780
DOCKED: USER    NEWDPF quat0 -0.383770 0.664958 -0.640743 171.950780
DOCKED: USER    NEWDPF dihe0 1.54 -141.17 -165.96 -149.11 -177.14 -159.37 17.86 
DOCKED: USER  keepresnum = 1 
DOCKED: USER  
DOCKED: REMARK  Name = 
DOCKED: REMARK  7 active torsions:
DOCKED: REMARK  status: ('A' for Active; 'I' for Inactive)
DOCKED: REMARK    1  A    between atoms: C_2  and  C_5
DOCKED: REMARK    2  A    between atoms: N_3  and  O_4
DOCKED: REMARK    3  A    between atoms: C_5  and  C_6
DOCKED: REMARK    4  A    between atoms: C_6  and  C_7
DOCKED: REMARK    5  A    between atoms: C_7  and  C_8
DOCKED: REMARK    6  A    between atoms: C_8  and  C_9
DOCKED: REMARK    7  A    between atoms: C_9  and  N_10
DOCKED: REMARK                            x       y       z     vdW  Elec       q    Type
DOCKED: REMARK                         _______ _______ _______ _____ _____    ______ ____
DOCKED: USER                              x       y       z     vdW  Elec       q    Type
DOCKED: USER                           _______ _______ _______ _____ _____    ______ ____
DOCKED: ROOT
DOCKED: ATOM      1  N   UNL     1      27.365 -16.145  -1.907 -0.31 -0.00    +0.000 N 
DOCKED: ATOM      2  C   UNL     1      26.961 -15.234  -2.948 -0.37 -0.00    +0.000 C 
DOCKED: ATOM      3  C   UNL     1      27.780 -15.098  -4.174 -0.32 -0.00    +0.000 A 
DOCKED: ATOM      4  C   UNL     1      27.381 -14.231  -5.207 -0.34 -0.00    +0.000 A 
DOCKED: ATOM      5  C   UNL     1      28.152 -14.105  -6.363 -0.25 -0.00    +0.000 A 
DOCKED: ATOM      6  C   UNL     1      29.329 -14.838  -6.508 -0.32 -0.00    +0.000 A 
DOCKED: ATOM      7  C   UNL     1      29.748 -15.709  -5.493 -0.27 -0.00    +0.000 A 
DOCKED: ATOM      8  C   UNL     1      30.932 -16.445  -5.638 -0.19 -0.00    +0.000 A 
DOCKED: ATOM      9  C   UNL     1      31.350 -17.310  -4.627 -0.14 -0.00    +0.000 A 
DOCKED: ATOM     10  C   UNL     1      30.593 -17.450  -3.463 -0.18 -0.00    +0.000 A 
DOCKED: ATOM     11  C   UNL     1      29.402 -16.722  -3.294 -0.22 -0.00    +0.000 A 
DOCKED: ATOM     12  C   UNL     1      28.971 -15.844  -4.313 -0.26 -0.00    +0.000 A 
DOCKED: ATOM     13  O   UNL     1      25.910 -14.548  -2.815 -0.43 -0.00    +0.000 OA
DOCKED: ATOM     14  C   UNL     1      28.600 -16.873  -2.057 -0.28 -0.00    +0.000 C 
DOCKED: ATOM     15  O   UNL     1      29.001 -17.638  -1.139 -0.36 -0.00    +0.000 OA
DOCKED: ENDROOT
DOCKED: BRANCH   1  16
DOCKED: ATOM     16  C   UNL     1      26.504 -16.347  -0.728 -0.48 -0.00    +0.000 C 
DOCKED: BRANCH  16  17
DOCKED: ATOM     17  C   UNL     1      25.567 -17.553  -0.914 -0.65 -0.00    +0.000 C 
DOCKED: BRANCH  17  18
DOCKED: ATOM     18  C   UNL     1      24.162 -17.186  -1.427 -0.69 -0.00    +0.000 C 
DOCKED: BRANCH  18  19
DOCKED: ATOM     19  C   UNL     1      23.035 -17.318  -0.380 -0.68 -0.00    +0.000 C 
DOCKED: BRANCH  19  20
DOCKED: ATOM     20  C   UNL     1      22.481 -18.743  -0.217 -0.78 -0.00    +0.000 C 
DOCKED: BRANCH  20  22
DOCKED: ATOM     21  O   UNL     1      20.159 -18.237  -0.474 -1.84 -0.00    +0.000 OA
DOCKED: ATOM     22  C   UNL     1      21.145 -18.907  -0.883 -0.86 -0.00    +0.000 C 
DOCKED: ATOM     23  N   UNL     1      20.978 -19.843  -1.951 -0.43 -0.00    +0.000 N 
DOCKED: ATOM     24  H   UNL     1      21.749 -20.371  -2.262 -0.55 -0.00    +0.000 HD
DOCKED: BRANCH  23  25
DOCKED: ATOM     25  O   UNL     1      19.769 -20.008  -2.538 -1.50 -0.00    +0.000 OA
DOCKED: ATOM     26  H   UNL     1      19.128 -19.402  -2.136 -0.51 -0.00    +0.000 HD
DOCKED: ENDBRANCH  23  25
DOCKED: ENDBRANCH  20  22
DOCKED: ENDBRANCH  19  20
DOCKED: ENDBRANCH  18  19
DOCKED: ENDBRANCH  17  18
DOCKED: ENDBRANCH  16  17
DOCKED: ENDBRANCH   1  16
DOCKED: TORSDOF 7
DOCKED: TER
DOCKED: ENDMDL
________________________________________________________________________________


	BEGINNING GENETIC ALGORITHM DOCKING 53 of 100
Run: 53 Seed: 466752046 747351662 [ Run 53 of 100 GA/GALS ]
Beginning LAMARCKIAN GENETIC ALGORITHM (LGA), with a maximum of 2500000 energy evaluations.

Final-Value: -14.359


	FINAL GENETIC ALGORITHM DOCKED STATE
	_______________________________________________


Detailed state:  trans 27.110 -14.774 -1.720 quatxyzw -0.373721 -0.734128 -0.476141 -0.307700 center 0.154 0.112 -0.159 ntor 7 -3.3095 -70.5118 -173.0703 -179.8521 -179.7073 178.9403 -147.7294
State:	 27.110 -14.774  -1.720  -0.393 -0.772 -0.500 -144.159     -3.31  -70.51 -173.07 -179.85 -179.71  178.94 -147.73

DOCKED: MODEL       53
DOCKED: USER    Run = 53
DOCKED: USER    DPF = ligand_dock.biased.dpf
DOCKED: USER  
DOCKED: USER    Estimated Free Energy of Binding    =  -11.14 kcal/mol  [=(1)+(2)+(3)-(4)]
DOCKED: USER    Estimated Inhibition Constant, Ki   =    6.86 nM (nanomolar)  [Temperature = 298.15 K]
DOCKED: USER    
DOCKED: USER    (1) Final Intermolecular Energy     =  -13.23 kcal/mol
DOCKED: USER        vdW + Hbond + desolv Energy     =  -13.23 kcal/mol
DOCKED: USER        Electrostatic Energy            =   +0.00 kcal/mol
DOCKED: USER    (2) Final Total Internal Energy     =   -1.13 kcal/mol
DOCKED: USER    (3) Torsional Free Energy           =   +2.09 kcal/mol
DOCKED: USER    (4) Unbound System's Energy  [=(2)] =   -1.13 kcal/mol
DOCKED: USER    
DOCKED: USER    
DOCKED: USER    NEWDPF move ligand.pdbqt
DOCKED: USER    NEWDPF about 0.154000 0.112000 -0.159000
DOCKED: USER    NEWDPF tran0 27.110244 -14.773646 -1.720036
DOCKED: USER    NEWDPF quaternion0 -0.373721 -0.734128 -0.476141 -0.307700
DOCKED: USER    NEWDPF axisangle0 -0.392777 -0.771561 -0.500420 -144.158667
DOCKED: USER    NEWDPF quat0 -0.392777 -0.771561 -0.500420 -144.158667
DOCKED: USER    NEWDPF dihe0 -3.31 -70.51 -173.07 -179.85 -179.71 178.94 -147.73 
DOCKED: USER  keepresnum = 1 
DOCKED: USER  
DOCKED: REMARK  Name = 
DOCKED: REMARK  7 active torsions:
DOCKED: REMARK  status: ('A' for Active; 'I' for Inactive)
DOCKED: REMARK    1  A    between atoms: C_2  and  C_5
DOCKED: REMARK    2  A    between atoms: N_3  and  O_4
DOCKED: REMARK    3  A    between atoms: C_5  and  C_6
DOCKED: REMARK    4  A    between atoms: C_6  and  C_7
DOCKED: REMARK    5  A    between atoms: C_7  and  C_8
DOCKED: REMARK    6  A    between atoms: C_8  and  C_9
DOCKED: REMARK    7  A    between atoms: C_9  and  N_10
DOCKED: REMARK                            x       y       z     vdW  Elec       q    Type
DOCKED: REMARK                         _______ _______ _______ _____ _____    ______ ____
DOCKED: USER                              x       y       z     vdW  Elec       q    Type
DOCKED: USER                           _______ _______ _______ _____ _____    ______ ____
DOCKED: ROOT
DOCKED: ATOM      1  N   UNL     1      26.803 -16.145  -2.240 -0.36 -0.00    +0.000 N 
DOCKED: ATOM      2  C   UNL     1      28.070 -16.811  -2.070 -0.30 -0.00    +0.000 C 
DOCKED: ATOM      3  C   UNL     1      29.138 -16.644  -3.081 -0.21 -0.00    +0.000 A 
DOCKED: ATOM      4  C   UNL     1      30.386 -17.269  -2.912 -0.17 -0.00    +0.000 A 
DOCKED: ATOM      5  C   UNL     1      31.393 -17.110  -3.865 -0.11 -0.00    +0.000 A 
DOCKED: ATOM      6  C   UNL     1      31.174 -16.327  -4.997 -0.13 -0.00    +0.000 A 
DOCKED: ATOM      7  C   UNL     1      29.938 -15.694  -5.189 -0.23 -0.00    +0.000 A 
DOCKED: ATOM      8  C   UNL     1      29.717 -14.909  -6.329 -0.29 -0.00    +0.000 A 
DOCKED: ATOM      9  C   UNL     1      28.487 -14.279  -6.520 -0.31 -0.00    +0.000 A 
DOCKED: ATOM     10  C   UNL     1      27.467 -14.428  -5.579 -0.30 -0.00    +0.000 A 
DOCKED: ATOM     11  C   UNL     1      27.664 -15.210  -4.428 -0.36 -0.00    +0.000 A 
DOCKED: ATOM     12  C   UNL     1      28.907 -15.850  -4.226 -0.26 -0.00    +0.000 A 
DOCKED: ATOM     13  O   UNL     1      28.269 -17.541  -1.060 -0.42 -0.00    +0.000 OA
DOCKED: ATOM     14  C   UNL     1      26.580 -15.365  -3.431 -0.47 -0.00    +0.000 C 
DOCKED: ATOM     15  O   UNL     1      25.463 -14.813  -3.628 -0.70 -0.00    +0.000 OA
DOCKED: ENDROOT
DOCKED: BRANCH   1  16
DOCKED: ATOM     16  C   UNL     1      25.773 -16.239  -1.190 -0.53 -0.00    +0.000 C 
DOCKED: BRANCH  16  17
DOCKED: ATOM     17  C   UNL     1      25.146 -17.644  -1.139 -0.68 -0.00    +0.000 C 
DOCKED: BRANCH  17  18
DOCKED: ATOM     18  C   UNL     1      23.639 -17.675  -1.454 -0.71 -0.00    +0.000 C 
DOCKED: BRANCH  18  19
DOCKED: ATOM     19  C   UNL     1      22.733 -18.012  -0.251 -0.80 -0.00    +0.000 C 
DOCKED: BRANCH  19  20
DOCKED: ATOM     20  C   UNL     1      21.990 -19.352  -0.370 -0.74 -0.00    +0.000 C 
DOCKED: BRANCH  20  22
DOCKED: ATOM     21  O   UNL     1      20.049 -18.004  -0.724 -2.01 -0.00    +0.000 OA
DOCKED: ATOM     22  C   UNL     1      20.511 -19.163  -0.549 -0.88 -0.00    +0.000 C 
DOCKED: ATOM     23  N   UNL     1      19.625 -20.283  -0.486 -0.64 -0.00    +0.000 N 
DOCKED: ATOM     24  H   UNL     1      19.989 -21.186  -0.341 -0.29 -0.00    +0.000 HD
DOCKED: BRANCH  23  25
DOCKED: ATOM     25  O   UNL     1      18.288 -20.111  -0.626 -0.76 -0.00    +0.000 OA
DOCKED: ATOM     26  H   UNL     1      18.090 -19.166  -0.709 -0.56 -0.00    +0.000 HD
DOCKED: ENDBRANCH  23  25
DOCKED: ENDBRANCH  20  22
DOCKED: ENDBRANCH  19  20
DOCKED: ENDBRANCH  18  19
DOCKED: ENDBRANCH  17  18
DOCKED: ENDBRANCH  16  17
DOCKED: ENDBRANCH   1  16
DOCKED: TORSDOF 7
DOCKED: TER
DOCKED: ENDMDL
________________________________________________________________________________


	BEGINNING GENETIC ALGORITHM DOCKING 54 of 100
Run: 54 Seed: 1629782552 168221018 [ Run 54 of 100 GA/GALS ]
Beginning LAMARCKIAN GENETIC ALGORITHM (LGA), with a maximum of 2500000 energy evaluations.

Final-Value: -14.443


	FINAL GENETIC ALGORITHM DOCKED STATE
	_______________________________________________


Detailed state:  trans 26.432 -15.769 -4.815 quatxyzw 0.464292 -0.716403 0.440331 0.278043 center 0.154 0.112 -0.159 ntor 7 -0.5710 -102.6767 160.5718 85.6732 -168.4570 125.7292 179.4085
State:	 26.432 -15.769  -4.815   0.483 -0.746  0.458 147.713     -0.57 -102.68  160.57   85.67 -168.46  125.73  179.41

DOCKED: MODEL       54
DOCKED: USER    Run = 54
DOCKED: USER    DPF = ligand_dock.biased.dpf
DOCKED: USER  
DOCKED: USER    Estimated Free Energy of Binding    =  -11.20 kcal/mol  [=(1)+(2)+(3)-(4)]
DOCKED: USER    Estimated Inhibition Constant, Ki   =    6.16 nM (nanomolar)  [Temperature = 298.15 K]
DOCKED: USER    
DOCKED: USER    (1) Final Intermolecular Energy     =  -13.29 kcal/mol
DOCKED: USER        vdW + Hbond + desolv Energy     =  -13.29 kcal/mol
DOCKED: USER        Electrostatic Energy            =   +0.00 kcal/mol
DOCKED: USER    (2) Final Total Internal Energy     =   -1.15 kcal/mol
DOCKED: USER    (3) Torsional Free Energy           =   +2.09 kcal/mol
DOCKED: USER    (4) Unbound System's Energy  [=(2)] =   -1.15 kcal/mol
DOCKED: USER    
DOCKED: USER    
DOCKED: USER    NEWDPF move ligand.pdbqt
DOCKED: USER    NEWDPF about 0.154000 0.112000 -0.159000
DOCKED: USER    NEWDPF tran0 26.432086 -15.769131 -4.815429
DOCKED: USER    NEWDPF quaternion0 0.464292 -0.716403 0.440331 0.278043
DOCKED: USER    NEWDPF axisangle0 0.483351 -0.745812 0.458407 147.713094
DOCKED: USER    NEWDPF quat0 0.483351 -0.745812 0.458407 147.713094
DOCKED: USER    NEWDPF dihe0 -0.57 -102.68 160.57 85.67 -168.46 125.73 179.41 
DOCKED: USER  keepresnum = 1 
DOCKED: USER  
DOCKED: REMARK  Name = 
DOCKED: REMARK  7 active torsions:
DOCKED: REMARK  status: ('A' for Active; 'I' for Inactive)
DOCKED: REMARK    1  A    between atoms: C_2  and  C_5
DOCKED: REMARK    2  A    between atoms: N_3  and  O_4
DOCKED: REMARK    3  A    between atoms: C_5  and  C_6
DOCKED: REMARK    4  A    between atoms: C_6  and  C_7
DOCKED: REMARK    5  A    between atoms: C_7  and  C_8
DOCKED: REMARK    6  A    between atoms: C_8  and  C_9
DOCKED: REMARK    7  A    between atoms: C_9  and  N_10
DOCKED: REMARK                            x       y       z     vdW  Elec       q    Type
DOCKED: REMARK                         _______ _______ _______ _____ _____    ______ ____
DOCKED: USER                              x       y       z     vdW  Elec       q    Type
DOCKED: USER                           _______ _______ _______ _____ _____    ______ ____
DOCKED: ROOT
DOCKED: ATOM      1  N   UNL     1      26.194 -14.979  -3.565 -0.45 -0.00    +0.000 N 
DOCKED: ATOM      2  C   UNL     1      25.433 -13.863  -4.066 -0.50 -0.00    +0.000 C 
DOCKED: ATOM      3  C   UNL     1      26.126 -12.711  -4.687 -0.26 -0.00    +0.000 A 
DOCKED: ATOM      4  C   UNL     1      25.391 -11.629  -5.202 -0.25 -0.00    +0.000 A 
DOCKED: ATOM      5  C   UNL     1      26.044 -10.544  -5.789 -0.21 -0.00    +0.000 A 
DOCKED: ATOM      6  C   UNL     1      27.436 -10.521  -5.872 -0.11 -0.00    +0.000 A 
DOCKED: ATOM      7  C   UNL     1      28.191 -11.588  -5.366 -0.11 -0.00    +0.000 A 
DOCKED: ATOM      8  C   UNL     1      29.590 -11.564  -5.447 -0.04 -0.00    +0.000 A 
DOCKED: ATOM      9  C   UNL     1      30.341 -12.625  -4.942 -0.04 -0.00    +0.000 A 
DOCKED: ATOM     10  C   UNL     1      29.706 -13.718  -4.351 -0.08 -0.00    +0.000 A 
DOCKED: ATOM     11  C   UNL     1      28.304 -13.766  -4.257 -0.17 -0.00    +0.000 A 
DOCKED: ATOM     12  C   UNL     1      27.536 -12.696  -4.766 -0.19 -0.00    +0.000 A 
DOCKED: ATOM     13  O   UNL     1      24.174 -13.864  -3.974 -1.03 -0.00    +0.000 OA
DOCKED: ATOM     14  C   UNL     1      27.633 -14.927  -3.629 -0.32 -0.00    +0.000 C 
DOCKED: ATOM     15  O   UNL     1      28.324 -15.868  -3.152 -0.29 -0.00    +0.000 OA
DOCKED: ENDROOT
DOCKED: BRANCH   1  16
DOCKED: ATOM     16  C   UNL     1      25.501 -16.164  -3.028 -0.52 -0.00    +0.000 C 
DOCKED: BRANCH  16  17
DOCKED: ATOM     17  C   UNL     1      25.559 -16.203  -1.491 -0.55 -0.00    +0.000 C 
DOCKED: BRANCH  17  18
DOCKED: ATOM     18  C   UNL     1      25.059 -17.523  -0.874 -0.69 -0.00    +0.000 C 
DOCKED: BRANCH  18  19
DOCKED: ATOM     19  C   UNL     1      23.610 -17.482  -0.343 -0.69 -0.00    +0.000 C 
DOCKED: BRANCH  19  20
DOCKED: ATOM     20  C   UNL     1      22.883 -18.836  -0.369 -0.80 -0.00    +0.000 C 
DOCKED: BRANCH  20  22
DOCKED: ATOM     21  O   UNL     1      20.868 -17.606  -0.735 -2.12 -0.00    +0.000 OA
DOCKED: ATOM     22  C   UNL     1      21.469 -18.707  -0.854 -0.85 -0.00    +0.000 C 
DOCKED: ATOM     23  N   UNL     1      20.790 -19.833  -1.416 -0.72 -0.00    +0.000 N 
DOCKED: ATOM     24  H   UNL     1      21.260 -20.694  -1.500 -0.16 -0.00    +0.000 HD
DOCKED: BRANCH  23  25
DOCKED: ATOM     25  O   UNL     1      19.506 -19.724  -1.834 -1.66 -0.00    +0.000 OA
DOCKED: ATOM     26  H   UNL     1      19.189 -18.821  -1.675 -0.49 -0.00    +0.000 HD
DOCKED: ENDBRANCH  23  25
DOCKED: ENDBRANCH  20  22
DOCKED: ENDBRANCH  19  20
DOCKED: ENDBRANCH  18  19
DOCKED: ENDBRANCH  17  18
DOCKED: ENDBRANCH  16  17
DOCKED: ENDBRANCH   1  16
DOCKED: TORSDOF 7
DOCKED: TER
DOCKED: ENDMDL
________________________________________________________________________________


	BEGINNING GENETIC ALGORITHM DOCKING 55 of 100
Run: 55 Seed: 293414961 1973305687 [ Run 55 of 100 GA/GALS ]
Beginning LAMARCKIAN GENETIC ALGORITHM (LGA), with a maximum of 2500000 energy evaluations.

Final-Value: -14.109


	FINAL GENETIC ALGORITHM DOCKED STATE
	_______________________________________________


Detailed state:  trans 28.065 -16.613 -1.644 quatxyzw 0.466882 -0.299016 0.515408 0.653426 center 0.154 0.112 -0.159 ntor 7 -24.6232 -179.1902 -155.4465 175.4859 155.2336 22.8785 -175.1614
State:	 28.065 -16.613  -1.644   0.617 -0.395  0.681 98.399    -24.62 -179.19 -155.45  175.49  155.23   22.88 -175.16

DOCKED: MODEL       55
DOCKED: USER    Run = 55
DOCKED: USER    DPF = ligand_dock.biased.dpf
DOCKED: USER  
DOCKED: USER    Estimated Free Energy of Binding    =  -10.74 kcal/mol  [=(1)+(2)+(3)-(4)]
DOCKED: USER    Estimated Inhibition Constant, Ki   =   13.51 nM (nanomolar)  [Temperature = 298.15 K]
DOCKED: USER    
DOCKED: USER    (1) Final Intermolecular Energy     =  -12.82 kcal/mol
DOCKED: USER        vdW + Hbond + desolv Energy     =  -12.82 kcal/mol
DOCKED: USER        Electrostatic Energy            =   +0.00 kcal/mol
DOCKED: USER    (2) Final Total Internal Energy     =   -1.29 kcal/mol
DOCKED: USER    (3) Torsional Free Energy           =   +2.09 kcal/mol
DOCKED: USER    (4) Unbound System's Energy  [=(2)] =   -1.29 kcal/mol
DOCKED: USER    
DOCKED: USER    
DOCKED: USER    NEWDPF move ligand.pdbqt
DOCKED: USER    NEWDPF about 0.154000 0.112000 -0.159000
DOCKED: USER    NEWDPF tran0 28.065395 -16.613160 -1.644171
DOCKED: USER    NEWDPF quaternion0 0.466882 -0.299016 0.515408 0.653426
DOCKED: USER    NEWDPF axisangle0 0.616761 -0.395006 0.680864 98.399256
DOCKED: USER    NEWDPF quat0 0.616761 -0.395006 0.680864 98.399256
DOCKED: USER    NEWDPF dihe0 -24.62 -179.19 -155.45 175.49 155.23 22.88 -175.16 
DOCKED: USER  keepresnum = 1 
DOCKED: USER  
DOCKED: REMARK  Name = 
DOCKED: REMARK  7 active torsions:
DOCKED: REMARK  status: ('A' for Active; 'I' for Inactive)
DOCKED: REMARK    1  A    between atoms: C_2  and  C_5
DOCKED: REMARK    2  A    between atoms: N_3  and  O_4
DOCKED: REMARK    3  A    between atoms: C_5  and  C_6
DOCKED: REMARK    4  A    between atoms: C_6  and  C_7
DOCKED: REMARK    5  A    between atoms: C_7  and  C_8
DOCKED: REMARK    6  A    between atoms: C_8  and  C_9
DOCKED: REMARK    7  A    between atoms: C_9  and  N_10
DOCKED: REMARK                            x       y       z     vdW  Elec       q    Type
DOCKED: REMARK                         _______ _______ _______ _____ _____    ______ ____
DOCKED: USER                              x       y       z     vdW  Elec       q    Type
DOCKED: USER                           _______ _______ _______ _____ _____    ______ ____
DOCKED: ROOT
DOCKED: ATOM      1  N   UNL     1      26.623 -16.383  -1.309 -0.40 -0.00    +0.000 N 
DOCKED: ATOM      2  C   UNL     1      26.102 -15.920  -2.570 -0.50 -0.00    +0.000 C 
DOCKED: ATOM      3  C   UNL     1      26.259 -14.502  -2.963 -0.37 -0.00    +0.000 A 
DOCKED: ATOM      4  C   UNL     1      25.776 -14.046  -4.203 -0.43 -0.00    +0.000 A 
DOCKED: ATOM      5  C   UNL     1      25.927 -12.709  -4.574 -0.28 -0.00    +0.000 A 
DOCKED: ATOM      6  C   UNL     1      26.559 -11.808  -3.718 -0.16 -0.00    +0.000 A 
DOCKED: ATOM      7  C   UNL     1      27.048 -12.237  -2.477 -0.09 -0.00    +0.000 A 
DOCKED: ATOM      8  C   UNL     1      27.682 -11.330  -1.616 -0.09 -0.00    +0.000 A 
DOCKED: ATOM      9  C   UNL     1      28.168 -11.758  -0.381 -0.08 -0.00    +0.000 A 
DOCKED: ATOM     10  C   UNL     1      28.026 -13.091   0.009 -0.13 -0.00    +0.000 A 
DOCKED: ATOM     11  C   UNL     1      27.394 -14.019  -0.837 -0.20 -0.00    +0.000 A 
DOCKED: ATOM     12  C   UNL     1      26.900 -13.595  -2.090 -0.19 -0.00    +0.000 A 
DOCKED: ATOM     13  O   UNL     1      25.507 -16.724  -3.341 -0.50 -0.00    +0.000 OA
DOCKED: ATOM     14  C   UNL     1      27.246 -15.433  -0.422 -0.34 -0.00    +0.000 C 
DOCKED: ATOM     15  O   UNL     1      27.666 -15.802   0.709 -0.35 -0.00    +0.000 OA
DOCKED: ENDROOT
DOCKED: BRANCH   1  16
DOCKED: ATOM     16  C   UNL     1      26.546 -17.812  -0.957 -0.52 -0.00    +0.000 C 
DOCKED: BRANCH  16  17
DOCKED: ATOM     17  C   UNL     1      25.358 -18.099  -0.022 -0.66 -0.00    +0.000 C 
DOCKED: BRANCH  17  18
DOCKED: ATOM     18  C   UNL     1      24.030 -18.367  -0.754 -0.80 -0.00    +0.000 C 
DOCKED: BRANCH  18  19
DOCKED: ATOM     19  C   UNL     1      22.803 -17.652  -0.149 -0.67 -0.00    +0.000 C 
DOCKED: BRANCH  19  20
DOCKED: ATOM     20  C   UNL     1      21.702 -18.597   0.361 -0.66 -0.00    +0.000 C 
DOCKED: BRANCH  20  22
DOCKED: ATOM     21  O   UNL     1      19.551 -18.242  -0.620 -1.50 -0.00    +0.000 OA
DOCKED: ATOM     22  C   UNL     1      20.652 -18.853  -0.681 -0.85 -0.00    +0.000 C 
DOCKED: ATOM     23  N   UNL     1      20.880 -19.808  -1.720 -0.65 -0.00    +0.000 N 
DOCKED: ATOM     24  H   UNL     1      21.738 -20.289  -1.761 -0.43 -0.00    +0.000 HD
DOCKED: BRANCH  23  25
DOCKED: ATOM     25  O   UNL     1      19.926 -20.056  -2.649 -1.57 -0.00    +0.000 OA
DOCKED: ATOM     26  H   UNL     1      19.055 -19.835  -2.285 -0.41 -0.00    +0.000 HD
DOCKED: ENDBRANCH  23  25
DOCKED: ENDBRANCH  20  22
DOCKED: ENDBRANCH  19  20
DOCKED: ENDBRANCH  18  19
DOCKED: ENDBRANCH  17  18
DOCKED: ENDBRANCH  16  17
DOCKED: ENDBRANCH   1  16
DOCKED: TORSDOF 7
DOCKED: TER
DOCKED: ENDMDL
________________________________________________________________________________


	BEGINNING GENETIC ALGORITHM DOCKING 56 of 100
Run: 56 Seed: 1081016163 1735620839 [ Run 56 of 100 GA/GALS ]
Beginning LAMARCKIAN GENETIC ALGORITHM (LGA), with a maximum of 2500000 energy evaluations.

Final-Value: -14.609


	FINAL GENETIC ALGORITHM DOCKED STATE
	_______________________________________________


Detailed state:  trans 26.447 -14.405 -2.770 quatxyzw 0.140123 0.462885 0.585407 0.650693 center 0.154 0.112 -0.159 ntor 7 -1.4333 -174.3310 97.1192 125.0569 -132.2594 108.6392 44.3735
State:	 26.447 -14.405  -2.770   0.185  0.610  0.771 98.812     -1.43 -174.33   97.12  125.06 -132.26  108.64   44.37

DOCKED: MODEL       56
DOCKED: USER    Run = 56
DOCKED: USER    DPF = ligand_dock.biased.dpf
DOCKED: USER  
DOCKED: USER    Estimated Free Energy of Binding    =  -11.36 kcal/mol  [=(1)+(2)+(3)-(4)]
DOCKED: USER    Estimated Inhibition Constant, Ki   =    4.70 nM (nanomolar)  [Temperature = 298.15 K]
DOCKED: USER    
DOCKED: USER    (1) Final Intermolecular Energy     =  -13.45 kcal/mol
DOCKED: USER        vdW + Hbond + desolv Energy     =  -13.45 kcal/mol
DOCKED: USER        Electrostatic Energy            =   +0.00 kcal/mol
DOCKED: USER    (2) Final Total Internal Energy     =   -1.16 kcal/mol
DOCKED: USER    (3) Torsional Free Energy           =   +2.09 kcal/mol
DOCKED: USER    (4) Unbound System's Energy  [=(2)] =   -1.16 kcal/mol
DOCKED: USER    
DOCKED: USER    
DOCKED: USER    NEWDPF move ligand.pdbqt
DOCKED: USER    NEWDPF about 0.154000 0.112000 -0.159000
DOCKED: USER    NEWDPF tran0 26.446503 -14.405030 -2.769537
DOCKED: USER    NEWDPF quaternion0 0.140123 0.462885 0.585407 0.650693
DOCKED: USER    NEWDPF axisangle0 0.184533 0.609587 0.770941 98.812271
DOCKED: USER    NEWDPF quat0 0.184533 0.609587 0.770941 98.812271
DOCKED: USER    NEWDPF dihe0 -1.43 -174.33 97.12 125.06 -132.26 108.64 44.37 
DOCKED: USER  keepresnum = 1 
DOCKED: USER  
DOCKED: REMARK  Name = 
DOCKED: REMARK  7 active torsions:
DOCKED: REMARK  status: ('A' for Active; 'I' for Inactive)
DOCKED: REMARK    1  A    between atoms: C_2  and  C_5
DOCKED: REMARK    2  A    between atoms: N_3  and  O_4
DOCKED: REMARK    3  A    between atoms: C_5  and  C_6
DOCKED: REMARK    4  A    between atoms: C_6  and  C_7
DOCKED: REMARK    5  A    between atoms: C_7  and  C_8
DOCKED: REMARK    6  A    between atoms: C_8  and  C_9
DOCKED: REMARK    7  A    between atoms: C_9  and  N_10
DOCKED: REMARK                            x       y       z     vdW  Elec       q    Type
DOCKED: REMARK                         _______ _______ _______ _____ _____    ______ ____
DOCKED: USER                              x       y       z     vdW  Elec       q    Type
DOCKED: USER                           _______ _______ _______ _____ _____    ______ ____
DOCKED: ROOT
DOCKED: ATOM      1  N   UNL     1      26.205 -15.028  -4.111 -0.50 -0.00    +0.000 N 
DOCKED: ATOM      2  C   UNL     1      27.500 -14.895  -4.730 -0.43 -0.00    +0.000 C 
DOCKED: ATOM      3  C   UNL     1      27.889 -13.618  -5.370 -0.26 -0.00    +0.000 A 
DOCKED: ATOM      4  C   UNL     1      29.160 -13.470  -5.954 -0.19 -0.00    +0.000 A 
DOCKED: ATOM      5  C   UNL     1      29.528 -12.265  -6.555 -0.11 -0.00    +0.000 A 
DOCKED: ATOM      6  C   UNL     1      28.638 -11.191  -6.582 -0.09 -0.00    +0.000 A 
DOCKED: ATOM      7  C   UNL     1      27.366 -11.314  -6.007 -0.15 -0.00    +0.000 A 
DOCKED: ATOM      8  C   UNL     1      26.472 -10.235  -6.036 -0.15 -0.00    +0.000 A 
DOCKED: ATOM      9  C   UNL     1      25.205 -10.357  -5.464 -0.32 -0.00    +0.000 A 
DOCKED: ATOM     10  C   UNL     1      24.819 -11.555  -4.859 -0.35 -0.00    +0.000 A 
DOCKED: ATOM     11  C   UNL     1      25.698 -12.651  -4.817 -0.14 -0.00    +0.000 A 
DOCKED: ATOM     12  C   UNL     1      26.982 -12.535  -5.393 -0.19 -0.00    +0.000 A 
DOCKED: ATOM     13  O   UNL     1      28.302 -15.869  -4.732 -0.47 -0.00    +0.000 OA
DOCKED: ATOM     14  C   UNL     1      25.285 -13.920  -4.174 -0.44 -0.00    +0.000 C 
DOCKED: ATOM     15  O   UNL     1      24.128 -14.027  -3.684 -0.86 -0.00    +0.000 OA
DOCKED: ENDROOT
DOCKED: BRANCH   1  16
DOCKED: ATOM     16  C   UNL     1      25.851 -16.267  -3.397 -0.25 -0.00    +0.000 C 
DOCKED: BRANCH  16  17
DOCKED: ATOM     17  C   UNL     1      25.519 -15.992  -1.920 -0.55 -0.00    +0.000 C 
DOCKED: BRANCH  17  18
DOCKED: ATOM     18  C   UNL     1      24.963 -17.211  -1.160 -0.67 -0.00    +0.000 C 
DOCKED: BRANCH  18  19
DOCKED: ATOM     19  C   UNL     1      23.613 -17.742  -1.688 -0.56 -0.00    +0.000 C 
DOCKED: BRANCH  19  20
DOCKED: ATOM     20  C   UNL     1      22.933 -18.775  -0.775 -0.83 -0.00    +0.000 C 
DOCKED: BRANCH  20  22
DOCKED: ATOM     21  O   UNL     1      20.648 -18.235  -0.332 -2.02 -0.00    +0.000 OA
DOCKED: ATOM     22  C   UNL     1      21.461 -18.883  -1.045 -0.84 -0.00    +0.000 C 
DOCKED: ATOM     23  N   UNL     1      20.975 -19.740  -2.080 -0.51 -0.00    +0.000 N 
DOCKED: ATOM     24  H   UNL     1      21.612 -20.251  -2.631 -0.60 -0.00    +0.000 HD
DOCKED: BRANCH  23  25
DOCKED: ATOM     25  O   UNL     1      19.645 -19.856  -2.312 -1.49 -0.00    +0.000 OA
DOCKED: ATOM     26  H   UNL     1      19.158 -19.310  -1.675 -0.50 -0.00    +0.000 HD
DOCKED: ENDBRANCH  23  25
DOCKED: ENDBRANCH  20  22
DOCKED: ENDBRANCH  19  20
DOCKED: ENDBRANCH  18  19
DOCKED: ENDBRANCH  17  18
DOCKED: ENDBRANCH  16  17
DOCKED: ENDBRANCH   1  16
DOCKED: TORSDOF 7
DOCKED: TER
DOCKED: ENDMDL
________________________________________________________________________________


	BEGINNING GENETIC ALGORITHM DOCKING 57 of 100
Run: 57 Seed: 744263514 1486035487 [ Run 57 of 100 GA/GALS ]
Beginning LAMARCKIAN GENETIC ALGORITHM (LGA), with a maximum of 2500000 energy evaluations.

Final-Value: -14.140


	FINAL GENETIC ALGORITHM DOCKED STATE
	_______________________________________________


Detailed state:  trans 28.434 -15.123 -0.956 quatxyzw 0.509314 0.580972 0.457194 0.440503 center 0.154 0.112 -0.159 ntor 7 -1.5576 -142.4238 64.0745 -9.5408 67.5946 -123.5055 179.9978
State:	 28.434 -15.123  -0.956   0.567  0.647  0.509 127.728     -1.56 -142.42   64.07   -9.54   67.59 -123.51  180.00

DOCKED: MODEL       57
DOCKED: USER    Run = 57
DOCKED: USER    DPF = ligand_dock.biased.dpf
DOCKED: USER  
DOCKED: USER    Estimated Free Energy of Binding    =  -10.91 kcal/mol  [=(1)+(2)+(3)-(4)]
DOCKED: USER    Estimated Inhibition Constant, Ki   =   10.11 nM (nanomolar)  [Temperature = 298.15 K]
DOCKED: USER    
DOCKED: USER    (1) Final Intermolecular Energy     =  -13.00 kcal/mol
DOCKED: USER        vdW + Hbond + desolv Energy     =  -13.00 kcal/mol
DOCKED: USER        Electrostatic Energy            =   +0.00 kcal/mol
DOCKED: USER    (2) Final Total Internal Energy     =   -1.14 kcal/mol
DOCKED: USER    (3) Torsional Free Energy           =   +2.09 kcal/mol
DOCKED: USER    (4) Unbound System's Energy  [=(2)] =   -1.14 kcal/mol
DOCKED: USER    
DOCKED: USER    
DOCKED: USER    NEWDPF move ligand.pdbqt
DOCKED: USER    NEWDPF about 0.154000 0.112000 -0.159000
DOCKED: USER    NEWDPF tran0 28.434149 -15.123112 -0.955840
DOCKED: USER    NEWDPF quaternion0 0.509314 0.580972 0.457194 0.440503
DOCKED: USER    NEWDPF axisangle0 0.567323 0.647142 0.509266 127.727996
DOCKED: USER    NEWDPF quat0 0.567323 0.647142 0.509266 127.727996
DOCKED: USER    NEWDPF dihe0 -1.56 -142.42 64.07 -9.54 67.59 -123.51 180.00 
DOCKED: USER  keepresnum = 1 
DOCKED: USER  
DOCKED: REMARK  Name = 
DOCKED: REMARK  7 active torsions:
DOCKED: REMARK  status: ('A' for Active; 'I' for Inactive)
DOCKED: REMARK    1  A    between atoms: C_2  and  C_5
DOCKED: REMARK    2  A    between atoms: N_3  and  O_4
DOCKED: REMARK    3  A    between atoms: C_5  and  C_6
DOCKED: REMARK    4  A    between atoms: C_6  and  C_7
DOCKED: REMARK    5  A    between atoms: C_7  and  C_8
DOCKED: REMARK    6  A    between atoms: C_8  and  C_9
DOCKED: REMARK    7  A    between atoms: C_9  and  N_10
DOCKED: REMARK                            x       y       z     vdW  Elec       q    Type
DOCKED: REMARK                         _______ _______ _______ _____ _____    ______ ____
DOCKED: USER                              x       y       z     vdW  Elec       q    Type
DOCKED: USER                           _______ _______ _______ _____ _____    ______ ____
DOCKED: ROOT
DOCKED: ATOM      1  N   UNL     1      27.675 -16.330  -1.416 -0.32 -0.00    +0.000 N 
DOCKED: ATOM      2  C   UNL     1      28.741 -17.188  -1.871 -0.22 -0.00    +0.000 C 
DOCKED: ATOM      3  C   UNL     1      29.313 -17.006  -3.224 -0.16 -0.00    +0.000 A 
DOCKED: ATOM      4  C   UNL     1      30.370 -17.821  -3.668 -0.16 -0.00    +0.000 A 
DOCKED: ATOM      5  C   UNL     1      30.911 -17.647  -4.943 -0.22 -0.00    +0.000 A 
DOCKED: ATOM      6  C   UNL     1      30.409 -16.663  -5.793 -0.27 -0.00    +0.000 A 
DOCKED: ATOM      7  C   UNL     1      29.356 -15.838  -5.374 -0.30 -0.00    +0.000 A 
DOCKED: ATOM      8  C   UNL     1      28.850 -14.850  -6.229 -0.35 -0.00    +0.000 A 
DOCKED: ATOM      9  C   UNL     1      27.801 -14.030  -5.812 -0.27 -0.00    +0.000 A 
DOCKED: ATOM     10  C   UNL     1      27.247 -14.188  -4.542 -0.32 -0.00    +0.000 A 
DOCKED: ATOM     11  C   UNL     1      27.736 -15.173  -3.665 -0.29 -0.00    +0.000 A 
DOCKED: ATOM     12  C   UNL     1      28.799 -16.006  -4.079 -0.25 -0.00    +0.000 A 
DOCKED: ATOM     13  O   UNL     1      29.185 -18.097  -1.117 -0.31 -0.00    +0.000 OA
DOCKED: ATOM     14  C   UNL     1      27.146 -15.338  -2.317 -0.33 -0.00    +0.000 C 
DOCKED: ATOM     15  O   UNL     1      26.180 -14.609  -1.961 -0.36 -0.00    +0.000 OA
DOCKED: ENDROOT
DOCKED: BRANCH   1  16
DOCKED: ATOM     16  C   UNL     1      27.166 -16.452  -0.038 -0.40 -0.00    +0.000 C 
DOCKED: BRANCH  16  17
DOCKED: ATOM     17  C   UNL     1      25.810 -17.178  -0.000 -0.33 -0.00    +0.000 C 
DOCKED: BRANCH  17  18
DOCKED: ATOM     18  C   UNL     1      24.698 -16.480  -0.806 -0.52 -0.00    +0.000 C 
DOCKED: BRANCH  18  19
DOCKED: ATOM     19  C   UNL     1      23.826 -17.426  -1.659 -0.56 -0.00    +0.000 C 
DOCKED: BRANCH  19  20
DOCKED: ATOM     20  C   UNL     1      23.144 -18.552  -0.865 -0.83 -0.00    +0.000 C 
DOCKED: BRANCH  20  22
DOCKED: ATOM     21  O   UNL     1      20.953 -17.609  -0.710 -2.11 -0.00    +0.000 OA
DOCKED: ATOM     22  C   UNL     1      21.660 -18.581  -1.090 -0.79 -0.00    +0.000 C 
DOCKED: ATOM     23  N   UNL     1      21.042 -19.718  -1.699 -0.68 -0.00    +0.000 N 
DOCKED: ATOM     24  H   UNL     1      21.596 -20.479  -1.987 -0.45 -0.00    +0.000 HD
DOCKED: BRANCH  23  25
DOCKED: ATOM     25  O   UNL     1      19.701 -19.755  -1.884 -1.76 -0.00    +0.000 OA
DOCKED: ATOM     26  H   UNL     1      19.302 -18.946  -1.527 -0.43 -0.00    +0.000 HD
DOCKED: ENDBRANCH  23  25
DOCKED: ENDBRANCH  20  22
DOCKED: ENDBRANCH  19  20
DOCKED: ENDBRANCH  18  19
DOCKED: ENDBRANCH  17  18
DOCKED: ENDBRANCH  16  17
DOCKED: ENDBRANCH   1  16
DOCKED: TORSDOF 7
DOCKED: TER
DOCKED: ENDMDL
________________________________________________________________________________


	BEGINNING GENETIC ALGORITHM DOCKING 58 of 100
Run: 58 Seed: 500554862 2002019221 [ Run 58 of 100 GA/GALS ]
Beginning LAMARCKIAN GENETIC ALGORITHM (LGA), with a maximum of 2500000 energy evaluations.

Final-Value: -14.694


	FINAL GENETIC ALGORITHM DOCKED STATE
	_______________________________________________


Detailed state:  trans 26.576 -17.448 -1.879 quatxyzw 0.483551 -0.703431 0.511970 -0.096180 center 0.154 0.112 -0.159 ntor 7 -126.3062 -152.6823 175.3537 -171.7357 -120.1940 -131.3581 44.8836
State:	 26.576 -17.448  -1.879   0.486 -0.707  0.514 -168.961   -126.31 -152.68  175.35 -171.74 -120.19 -131.36   44.88

DOCKED: MODEL       58
DOCKED: USER    Run = 58
DOCKED: USER    DPF = ligand_dock.biased.dpf
DOCKED: USER  
DOCKED: USER    Estimated Free Energy of Binding    =  -11.66 kcal/mol  [=(1)+(2)+(3)-(4)]
DOCKED: USER    Estimated Inhibition Constant, Ki   =    2.85 nM (nanomolar)  [Temperature = 298.15 K]
DOCKED: USER    
DOCKED: USER    (1) Final Intermolecular Energy     =  -13.75 kcal/mol
DOCKED: USER        vdW + Hbond + desolv Energy     =  -13.75 kcal/mol
DOCKED: USER        Electrostatic Energy            =   +0.00 kcal/mol
DOCKED: USER    (2) Final Total Internal Energy     =   -0.95 kcal/mol
DOCKED: USER    (3) Torsional Free Energy           =   +2.09 kcal/mol
DOCKED: USER    (4) Unbound System's Energy  [=(2)] =   -0.95 kcal/mol
DOCKED: USER    
DOCKED: USER    
DOCKED: USER    NEWDPF move ligand.pdbqt
DOCKED: USER    NEWDPF about 0.154000 0.112000 -0.159000
DOCKED: USER    NEWDPF tran0 26.576483 -17.448269 -1.879494
DOCKED: USER    NEWDPF quaternion0 0.483551 -0.703431 0.511970 -0.096180
DOCKED: USER    NEWDPF axisangle0 0.485803 -0.706707 0.514354 -168.961469
DOCKED: USER    NEWDPF quat0 0.485803 -0.706707 0.514354 -168.961469
DOCKED: USER    NEWDPF dihe0 -126.31 -152.68 175.35 -171.74 -120.19 -131.36 44.88 
DOCKED: USER  keepresnum = 1 
DOCKED: USER  
DOCKED: REMARK  Name = 
DOCKED: REMARK  7 active torsions:
DOCKED: REMARK  status: ('A' for Active; 'I' for Inactive)
DOCKED: REMARK    1  A    between atoms: C_2  and  C_5
DOCKED: REMARK    2  A    between atoms: N_3  and  O_4
DOCKED: REMARK    3  A    between atoms: C_5  and  C_6
DOCKED: REMARK    4  A    between atoms: C_6  and  C_7
DOCKED: REMARK    5  A    between atoms: C_7  and  C_8
DOCKED: REMARK    6  A    between atoms: C_8  and  C_9
DOCKED: REMARK    7  A    between atoms: C_9  and  N_10
DOCKED: REMARK                            x       y       z     vdW  Elec       q    Type
DOCKED: REMARK                         _______ _______ _______ _____ _____    ______ ____
DOCKED: USER                              x       y       z     vdW  Elec       q    Type
DOCKED: USER                           _______ _______ _______ _____ _____    ______ ____
DOCKED: ROOT
DOCKED: ATOM      1  N   UNL     1      27.184 -16.241  -1.233 -0.35 -0.00    +0.000 N 
DOCKED: ATOM      2  C   UNL     1      26.505 -15.171  -1.919 -0.38 -0.00    +0.000 C 
DOCKED: ATOM      3  C   UNL     1      26.978 -14.723  -3.248 -0.31 -0.00    +0.000 A 
DOCKED: ATOM      4  C   UNL     1      26.307 -13.697  -3.937 -0.36 -0.00    +0.000 A 
DOCKED: ATOM      5  C   UNL     1      26.752 -13.277  -5.192 -0.14 -0.00    +0.000 A 
DOCKED: ATOM      6  C   UNL     1      27.869 -13.871  -5.778 -0.26 -0.00    +0.000 A 
DOCKED: ATOM      7  C   UNL     1      28.555 -14.895  -5.111 -0.30 -0.00    +0.000 A 
DOCKED: ATOM      8  C   UNL     1      29.679 -15.490  -5.700 -0.28 -0.00    +0.000 A 
DOCKED: ATOM      9  C   UNL     1      30.363 -16.509  -5.036 -0.23 -0.00    +0.000 A 
DOCKED: ATOM     10  C   UNL     1      29.934 -16.942  -3.781 -0.21 -0.00    +0.000 A 
DOCKED: ATOM     11  C   UNL     1      28.809 -16.361  -3.169 -0.23 -0.00    +0.000 A 
DOCKED: ATOM     12  C   UNL     1      28.111 -15.329  -3.835 -0.27 -0.00    +0.000 A 
DOCKED: ATOM     13  O   UNL     1      25.507 -14.611  -1.386 -0.37 -0.00    +0.000 OA
DOCKED: ATOM     14  C   UNL     1      28.356 -16.824  -1.837 -0.32 -0.00    +0.000 C 
DOCKED: ATOM     15  O   UNL     1      28.998 -17.727  -1.235 -0.34 -0.00    +0.000 OA
DOCKED: ENDROOT
DOCKED: BRANCH   1  16
DOCKED: ATOM     16  C   UNL     1      26.661 -16.747   0.048 -0.39 -0.00    +0.000 C 
DOCKED: BRANCH  16  17
DOCKED: ATOM     17  C   UNL     1      26.326 -18.247  -0.032 -0.63 -0.00    +0.000 C 
DOCKED: BRANCH  17  18
DOCKED: ATOM     18  C   UNL     1      25.139 -18.580  -0.955 -0.50 -0.00    +0.000 C 
DOCKED: BRANCH  18  19
DOCKED: ATOM     19  C   UNL     1      23.860 -17.759  -0.687 -0.77 -0.00    +0.000 C 
DOCKED: BRANCH  19  20
DOCKED: ATOM     20  C   UNL     1      22.739 -18.539   0.019 -0.76 -0.00    +0.000 C 
DOCKED: BRANCH  20  22
DOCKED: ATOM     21  O   UNL     1      20.758 -17.499  -0.822 -2.08 -0.00    +0.000 OA
DOCKED: ATOM     22  C   UNL     1      21.466 -18.541  -0.777 -0.85 -0.00    +0.000 C 
DOCKED: ATOM     23  N   UNL     1      21.037 -19.724  -1.455 -0.74 -0.00    +0.000 N 
DOCKED: ATOM     24  H   UNL     1      21.589 -20.539  -1.412 -0.20 -0.00    +0.000 HD
DOCKED: BRANCH  23  25
DOCKED: ATOM     25  O   UNL     1      19.879 -19.734  -2.157 -1.89 -0.00    +0.000 OA
DOCKED: ATOM     26  H   UNL     1      19.323 -20.469  -1.853 -0.58 -0.00    +0.000 HD
DOCKED: ENDBRANCH  23  25
DOCKED: ENDBRANCH  20  22
DOCKED: ENDBRANCH  19  20
DOCKED: ENDBRANCH  18  19
DOCKED: ENDBRANCH  17  18
DOCKED: ENDBRANCH  16  17
DOCKED: ENDBRANCH   1  16
DOCKED: TORSDOF 7
DOCKED: TER
DOCKED: ENDMDL
________________________________________________________________________________


	BEGINNING GENETIC ALGORITHM DOCKING 59 of 100
Run: 59 Seed: 861078347 984715043 [ Run 59 of 100 GA/GALS ]
Beginning LAMARCKIAN GENETIC ALGORITHM (LGA), with a maximum of 2500000 energy evaluations.

Final-Value: -14.444


	FINAL GENETIC ALGORITHM DOCKED STATE
	_______________________________________________


Detailed state:  trans 25.849 -16.273 -0.520 quatxyzw 0.261718 -0.726580 -0.323225 -0.546910 center 0.154 0.112 -0.159 ntor 7 -5.9971 180.0000 -170.2715 179.0832 166.5704 17.7918 34.5554
State:	 25.849 -16.273  -0.520   0.313 -0.868 -0.386 -113.689     -6.00  180.00 -170.27  179.08  166.57   17.79   34.56

DOCKED: MODEL       59
DOCKED: USER    Run = 59
DOCKED: USER    DPF = ligand_dock.biased.dpf
DOCKED: USER  
DOCKED: USER    Estimated Free Energy of Binding    =  -11.09 kcal/mol  [=(1)+(2)+(3)-(4)]
DOCKED: USER    Estimated Inhibition Constant, Ki   =    7.43 nM (nanomolar)  [Temperature = 298.15 K]
DOCKED: USER    
DOCKED: USER    (1) Final Intermolecular Energy     =  -13.18 kcal/mol
DOCKED: USER        vdW + Hbond + desolv Energy     =  -13.18 kcal/mol
DOCKED: USER        Electrostatic Energy            =   +0.00 kcal/mol
DOCKED: USER    (2) Final Total Internal Energy     =   -1.27 kcal/mol
DOCKED: USER    (3) Torsional Free Energy           =   +2.09 kcal/mol
DOCKED: USER    (4) Unbound System's Energy  [=(2)] =   -1.27 kcal/mol
DOCKED: USER    
DOCKED: USER    
DOCKED: USER    NEWDPF move ligand.pdbqt
DOCKED: USER    NEWDPF about 0.154000 0.112000 -0.159000
DOCKED: USER    NEWDPF tran0 25.849346 -16.273343 -0.519574
DOCKED: USER    NEWDPF quaternion0 0.261718 -0.726580 -0.323225 -0.546910
DOCKED: USER    NEWDPF axisangle0 0.312614 -0.867878 -0.386083 -113.689456
DOCKED: USER    NEWDPF quat0 0.312614 -0.867878 -0.386083 -113.689456
DOCKED: USER    NEWDPF dihe0 -6.00 180.00 -170.27 179.08 166.57 17.79 34.56 
DOCKED: USER  keepresnum = 1 
DOCKED: USER  
DOCKED: REMARK  Name = 
DOCKED: REMARK  7 active torsions:
DOCKED: REMARK  status: ('A' for Active; 'I' for Inactive)
DOCKED: REMARK    1  A    between atoms: C_2  and  C_5
DOCKED: REMARK    2  A    between atoms: N_3  and  O_4
DOCKED: REMARK    3  A    between atoms: C_5  and  C_6
DOCKED: REMARK    4  A    between atoms: C_6  and  C_7
DOCKED: REMARK    5  A    between atoms: C_7  and  C_8
DOCKED: REMARK    6  A    between atoms: C_8  and  C_9
DOCKED: REMARK    7  A    between atoms: C_9  and  N_10
DOCKED: REMARK                            x       y       z     vdW  Elec       q    Type
DOCKED: REMARK                         _______ _______ _______ _____ _____    ______ ____
DOCKED: USER                              x       y       z     vdW  Elec       q    Type
DOCKED: USER                           _______ _______ _______ _____ _____    ______ ____
DOCKED: ROOT
DOCKED: ATOM      1  N   UNL     1      27.054 -16.591  -1.352 -0.39 -0.00    +0.000 N 
DOCKED: ATOM      2  C   UNL     1      27.987 -15.586  -0.907 -0.28 -0.00    +0.000 C 
DOCKED: ATOM      3  C   UNL     1      27.931 -14.219  -1.472 -0.15 -0.00    +0.000 A 
DOCKED: ATOM      4  C   UNL     1      28.820 -13.225  -1.027 -0.07 -0.00    +0.000 A 
DOCKED: ATOM      5  C   UNL     1      28.765 -11.935  -1.557 -0.05 -0.00    +0.000 A 
DOCKED: ATOM      6  C   UNL     1      27.826 -11.616  -2.537 -0.09 -0.00    +0.000 A 
DOCKED: ATOM      7  C   UNL     1      26.929 -12.589  -2.998 -0.14 -0.00    +0.000 A 
DOCKED: ATOM      8  C   UNL     1      25.986 -12.269  -3.984 -0.17 -0.00    +0.000 A 
DOCKED: ATOM      9  C   UNL     1      25.093 -13.238  -4.444 -0.20 -0.00    +0.000 A 
DOCKED: ATOM     10  C   UNL     1      25.133 -14.534  -3.926 -0.40 -0.00    +0.000 A 
DOCKED: ATOM     11  C   UNL     1      26.070 -14.879  -2.936 -0.41 -0.00    +0.000 A 
DOCKED: ATOM     12  C   UNL     1      26.977 -13.904  -2.465 -0.22 -0.00    +0.000 A 
DOCKED: ATOM     13  O   UNL     1      28.857 -15.872  -0.038 -0.26 -0.00    +0.000 OA
DOCKED: ATOM     14  C   UNL     1      26.109 -16.255  -2.388 -0.50 -0.00    +0.000 C 
DOCKED: ATOM     15  O   UNL     1      25.316 -17.129  -2.830 -0.55 -0.00    +0.000 OA
DOCKED: ENDROOT
DOCKED: BRANCH   1  16
DOCKED: ATOM     16  C   UNL     1      27.052 -17.925  -0.727 -0.48 -0.00    +0.000 C 
DOCKED: BRANCH  16  17
DOCKED: ATOM     17  C   UNL     1      25.785 -18.150   0.117 -0.62 -0.00    +0.000 C 
DOCKED: BRANCH  17  18
DOCKED: ATOM     18  C   UNL     1      24.549 -18.573  -0.699 -0.74 -0.00    +0.000 C 
DOCKED: BRANCH  18  19
DOCKED: ATOM     19  C   UNL     1      23.311 -17.670  -0.515 -0.77 -0.00    +0.000 C 
DOCKED: BRANCH  19  20
DOCKED: ATOM     20  C   UNL     1      22.111 -18.361   0.150 -0.75 -0.00    +0.000 C 
DOCKED: BRANCH  20  22
DOCKED: ATOM     21  O   UNL     1      19.987 -17.861  -0.825 -1.94 -0.00    +0.000 OA
DOCKED: ATOM     22  C   UNL     1      20.996 -18.616  -0.823 -0.83 -0.00    +0.000 C 
DOCKED: ATOM     23  N   UNL     1      21.058 -19.727  -1.720 -0.67 -0.00    +0.000 N 
DOCKED: ATOM     24  H   UNL     1      21.844 -20.320  -1.710 -0.40 -0.00    +0.000 HD
DOCKED: BRANCH  23  25
DOCKED: ATOM     25  O   UNL     1      20.044 -19.971  -2.584 -1.64 -0.00    +0.000 OA
DOCKED: ATOM     26  H   UNL     1      19.312 -19.360  -2.405 -0.47 -0.00    +0.000 HD
DOCKED: ENDBRANCH  23  25
DOCKED: ENDBRANCH  20  22
DOCKED: ENDBRANCH  19  20
DOCKED: ENDBRANCH  18  19
DOCKED: ENDBRANCH  17  18
DOCKED: ENDBRANCH  16  17
DOCKED: ENDBRANCH   1  16
DOCKED: TORSDOF 7
DOCKED: TER
DOCKED: ENDMDL
________________________________________________________________________________


	BEGINNING GENETIC ALGORITHM DOCKING 60 of 100
Run: 60 Seed: 1092281906 1784472495 [ Run 60 of 100 GA/GALS ]
Beginning LAMARCKIAN GENETIC ALGORITHM (LGA), with a maximum of 2500000 energy evaluations.

Final-Value: -14.881


	FINAL GENETIC ALGORITHM DOCKED STATE
	_______________________________________________


Detailed state:  trans 25.589 -14.338 -2.083 quatxyzw -0.003545 0.630135 0.578544 0.517884 center 0.154 0.112 -0.159 ntor 7 -3.0297 166.0895 95.4405 -172.2842 -117.2749 131.5899 -10.1732
State:	 25.589 -14.338  -2.083  -0.004  0.737  0.676 117.619     -3.03  166.09   95.44 -172.28 -117.27  131.59  -10.17

DOCKED: MODEL       60
DOCKED: USER    Run = 60
DOCKED: USER    DPF = ligand_dock.biased.dpf
DOCKED: USER  
DOCKED: USER    Estimated Free Energy of Binding    =  -11.56 kcal/mol  [=(1)+(2)+(3)-(4)]
DOCKED: USER    Estimated Inhibition Constant, Ki   =    3.34 nM (nanomolar)  [Temperature = 298.15 K]
DOCKED: USER    
DOCKED: USER    (1) Final Intermolecular Energy     =  -13.65 kcal/mol
DOCKED: USER        vdW + Hbond + desolv Energy     =  -13.65 kcal/mol
DOCKED: USER        Electrostatic Energy            =   +0.00 kcal/mol
DOCKED: USER    (2) Final Total Internal Energy     =   -1.23 kcal/mol
DOCKED: USER    (3) Torsional Free Energy           =   +2.09 kcal/mol
DOCKED: USER    (4) Unbound System's Energy  [=(2)] =   -1.23 kcal/mol
DOCKED: USER    
DOCKED: USER    
DOCKED: USER    NEWDPF move ligand.pdbqt
DOCKED: USER    NEWDPF about 0.154000 0.112000 -0.159000
DOCKED: USER    NEWDPF tran0 25.589354 -14.337977 -2.082685
DOCKED: USER    NEWDPF quaternion0 -0.003545 0.630135 0.578544 0.517884
DOCKED: USER    NEWDPF axisangle0 -0.004144 0.736611 0.676304 117.619127
DOCKED: USER    NEWDPF quat0 -0.004144 0.736611 0.676304 117.619127
DOCKED: USER    NEWDPF dihe0 -3.03 166.09 95.44 -172.28 -117.27 131.59 -10.17 
DOCKED: USER  keepresnum = 1 
DOCKED: USER  
DOCKED: REMARK  Name = 
DOCKED: REMARK  7 active torsions:
DOCKED: REMARK  status: ('A' for Active; 'I' for Inactive)
DOCKED: REMARK    1  A    between atoms: C_2  and  C_5
DOCKED: REMARK    2  A    between atoms: N_3  and  O_4
DOCKED: REMARK    3  A    between atoms: C_5  and  C_6
DOCKED: REMARK    4  A    between atoms: C_6  and  C_7
DOCKED: REMARK    5  A    between atoms: C_7  and  C_8
DOCKED: REMARK    6  A    between atoms: C_8  and  C_9
DOCKED: REMARK    7  A    between atoms: C_9  and  N_10
DOCKED: REMARK                            x       y       z     vdW  Elec       q    Type
DOCKED: REMARK                         _______ _______ _______ _____ _____    ______ ____
DOCKED: USER                              x       y       z     vdW  Elec       q    Type
DOCKED: USER                           _______ _______ _______ _____ _____    ______ ____
DOCKED: ROOT
DOCKED: ATOM      1  N   UNL     1      26.049 -15.027  -3.331 -0.45 -0.00    +0.000 N 
DOCKED: ATOM      2  C   UNL     1      27.479 -14.862  -3.245 -0.30 -0.00    +0.000 C 
DOCKED: ATOM      3  C   UNL     1      28.108 -13.596  -3.686 -0.15 -0.00    +0.000 A 
DOCKED: ATOM      4  C   UNL     1      29.498 -13.416  -3.582 -0.06 -0.00    +0.000 A 
DOCKED: ATOM      5  C   UNL     1      30.091 -12.222  -3.996 -0.03 -0.00    +0.000 A 
DOCKED: ATOM      6  C   UNL     1      29.309 -11.192  -4.518 -0.04 -0.00    +0.000 A 
DOCKED: ATOM      7  C   UNL     1      27.921 -11.348  -4.632 -0.10 -0.00    +0.000 A 
DOCKED: ATOM      8  C   UNL     1      27.136 -10.313  -5.159 -0.11 -0.00    +0.000 A 
DOCKED: ATOM      9  C   UNL     1      25.754 -10.468  -5.273 -0.25 -0.00    +0.000 A 
DOCKED: ATOM     10  C   UNL     1      25.144 -11.655  -4.866 -0.33 -0.00    +0.000 A 
DOCKED: ATOM     11  C   UNL     1      25.909 -12.708  -4.335 -0.32 -0.00    +0.000 A 
DOCKED: ATOM     12  C   UNL     1      27.309 -12.558  -4.214 -0.19 -0.00    +0.000 A 
DOCKED: ATOM     13  O   UNL     1      28.197 -15.797  -2.796 -0.27 -0.00    +0.000 OA
DOCKED: ATOM     14  C   UNL     1      25.258 -13.966  -3.902 -0.49 -0.00    +0.000 C 
DOCKED: ATOM     15  O   UNL     1      24.012 -14.105  -4.035 -0.94 -0.00    +0.000 OA
DOCKED: ENDROOT
DOCKED: BRANCH   1  16
DOCKED: ATOM     16  C   UNL     1      25.414 -16.250  -2.810 -0.51 -0.00    +0.000 C 
DOCKED: BRANCH  16  17
DOCKED: ATOM     17  C   UNL     1      25.562 -16.354  -1.281 -0.56 -0.00    +0.000 C 
DOCKED: BRANCH  17  18
DOCKED: ATOM     18  C   UNL     1      25.263 -17.754  -0.712 -0.69 -0.00    +0.000 C 
DOCKED: BRANCH  18  19
DOCKED: ATOM     19  C   UNL     1      23.953 -18.393  -1.220 -0.78 -0.00    +0.000 C 
DOCKED: BRANCH  19  20
DOCKED: ATOM     20  C   UNL     1      22.813 -18.414  -0.188 -0.80 -0.00    +0.000 C 
DOCKED: BRANCH  20  22
DOCKED: ATOM     21  O   UNL     1      20.638 -17.579  -0.719 -2.15 +0.00    +0.000 OA
DOCKED: ATOM     22  C   UNL     1      21.465 -18.523  -0.839 -0.83 -0.00    +0.000 C 
DOCKED: ATOM     23  N   UNL     1      21.103 -19.702  -1.562 -0.69 -0.00    +0.000 N 
DOCKED: ATOM     24  H   UNL     1      21.748 -20.440  -1.647 -0.35 -0.00    +0.000 HD
DOCKED: BRANCH  23  25
DOCKED: ATOM     25  O   UNL     1      19.879 -19.810  -2.132 -1.87 -0.00    +0.000 OA
DOCKED: ATOM     26  H   UNL     1      19.351 -19.025  -1.918 -0.40 -0.00    +0.000 HD
DOCKED: ENDBRANCH  23  25
DOCKED: ENDBRANCH  20  22
DOCKED: ENDBRANCH  19  20
DOCKED: ENDBRANCH  18  19
DOCKED: ENDBRANCH  17  18
DOCKED: ENDBRANCH  16  17
DOCKED: ENDBRANCH   1  16
DOCKED: TORSDOF 7
DOCKED: TER
DOCKED: ENDMDL
________________________________________________________________________________


	BEGINNING GENETIC ALGORITHM DOCKING 61 of 100
Run: 61 Seed: 1620363371 687677993 [ Run 61 of 100 GA/GALS ]
Beginning LAMARCKIAN GENETIC ALGORITHM (LGA), with a maximum of 2500000 energy evaluations.

Final-Value: -14.907


	FINAL GENETIC ALGORITHM DOCKED STATE
	_______________________________________________


Detailed state:  trans 26.605 -17.312 -2.216 quatxyzw 0.360815 -0.661833 0.650924 -0.089938 center 0.154 0.112 -0.159 ntor 7 -14.5796 149.0340 55.2170 7.7133 148.5422 -131.2507 46.0759
State:	 26.605 -17.312  -2.216   0.362 -0.665  0.654 -169.680    -14.58  149.03   55.22    7.71  148.54 -131.25   46.08

DOCKED: MODEL       61
DOCKED: USER    Run = 61
DOCKED: USER    DPF = ligand_dock.biased.dpf
DOCKED: USER  
DOCKED: USER    Estimated Free Energy of Binding    =  -11.53 kcal/mol  [=(1)+(2)+(3)-(4)]
DOCKED: USER    Estimated Inhibition Constant, Ki   =    3.53 nM (nanomolar)  [Temperature = 298.15 K]
DOCKED: USER    
DOCKED: USER    (1) Final Intermolecular Energy     =  -13.62 kcal/mol
DOCKED: USER        vdW + Hbond + desolv Energy     =  -13.62 kcal/mol
DOCKED: USER        Electrostatic Energy            =   +0.00 kcal/mol
DOCKED: USER    (2) Final Total Internal Energy     =   -1.29 kcal/mol
DOCKED: USER    (3) Torsional Free Energy           =   +2.09 kcal/mol
DOCKED: USER    (4) Unbound System's Energy  [=(2)] =   -1.29 kcal/mol
DOCKED: USER    
DOCKED: USER    
DOCKED: USER    NEWDPF move ligand.pdbqt
DOCKED: USER    NEWDPF about 0.154000 0.112000 -0.159000
DOCKED: USER    NEWDPF tran0 26.605036 -17.311723 -2.216017
DOCKED: USER    NEWDPF quaternion0 0.360815 -0.661833 0.650924 -0.089938
DOCKED: USER    NEWDPF axisangle0 0.362283 -0.664526 0.653572 -169.679953
DOCKED: USER    NEWDPF quat0 0.362283 -0.664526 0.653572 -169.679953
DOCKED: USER    NEWDPF dihe0 -14.58 149.03 55.22 7.71 148.54 -131.25 46.08 
DOCKED: USER  keepresnum = 1 
DOCKED: USER  
DOCKED: REMARK  Name = 
DOCKED: REMARK  7 active torsions:
DOCKED: REMARK  status: ('A' for Active; 'I' for Inactive)
DOCKED: REMARK    1  A    between atoms: C_2  and  C_5
DOCKED: REMARK    2  A    between atoms: N_3  and  O_4
DOCKED: REMARK    3  A    between atoms: C_5  and  C_6
DOCKED: REMARK    4  A    between atoms: C_6  and  C_7
DOCKED: REMARK    5  A    between atoms: C_7  and  C_8
DOCKED: REMARK    6  A    between atoms: C_8  and  C_9
DOCKED: REMARK    7  A    between atoms: C_9  and  N_10
DOCKED: REMARK                            x       y       z     vdW  Elec       q    Type
DOCKED: REMARK                         _______ _______ _______ _____ _____    ______ ____
DOCKED: USER                              x       y       z     vdW  Elec       q    Type
DOCKED: USER                           _______ _______ _______ _____ _____    ______ ____
DOCKED: ROOT
DOCKED: ATOM      1  N   UNL     1      27.190 -16.018  -1.737 -0.32 -0.00    +0.000 N 
DOCKED: ATOM      2  C   UNL     1      26.844 -15.126  -2.814 -0.37 -0.00    +0.000 C 
DOCKED: ATOM      3  C   UNL     1      27.681 -15.076  -4.034 -0.32 -0.00    +0.000 A 
DOCKED: ATOM      4  C   UNL     1      27.338 -14.227  -5.102 -0.34 -0.00    +0.000 A 
DOCKED: ATOM      5  C   UNL     1      28.126 -14.183  -6.253 -0.27 -0.00    +0.000 A 
DOCKED: ATOM      6  C   UNL     1      29.264 -14.981  -6.359 -0.33 -0.00    +0.000 A 
DOCKED: ATOM      7  C   UNL     1      29.628 -15.834  -5.308 -0.27 -0.00    +0.000 A 
DOCKED: ATOM      8  C   UNL     1      30.773 -16.635  -5.414 -0.21 -0.00    +0.000 A 
DOCKED: ATOM      9  C   UNL     1      31.135 -17.484  -4.368 -0.17 -0.00    +0.000 A 
DOCKED: ATOM     10  C   UNL     1      30.361 -17.542  -3.208 -0.17 -0.00    +0.000 A 
DOCKED: ATOM     11  C   UNL     1      29.207 -16.749  -3.078 -0.21 -0.00    +0.000 A 
DOCKED: ATOM     12  C   UNL     1      28.833 -15.887  -4.133 -0.25 -0.00    +0.000 A 
DOCKED: ATOM     13  O   UNL     1      25.829 -14.382  -2.718 -0.42 -0.00    +0.000 OA
DOCKED: ATOM     14  C   UNL     1      28.386 -16.814  -1.847 -0.31 -0.00    +0.000 C 
DOCKED: ATOM     15  O   UNL     1      28.739 -17.565  -0.898 -0.38 -0.00    +0.000 OA
DOCKED: ENDROOT
DOCKED: BRANCH   1  16
DOCKED: ATOM     16  C   UNL     1      26.308 -16.133  -0.561 -0.44 -0.00    +0.000 C 
DOCKED: BRANCH  16  17
DOCKED: ATOM     17  C   UNL     1      25.834 -17.582  -0.352 -0.64 -0.00    +0.000 C 
DOCKED: BRANCH  17  18
DOCKED: ATOM     18  C   UNL     1      24.886 -18.101  -1.450 -0.58 -0.00    +0.000 C 
DOCKED: BRANCH  18  19
DOCKED: ATOM     19  C   UNL     1      23.749 -19.013  -0.945 -0.75 -0.00    +0.000 C 
DOCKED: BRANCH  19  20
DOCKED: ATOM     20  C   UNL     1      22.624 -18.276  -0.200 -0.82 -0.00    +0.000 C 
DOCKED: BRANCH  20  22
DOCKED: ATOM     21  O   UNL     1      20.593 -17.374  -1.082 -2.01 -0.00    +0.000 OA
DOCKED: ATOM     22  C   UNL     1      21.305 -18.400  -0.907 -0.77 -0.00    +0.000 C 
DOCKED: ATOM     23  N   UNL     1      20.838 -19.676  -1.349 -0.79 -0.00    +0.000 N 
DOCKED: ATOM     24  H   UNL     1      21.392 -20.477  -1.204 -0.22 -0.00    +0.000 HD
DOCKED: BRANCH  23  25
DOCKED: ATOM     25  O   UNL     1      19.638 -19.793  -1.968 -1.68 -0.00    +0.000 OA
DOCKED: ATOM     26  H   UNL     1      19.123 -18.983  -1.832 -0.57 -0.00    +0.000 HD
DOCKED: ENDBRANCH  23  25
DOCKED: ENDBRANCH  20  22
DOCKED: ENDBRANCH  19  20
DOCKED: ENDBRANCH  18  19
DOCKED: ENDBRANCH  17  18
DOCKED: ENDBRANCH  16  17
DOCKED: ENDBRANCH   1  16
DOCKED: TORSDOF 7
DOCKED: TER
DOCKED: ENDMDL
________________________________________________________________________________


	BEGINNING GENETIC ALGORITHM DOCKING 62 of 100
Run: 62 Seed: 1327780947 1768214386 [ Run 62 of 100 GA/GALS ]
Beginning LAMARCKIAN GENETIC ALGORITHM (LGA), with a maximum of 2500000 energy evaluations.

Final-Value: -14.564


	FINAL GENETIC ALGORITHM DOCKED STATE
	_______________________________________________


Detailed state:  trans 26.193 -17.365 -2.884 quatxyzw 0.249690 -0.546176 0.796729 0.067606 center 0.154 0.112 -0.159 ntor 7 -18.9882 -167.2128 -179.0733 53.9477 19.0577 68.1511 33.2732
State:	 26.193 -17.365  -2.884   0.250 -0.547  0.799 172.247    -18.99 -167.21 -179.07   53.95   19.06   68.15   33.27

DOCKED: MODEL       62
DOCKED: USER    Run = 62
DOCKED: USER    DPF = ligand_dock.biased.dpf
DOCKED: USER  
DOCKED: USER    Estimated Free Energy of Binding    =  -11.30 kcal/mol  [=(1)+(2)+(3)-(4)]
DOCKED: USER    Estimated Inhibition Constant, Ki   =    5.19 nM (nanomolar)  [Temperature = 298.15 K]
DOCKED: USER    
DOCKED: USER    (1) Final Intermolecular Energy     =  -13.39 kcal/mol
DOCKED: USER        vdW + Hbond + desolv Energy     =  -13.39 kcal/mol
DOCKED: USER        Electrostatic Energy            =   +0.00 kcal/mol
DOCKED: USER    (2) Final Total Internal Energy     =   -1.17 kcal/mol
DOCKED: USER    (3) Torsional Free Energy           =   +2.09 kcal/mol
DOCKED: USER    (4) Unbound System's Energy  [=(2)] =   -1.17 kcal/mol
DOCKED: USER    
DOCKED: USER    
DOCKED: USER    NEWDPF move ligand.pdbqt
DOCKED: USER    NEWDPF about 0.154000 0.112000 -0.159000
DOCKED: USER    NEWDPF tran0 26.193451 -17.364566 -2.884500
DOCKED: USER    NEWDPF quaternion0 0.249690 -0.546176 0.796729 0.067606
DOCKED: USER    NEWDPF axisangle0 0.250262 -0.547428 0.798556 172.247013
DOCKED: USER    NEWDPF quat0 0.250262 -0.547428 0.798556 172.247013
DOCKED: USER    NEWDPF dihe0 -18.99 -167.21 -179.07 53.95 19.06 68.15 33.27 
DOCKED: USER  keepresnum = 1 
DOCKED: USER  
DOCKED: REMARK  Name = 
DOCKED: REMARK  7 active torsions:
DOCKED: REMARK  status: ('A' for Active; 'I' for Inactive)
DOCKED: REMARK    1  A    between atoms: C_2  and  C_5
DOCKED: REMARK    2  A    between atoms: N_3  and  O_4
DOCKED: REMARK    3  A    between atoms: C_5  and  C_6
DOCKED: REMARK    4  A    between atoms: C_6  and  C_7
DOCKED: REMARK    5  A    between atoms: C_7  and  C_8
DOCKED: REMARK    6  A    between atoms: C_8  and  C_9
DOCKED: REMARK    7  A    between atoms: C_9  and  N_10
DOCKED: REMARK                            x       y       z     vdW  Elec       q    Type
DOCKED: REMARK                         _______ _______ _______ _____ _____    ______ ____
DOCKED: USER                              x       y       z     vdW  Elec       q    Type
DOCKED: USER                           _______ _______ _______ _____ _____    ______ ____
DOCKED: ROOT
DOCKED: ATOM      1  N   UNL     1      26.363 -15.905  -2.591 -0.41 -0.00    +0.000 N 
DOCKED: ATOM      2  C   UNL     1      26.437 -15.348  -3.918 -0.52 -0.00    +0.000 C 
DOCKED: ATOM      3  C   UNL     1      27.717 -15.369  -4.661 -0.36 -0.00    +0.000 A 
DOCKED: ATOM      4  C   UNL     1      27.794 -14.851  -5.966 -0.31 +0.00    +0.000 A 
DOCKED: ATOM      5  C   UNL     1      29.000 -14.873  -6.668 -0.31 -0.00    +0.000 A 
DOCKED: ATOM      6  C   UNL     1      30.146 -15.410  -6.082 -0.25 -0.00    +0.000 A 
DOCKED: ATOM      7  C   UNL     1      30.095 -15.932  -4.782 -0.20 -0.00    +0.000 A 
DOCKED: ATOM      8  C   UNL     1      31.248 -16.470  -4.193 -0.10 -0.00    +0.000 A 
DOCKED: ATOM      9  C   UNL     1      31.197 -16.989  -2.899 -0.10 -0.00    +0.000 A 
DOCKED: ATOM     10  C   UNL     1      30.001 -16.975  -2.181 -0.19 -0.00    +0.000 A 
DOCKED: ATOM     11  C   UNL     1      28.832 -16.441  -2.750 -0.23 -0.00    +0.000 A 
DOCKED: ATOM     12  C   UNL     1      28.873 -15.914  -4.060 -0.25 -0.00    +0.000 A 
DOCKED: ATOM     13  O   UNL     1      25.411 -14.838  -4.447 -0.89 -0.00    +0.000 OA
DOCKED: ATOM     14  C   UNL     1      27.563 -16.428  -1.986 -0.36 -0.00    +0.000 C 
DOCKED: ATOM     15  O   UNL     1      27.536 -16.876  -0.808 -0.44 -0.00    +0.000 OA
DOCKED: ENDROOT
DOCKED: BRANCH   1  16
DOCKED: ATOM     16  C   UNL     1      25.070 -15.965  -1.886 -0.52 -0.00    +0.000 C 
DOCKED: BRANCH  16  17
DOCKED: ATOM     17  C   UNL     1      24.557 -17.412  -1.772 -0.67 -0.00    +0.000 C 
DOCKED: BRANCH  17  18
DOCKED: ATOM     18  C   UNL     1      24.087 -17.805  -0.359 -0.73 -0.00    +0.000 C 
DOCKED: BRANCH  18  19
DOCKED: ATOM     19  C   UNL     1      22.605 -17.492  -0.060 -0.58 -0.00    +0.000 C 
DOCKED: BRANCH  19  20
DOCKED: ATOM     20  C   UNL     1      21.754 -18.721   0.299 -0.67 -0.00    +0.000 C 
DOCKED: BRANCH  20  22
DOCKED: ATOM     21  O   UNL     1      19.537 -18.412  -0.537 -1.40 -0.00    +0.000 OA
DOCKED: ATOM     22  C   UNL     1      20.660 -18.960  -0.700 -0.89 -0.00    +0.000 C 
DOCKED: ATOM     23  N   UNL     1      20.874 -19.830  -1.814 -0.60 -0.00    +0.000 N 
DOCKED: ATOM     24  H   UNL     1      21.750 -20.263  -1.935 -0.48 -0.00    +0.000 HD
DOCKED: BRANCH  23  25
DOCKED: ATOM     25  O   UNL     1      19.881 -20.064  -2.706 -1.51 -0.00    +0.000 OA
DOCKED: ATOM     26  H   UNL     1      19.028 -19.828  -2.309 -0.40 -0.00    +0.000 HD
DOCKED: ENDBRANCH  23  25
DOCKED: ENDBRANCH  20  22
DOCKED: ENDBRANCH  19  20
DOCKED: ENDBRANCH  18  19
DOCKED: ENDBRANCH  17  18
DOCKED: ENDBRANCH  16  17
DOCKED: ENDBRANCH   1  16
DOCKED: TORSDOF 7
DOCKED: TER
DOCKED: ENDMDL
________________________________________________________________________________


	BEGINNING GENETIC ALGORITHM DOCKING 63 of 100
Run: 63 Seed: 1610906414 405943081 [ Run 63 of 100 GA/GALS ]
Beginning LAMARCKIAN GENETIC ALGORITHM (LGA), with a maximum of 2500000 energy evaluations.

Final-Value: -11.902


	FINAL GENETIC ALGORITHM DOCKED STATE
	_______________________________________________


Detailed state:  trans 28.609 -12.663 2.958 quatxyzw -0.178417 -0.556348 0.444518 0.679006 center 0.154 0.112 -0.159 ntor 7 118.7836 89.3047 31.7508 -119.5198 38.3952 179.9202 63.4079
State:	 28.609 -12.663   2.958  -0.243 -0.758  0.606 94.468    118.78   89.30   31.75 -119.52   38.40  179.92   63.41

DOCKED: MODEL       63
DOCKED: USER    Run = 63
DOCKED: USER    DPF = ligand_dock.biased.dpf
DOCKED: USER  
DOCKED: USER    Estimated Free Energy of Binding    =   -6.95 kcal/mol  [=(1)+(2)+(3)-(4)]
DOCKED: USER    Estimated Inhibition Constant, Ki   =    8.02 uM (micromolar)  [Temperature = 298.15 K]
DOCKED: USER    
DOCKED: USER    (1) Final Intermolecular Energy     =   -9.04 kcal/mol
DOCKED: USER        vdW + Hbond + desolv Energy     =   -9.04 kcal/mol
DOCKED: USER        Electrostatic Energy            =   +0.00 kcal/mol
DOCKED: USER    (2) Final Total Internal Energy     =   -2.86 kcal/mol
DOCKED: USER    (3) Torsional Free Energy           =   +2.09 kcal/mol
DOCKED: USER    (4) Unbound System's Energy  [=(2)] =   -2.86 kcal/mol
DOCKED: USER    
DOCKED: USER    
DOCKED: USER    NEWDPF move ligand.pdbqt
DOCKED: USER    NEWDPF about 0.154000 0.112000 -0.159000
DOCKED: USER    NEWDPF tran0 28.608722 -12.662623 2.957629
DOCKED: USER    NEWDPF quaternion0 -0.178417 -0.556348 0.444518 0.679006
DOCKED: USER    NEWDPF axisangle0 -0.243031 -0.757829 0.605500 94.468016
DOCKED: USER    NEWDPF quat0 -0.243031 -0.757829 0.605500 94.468016
DOCKED: USER    NEWDPF dihe0 118.78 89.30 31.75 -119.52 38.40 179.92 63.41 
DOCKED: USER  keepresnum = 1 
DOCKED: USER  
DOCKED: REMARK  Name = 
DOCKED: REMARK  7 active torsions:
DOCKED: REMARK  status: ('A' for Active; 'I' for Inactive)
DOCKED: REMARK    1  A    between atoms: C_2  and  C_5
DOCKED: REMARK    2  A    between atoms: N_3  and  O_4
DOCKED: REMARK    3  A    between atoms: C_5  and  C_6
DOCKED: REMARK    4  A    between atoms: C_6  and  C_7
DOCKED: REMARK    5  A    between atoms: C_7  and  C_8
DOCKED: REMARK    6  A    between atoms: C_8  and  C_9
DOCKED: REMARK    7  A    between atoms: C_9  and  N_10
DOCKED: REMARK                            x       y       z     vdW  Elec       q    Type
DOCKED: REMARK                         _______ _______ _______ _____ _____    ______ ____
DOCKED: USER                              x       y       z     vdW  Elec       q    Type
DOCKED: USER                           _______ _______ _______ _____ _____    ______ ____
DOCKED: ROOT
DOCKED: ATOM      1  N   UNL     1      27.288 -12.107   3.396 -0.29 +0.00    +0.000 N 
DOCKED: ATOM      2  C   UNL     1      27.597 -10.706   3.543 -0.29 +0.00    +0.000 C 
DOCKED: ATOM      3  C   UNL     1      28.239 -10.214   4.783 -0.27 +0.00    +0.000 A 
DOCKED: ATOM      4  C   UNL     1      28.567  -8.854   4.925 -0.19 +0.00    +0.000 A 
DOCKED: ATOM      5  C   UNL     1      29.175  -8.391   6.093 -0.17 +0.00    +0.000 A 
DOCKED: ATOM      6  C   UNL     1      29.465  -9.272   7.133 -0.21 +0.00    +0.000 A 
DOCKED: ATOM      7  C   UNL     1      29.148 -10.632   7.016 -0.27 +0.00    +0.000 A 
DOCKED: ATOM      8  C   UNL     1      29.437 -11.518   8.062 -0.30 -0.00    +0.000 A 
DOCKED: ATOM      9  C   UNL     1      29.121 -12.872   7.945 -0.37 -0.00    +0.000 A 
DOCKED: ATOM     10  C   UNL     1      28.511 -13.354   6.786 -0.18 -0.00    +0.000 A 
DOCKED: ATOM     11  C   UNL     1      28.211 -12.486   5.722 -0.39 -0.00    +0.000 A 
DOCKED: ATOM     12  C   UNL     1      28.529 -11.114   5.832 -0.31 +0.00    +0.000 A 
DOCKED: ATOM     13  O   UNL     1      27.316  -9.897   2.616 -0.54 +0.00    +0.000 OA
DOCKED: ATOM     14  C   UNL     1      27.565 -13.000   4.492 -0.40 -0.00    +0.000 C 
DOCKED: ATOM     15  O   UNL     1      27.259 -14.221   4.409 -0.67 -0.00    +0.000 OA
DOCKED: ENDROOT
DOCKED: BRANCH   1  16
DOCKED: ATOM     16  C   UNL     1      26.731 -12.611   2.128 -0.35 -0.00    +0.000 C 
DOCKED: BRANCH  16  17
DOCKED: ATOM     17  C   UNL     1      27.350 -13.965   1.740 -0.29 -0.00    +0.000 C 
DOCKED: BRANCH  17  18
DOCKED: ATOM     18  C   UNL     1      28.160 -13.937   0.430 -0.20 -0.00    +0.000 C 
DOCKED: BRANCH  18  19
DOCKED: ATOM     19  C   UNL     1      29.690 -14.025   0.613 -0.12 -0.00    +0.000 C 
DOCKED: BRANCH  19  20
DOCKED: ATOM     20  C   UNL     1      30.278 -12.981   1.575 -0.07 -0.00    +0.000 C 
DOCKED: BRANCH  20  22
DOCKED: ATOM     21  O   UNL     1      31.081 -12.873   3.823 -0.12 -0.00    +0.000 OA
DOCKED: ATOM     22  C   UNL     1      30.401 -13.510   2.975 -0.16 -0.00    +0.000 C 
DOCKED: ATOM     23  N   UNL     1      29.780 -14.745   3.339 -0.23 -0.00    +0.000 N 
DOCKED: ATOM     24  H   UNL     1      29.256 -15.244   2.671 -2.03 -0.00    +0.000 HD
DOCKED: BRANCH  23  25
DOCKED: ATOM     25  O   UNL     1      29.908 -15.235   4.596 -0.40 -0.00    +0.000 OA
DOCKED: ATOM     26  H   UNL     1      29.032 -15.303   5.007 -0.22 -0.00    +0.000 HD
DOCKED: ENDBRANCH  23  25
DOCKED: ENDBRANCH  20  22
DOCKED: ENDBRANCH  19  20
DOCKED: ENDBRANCH  18  19
DOCKED: ENDBRANCH  17  18
DOCKED: ENDBRANCH  16  17
DOCKED: ENDBRANCH   1  16
DOCKED: TORSDOF 7
DOCKED: TER
DOCKED: ENDMDL
________________________________________________________________________________


	BEGINNING GENETIC ALGORITHM DOCKING 64 of 100
Run: 64 Seed: 633925306 646700098 [ Run 64 of 100 GA/GALS ]
Beginning LAMARCKIAN GENETIC ALGORITHM (LGA), with a maximum of 2500000 energy evaluations.

Final-Value: -14.189


	FINAL GENETIC ALGORITHM DOCKED STATE
	_______________________________________________


Detailed state:  trans 27.873 -15.434 -0.684 quatxyzw -0.288837 -0.560051 -0.427189 -0.648402 center 0.154 0.112 -0.159 ntor 7 9.5608 64.1318 149.1706 -176.7768 69.0659 -175.8351 178.0313
State:	 27.873 -15.434  -0.684  -0.379 -0.736 -0.561 -99.157      9.56   64.13  149.17 -176.78   69.07 -175.84  178.03

DOCKED: MODEL       64
DOCKED: USER    Run = 64
DOCKED: USER    DPF = ligand_dock.biased.dpf
DOCKED: USER  
DOCKED: USER    Estimated Free Energy of Binding    =  -10.69 kcal/mol  [=(1)+(2)+(3)-(4)]
DOCKED: USER    Estimated Inhibition Constant, Ki   =   14.52 nM (nanomolar)  [Temperature = 298.15 K]
DOCKED: USER    
DOCKED: USER    (1) Final Intermolecular Energy     =  -12.78 kcal/mol
DOCKED: USER        vdW + Hbond + desolv Energy     =  -12.78 kcal/mol
DOCKED: USER        Electrostatic Energy            =   +0.00 kcal/mol
DOCKED: USER    (2) Final Total Internal Energy     =   -1.41 kcal/mol
DOCKED: USER    (3) Torsional Free Energy           =   +2.09 kcal/mol
DOCKED: USER    (4) Unbound System's Energy  [=(2)] =   -1.41 kcal/mol
DOCKED: USER    
DOCKED: USER    
DOCKED: USER    NEWDPF move ligand.pdbqt
DOCKED: USER    NEWDPF about 0.154000 0.112000 -0.159000
DOCKED: USER    NEWDPF tran0 27.872839 -15.433526 -0.683616
DOCKED: USER    NEWDPF quaternion0 -0.288837 -0.560051 -0.427189 -0.648402
DOCKED: USER    NEWDPF axisangle0 -0.379401 -0.735653 -0.561133 -99.157476
DOCKED: USER    NEWDPF quat0 -0.379401 -0.735653 -0.561133 -99.157476
DOCKED: USER    NEWDPF dihe0 9.56 64.13 149.17 -176.78 69.07 -175.84 178.03 
DOCKED: USER  keepresnum = 1 
DOCKED: USER  
DOCKED: REMARK  Name = 
DOCKED: REMARK  7 active torsions:
DOCKED: REMARK  status: ('A' for Active; 'I' for Inactive)
DOCKED: REMARK    1  A    between atoms: C_2  and  C_5
DOCKED: REMARK    2  A    between atoms: N_3  and  O_4
DOCKED: REMARK    3  A    between atoms: C_5  and  C_6
DOCKED: REMARK    4  A    between atoms: C_6  and  C_7
DOCKED: REMARK    5  A    between atoms: C_7  and  C_8
DOCKED: REMARK    6  A    between atoms: C_8  and  C_9
DOCKED: REMARK    7  A    between atoms: C_9  and  N_10
DOCKED: REMARK                            x       y       z     vdW  Elec       q    Type
DOCKED: REMARK                         _______ _______ _______ _____ _____    ______ ____
DOCKED: USER                              x       y       z     vdW  Elec       q    Type
DOCKED: USER                           _______ _______ _______ _____ _____    ______ ____
DOCKED: ROOT
DOCKED: ATOM      1  N   UNL     1      27.613 -16.604  -1.583 -0.34 -0.00    +0.000 N 
DOCKED: ATOM      2  C   UNL     1      28.841 -16.671  -2.334 -0.27 -0.00    +0.000 C 
DOCKED: ATOM      3  C   UNL     1      29.044 -15.789  -3.506 -0.21 -0.00    +0.000 A 
DOCKED: ATOM      4  C   UNL     1      30.249 -15.830  -4.230 -0.15 -0.00    +0.000 A 
DOCKED: ATOM      5  C   UNL     1      30.441 -14.996  -5.333 -0.14 -0.00    +0.000 A 
DOCKED: ATOM      6  C   UNL     1      29.438 -14.112  -5.730 -0.20 -0.00    +0.000 A 
DOCKED: ATOM      7  C   UNL     1      28.229 -14.054  -5.025 -0.25 -0.00    +0.000 A 
DOCKED: ATOM      8  C   UNL     1      27.220 -13.166  -5.426 -0.18 -0.00    +0.000 A 
DOCKED: ATOM      9  C   UNL     1      26.016 -13.109  -4.724 -0.18 -0.00    +0.000 A 
DOCKED: ATOM     10  C   UNL     1      25.805 -13.935  -3.619 -0.40 -0.00    +0.000 A 
DOCKED: ATOM     11  C   UNL     1      26.801 -14.833  -3.198 -0.34 -0.00    +0.000 A 
DOCKED: ATOM     12  C   UNL     1      28.024 -14.897  -3.902 -0.25 -0.00    +0.000 A 
DOCKED: ATOM     13  O   UNL     1      29.745 -17.485  -1.996 -0.27 -0.00    +0.000 OA
DOCKED: ATOM     14  C   UNL     1      26.574 -15.708  -2.024 -0.42 -0.00    +0.000 C 
DOCKED: ATOM     15  O   UNL     1      25.471 -15.666  -1.414 -0.49 -0.00    +0.000 OA
DOCKED: ENDROOT
DOCKED: BRANCH   1  16
DOCKED: ATOM     16  C   UNL     1      27.447 -17.417  -0.365 -0.44 -0.00    +0.000 C 
DOCKED: BRANCH  16  17
DOCKED: ATOM     17  C   UNL     1      26.501 -18.607  -0.606 -0.43 -0.00    +0.000 C 
DOCKED: BRANCH  17  18
DOCKED: ATOM     18  C   UNL     1      25.162 -18.512   0.149 -0.41 -0.00    +0.000 C 
DOCKED: BRANCH  18  19
DOCKED: ATOM     19  C   UNL     1      23.925 -18.935  -0.672 -0.71 -0.00    +0.000 C 
DOCKED: BRANCH  19  20
DOCKED: ATOM     20  C   UNL     1      22.978 -17.781  -1.038 -0.76 -0.00    +0.000 C 
DOCKED: BRANCH  20  22
DOCKED: ATOM     21  O   UNL     1      20.630 -17.477  -0.710 -2.07 +0.00    +0.000 OA
DOCKED: ATOM     22  C   UNL     1      21.549 -18.232  -1.127 -0.58 -0.00    +0.000 C 
DOCKED: ATOM     23  N   UNL     1      21.228 -19.524  -1.648 -0.66 -0.00    +0.000 N 
DOCKED: ATOM     24  H   UNL     1      21.949 -20.115  -1.966 -0.51 -0.00    +0.000 HD
DOCKED: BRANCH  23  25
DOCKED: ATOM     25  O   UNL     1      19.941 -19.941  -1.710 -1.75 -0.00    +0.000 OA
DOCKED: ATOM     26  H   UNL     1      19.350 -19.200  -1.506 -0.36 -0.00    +0.000 HD
DOCKED: ENDBRANCH  23  25
DOCKED: ENDBRANCH  20  22
DOCKED: ENDBRANCH  19  20
DOCKED: ENDBRANCH  18  19
DOCKED: ENDBRANCH  17  18
DOCKED: ENDBRANCH  16  17
DOCKED: ENDBRANCH   1  16
DOCKED: TORSDOF 7
DOCKED: TER
DOCKED: ENDMDL
________________________________________________________________________________


	BEGINNING GENETIC ALGORITHM DOCKING 65 of 100
Run: 65 Seed: 271615544 937213975 [ Run 65 of 100 GA/GALS ]
Beginning LAMARCKIAN GENETIC ALGORITHM (LGA), with a maximum of 2500000 energy evaluations.

Final-Value: -14.142


	FINAL GENETIC ALGORITHM DOCKED STATE
	_______________________________________________


Detailed state:  trans 26.760 -14.545 -2.264 quatxyzw 0.319190 0.798629 0.458230 0.224353 center 0.154 0.112 -0.159 ntor 7 -0.6577 -139.8893 75.0817 159.9982 89.2597 64.5359 -166.7786
State:	 26.760 -14.545  -2.264   0.328  0.820  0.470 154.070     -0.66 -139.89   75.08  160.00   89.26   64.54 -166.78

DOCKED: MODEL       65
DOCKED: USER    Run = 65
DOCKED: USER    DPF = ligand_dock.biased.dpf
DOCKED: USER  
DOCKED: USER    Estimated Free Energy of Binding    =  -10.91 kcal/mol  [=(1)+(2)+(3)-(4)]
DOCKED: USER    Estimated Inhibition Constant, Ki   =   10.07 nM (nanomolar)  [Temperature = 298.15 K]
DOCKED: USER    
DOCKED: USER    (1) Final Intermolecular Energy     =  -13.00 kcal/mol
DOCKED: USER        vdW + Hbond + desolv Energy     =  -13.00 kcal/mol
DOCKED: USER        Electrostatic Energy            =   +0.00 kcal/mol
DOCKED: USER    (2) Final Total Internal Energy     =   -1.14 kcal/mol
DOCKED: USER    (3) Torsional Free Energy           =   +2.09 kcal/mol
DOCKED: USER    (4) Unbound System's Energy  [=(2)] =   -1.14 kcal/mol
DOCKED: USER    
DOCKED: USER    
DOCKED: USER    NEWDPF move ligand.pdbqt
DOCKED: USER    NEWDPF about 0.154000 0.112000 -0.159000
DOCKED: USER    NEWDPF tran0 26.759687 -14.545299 -2.264373
DOCKED: USER    NEWDPF quaternion0 0.319190 0.798629 0.458230 0.224353
DOCKED: USER    NEWDPF axisangle0 0.327540 0.819520 0.470217 154.070376
DOCKED: USER    NEWDPF quat0 0.327540 0.819520 0.470217 154.070376
DOCKED: USER    NEWDPF dihe0 -0.66 -139.89 75.08 160.00 89.26 64.54 -166.78 
DOCKED: USER  keepresnum = 1 
DOCKED: USER  
DOCKED: REMARK  Name = 
DOCKED: REMARK  7 active torsions:
DOCKED: REMARK  status: ('A' for Active; 'I' for Inactive)
DOCKED: REMARK    1  A    between atoms: C_2  and  C_5
DOCKED: REMARK    2  A    between atoms: N_3  and  O_4
DOCKED: REMARK    3  A    between atoms: C_5  and  C_6
DOCKED: REMARK    4  A    between atoms: C_6  and  C_7
DOCKED: REMARK    5  A    between atoms: C_7  and  C_8
DOCKED: REMARK    6  A    between atoms: C_8  and  C_9
DOCKED: REMARK    7  A    between atoms: C_9  and  N_10
DOCKED: REMARK                            x       y       z     vdW  Elec       q    Type
DOCKED: REMARK                         _______ _______ _______ _____ _____    ______ ____
DOCKED: USER                              x       y       z     vdW  Elec       q    Type
DOCKED: USER                           _______ _______ _______ _____ _____    ______ ____
DOCKED: ROOT
DOCKED: ATOM      1  N   UNL     1      26.630 -15.984  -2.663 -0.39 -0.00    +0.000 N 
DOCKED: ATOM      2  C   UNL     1      27.866 -16.535  -2.169 -0.33 -0.00    +0.000 C 
DOCKED: ATOM      3  C   UNL     1      29.108 -16.405  -2.965 -0.22 -0.00    +0.000 A 
DOCKED: ATOM      4  C   UNL     1      30.324 -16.917  -2.480 -0.16 -0.00    +0.000 A 
DOCKED: ATOM      5  C   UNL     1      31.495 -16.791  -3.229 -0.08 -0.00    +0.000 A 
DOCKED: ATOM      6  C   UNL     1      31.473 -16.155  -4.469 -0.08 -0.00    +0.000 A 
DOCKED: ATOM      7  C   UNL     1      30.273 -15.637  -4.975 -0.18 -0.00    +0.000 A 
DOCKED: ATOM      8  C   UNL     1      30.250 -14.999  -6.223 -0.23 -0.00    +0.000 A 
DOCKED: ATOM      9  C   UNL     1      29.055 -14.483  -6.726 -0.33 -0.00    +0.000 A 
DOCKED: ATOM     10  C   UNL     1      27.874 -14.600  -5.992 -0.28 -0.00    +0.000 A 
DOCKED: ATOM     11  C   UNL     1      27.871 -15.235  -4.738 -0.37 -0.00    +0.000 A 
DOCKED: ATOM     12  C   UNL     1      29.076 -15.759  -4.221 -0.24 -0.00    +0.000 A 
DOCKED: ATOM     13  O   UNL     1      27.892 -17.134  -1.058 -0.44 -0.00    +0.000 OA
DOCKED: ATOM     14  C   UNL     1      26.616 -15.356  -3.961 -0.50 -0.00    +0.000 C 
DOCKED: ATOM     15  O   UNL     1      25.537 -14.911  -4.439 -0.85 -0.00    +0.000 OA
DOCKED: ENDROOT
DOCKED: BRANCH   1  16
DOCKED: ATOM     16  C   UNL     1      25.414 -16.035  -1.832 -0.55 -0.00    +0.000 C 
DOCKED: BRANCH  16  17
DOCKED: ATOM     17  C   UNL     1      24.601 -17.314  -2.101 -0.54 -0.00    +0.000 C 
DOCKED: BRANCH  17  18
DOCKED: ATOM     18  C   UNL     1      24.239 -18.109  -0.833 -0.78 -0.00    +0.000 C 
DOCKED: BRANCH  18  19
DOCKED: ATOM     19  C   UNL     1      23.029 -19.056  -0.987 -0.80 -0.00    +0.000 C 
DOCKED: BRANCH  19  20
DOCKED: ATOM     20  C   UNL     1      22.012 -18.983   0.163 -0.54 -0.00    +0.000 C 
DOCKED: BRANCH  20  22
DOCKED: ATOM     21  O   UNL     1      20.194 -18.051  -1.076 -2.08 -0.00    +0.000 OA
DOCKED: ATOM     22  C   UNL     1      20.596 -18.988  -0.336 -0.82 -0.00    +0.000 C 
DOCKED: ATOM     23  N   UNL     1      19.696 -20.028   0.052 -0.75 -0.00    +0.000 N 
DOCKED: ATOM     24  H   UNL     1      20.011 -20.754   0.637 -0.08 -0.00    +0.000 HD
DOCKED: BRANCH  23  25
DOCKED: ATOM     25  O   UNL     1      18.412 -20.023  -0.380 -0.84 -0.00    +0.000 OA
DOCKED: ATOM     26  H   UNL     1      18.259 -19.242  -0.934 -0.56 -0.00    +0.000 HD
DOCKED: ENDBRANCH  23  25
DOCKED: ENDBRANCH  20  22
DOCKED: ENDBRANCH  19  20
DOCKED: ENDBRANCH  18  19
DOCKED: ENDBRANCH  17  18
DOCKED: ENDBRANCH  16  17
DOCKED: ENDBRANCH   1  16
DOCKED: TORSDOF 7
DOCKED: TER
DOCKED: ENDMDL
________________________________________________________________________________


	BEGINNING GENETIC ALGORITHM DOCKING 66 of 100
Run: 66 Seed: 39704710 156703622 [ Run 66 of 100 GA/GALS ]
Beginning LAMARCKIAN GENETIC ALGORITHM (LGA), with a maximum of 2500000 energy evaluations.

Final-Value: -13.783


	FINAL GENETIC ALGORITHM DOCKED STATE
	_______________________________________________


Detailed state:  trans 27.736 -17.473 -2.420 quatxyzw -0.509678 0.513446 -0.499140 -0.476928 center 0.154 0.112 -0.159 ntor 7 14.3868 -1.6091 -175.9446 162.2089 27.1264 16.4994 -166.1425
State:	 27.736 -17.473  -2.420  -0.580  0.584 -0.568 -123.030     14.39   -1.61 -175.94  162.21   27.13   16.50 -166.14

DOCKED: MODEL       66
DOCKED: USER    Run = 66
DOCKED: USER    DPF = ligand_dock.biased.dpf
DOCKED: USER  
DOCKED: USER    Estimated Free Energy of Binding    =  -10.37 kcal/mol  [=(1)+(2)+(3)-(4)]
DOCKED: USER    Estimated Inhibition Constant, Ki   =   24.91 nM (nanomolar)  [Temperature = 298.15 K]
DOCKED: USER    
DOCKED: USER    (1) Final Intermolecular Energy     =  -12.46 kcal/mol
DOCKED: USER        vdW + Hbond + desolv Energy     =  -12.46 kcal/mol
DOCKED: USER        Electrostatic Energy            =   +0.00 kcal/mol
DOCKED: USER    (2) Final Total Internal Energy     =   -1.32 kcal/mol
DOCKED: USER    (3) Torsional Free Energy           =   +2.09 kcal/mol
DOCKED: USER    (4) Unbound System's Energy  [=(2)] =   -1.32 kcal/mol
DOCKED: USER    
DOCKED: USER    
DOCKED: USER    NEWDPF move ligand.pdbqt
DOCKED: USER    NEWDPF about 0.154000 0.112000 -0.159000
DOCKED: USER    NEWDPF tran0 27.736286 -17.473122 -2.420339
DOCKED: USER    NEWDPF quaternion0 -0.509678 0.513446 -0.499140 -0.476928
DOCKED: USER    NEWDPF axisangle0 -0.579877 0.584164 -0.567887 -123.030059
DOCKED: USER    NEWDPF quat0 -0.579877 0.584164 -0.567887 -123.030059
DOCKED: USER    NEWDPF dihe0 14.39 -1.61 -175.94 162.21 27.13 16.50 -166.14 
DOCKED: USER  keepresnum = 1 
DOCKED: USER  
DOCKED: REMARK  Name = 
DOCKED: REMARK  7 active torsions:
DOCKED: REMARK  status: ('A' for Active; 'I' for Inactive)
DOCKED: REMARK    1  A    between atoms: C_2  and  C_5
DOCKED: REMARK    2  A    between atoms: N_3  and  O_4
DOCKED: REMARK    3  A    between atoms: C_5  and  C_6
DOCKED: REMARK    4  A    between atoms: C_6  and  C_7
DOCKED: REMARK    5  A    between atoms: C_7  and  C_8
DOCKED: REMARK    6  A    between atoms: C_8  and  C_9
DOCKED: REMARK    7  A    between atoms: C_9  and  N_10
DOCKED: REMARK                            x       y       z     vdW  Elec       q    Type
DOCKED: REMARK                         _______ _______ _______ _____ _____    ______ ____
DOCKED: USER                              x       y       z     vdW  Elec       q    Type
DOCKED: USER                           _______ _______ _______ _____ _____    ______ ____
DOCKED: ROOT
DOCKED: ATOM      1  N   UNL     1      26.735 -16.823  -1.514 -0.42 -0.00    +0.000 N 
DOCKED: ATOM      2  C   UNL     1      25.908 -16.113  -2.457 -0.52 -0.00    +0.000 C 
DOCKED: ATOM      3  C   UNL     1      26.333 -14.791  -2.971 -0.38 -0.00    +0.000 A 
DOCKED: ATOM      4  C   UNL     1      25.545 -14.103  -3.910 -0.47 -0.00    +0.000 A 
DOCKED: ATOM      5  C   UNL     1      25.948 -12.858  -4.396 -0.33 -0.00    +0.000 A 
DOCKED: ATOM      6  C   UNL     1      27.139 -12.281  -3.955 -0.18 -0.00    +0.000 A 
DOCKED: ATOM      7  C   UNL     1      27.941 -12.947  -3.018 -0.12 -0.00    +0.000 A 
DOCKED: ATOM      8  C   UNL     1      29.137 -12.367  -2.574 -0.04 -0.00    +0.000 A 
DOCKED: ATOM      9  C   UNL     1      29.935 -13.030  -1.641 -0.02 -0.00    +0.000 A 
DOCKED: ATOM     10  C   UNL     1      29.549 -14.275  -1.143 -0.07 -0.00    +0.000 A 
DOCKED: ATOM     11  C   UNL     1      28.354 -14.878  -1.574 -0.15 -0.00    +0.000 A 
DOCKED: ATOM     12  C   UNL     1      27.540 -14.214  -2.518 -0.19 -0.00    +0.000 A 
DOCKED: ATOM     13  O   UNL     1      24.817 -16.616  -2.844 -0.47 -0.00    +0.000 OA
DOCKED: ATOM     14  C   UNL     1      27.948 -16.201  -1.044 -0.34 -0.00    +0.000 C 
DOCKED: ATOM     15  O   UNL     1      28.664 -16.778  -0.182 -0.31 -0.00    +0.000 OA
DOCKED: ENDROOT
DOCKED: BRANCH   1  16
DOCKED: ATOM     16  C   UNL     1      26.357 -18.177  -1.072 -0.36 -0.00    +0.000 C 
DOCKED: BRANCH  16  17
DOCKED: ATOM     17  C   UNL     1      25.466 -18.131   0.183 -0.56 -0.00    +0.000 C 
DOCKED: BRANCH  17  18
DOCKED: ATOM     18  C   UNL     1      23.985 -17.822  -0.106 -0.66 -0.00    +0.000 C 
DOCKED: BRANCH  18  19
DOCKED: ATOM     19  C   UNL     1      23.075 -19.064  -0.215 -0.52 -0.00    +0.000 C 
DOCKED: BRANCH  19  20
DOCKED: ATOM     20  C   UNL     1      22.156 -19.074  -1.447 -0.69 -0.00    +0.000 C 
DOCKED: BRANCH  20  22
DOCKED: ATOM     21  O   UNL     1      20.232 -17.858  -0.717 -2.18 -0.00    +0.000 OA
DOCKED: ATOM     22  C   UNL     1      20.706 -18.971  -1.071 -0.88 -0.00    +0.000 C 
DOCKED: ATOM     23  N   UNL     1      19.872 -20.132  -1.078 -0.68 -0.00    +0.000 N 
DOCKED: ATOM     24  H   UNL     1      20.248 -21.001  -1.347 -0.54 -0.00    +0.000 HD
DOCKED: BRANCH  23  25
DOCKED: ATOM     25  O   UNL     1      18.569 -20.045  -0.718 -0.82 -0.00    +0.000 OA
DOCKED: ATOM     26  H   UNL     1      18.299 -19.114  -0.704 -0.57 -0.00    +0.000 HD
DOCKED: ENDBRANCH  23  25
DOCKED: ENDBRANCH  20  22
DOCKED: ENDBRANCH  19  20
DOCKED: ENDBRANCH  18  19
DOCKED: ENDBRANCH  17  18
DOCKED: ENDBRANCH  16  17
DOCKED: ENDBRANCH   1  16
DOCKED: TORSDOF 7
DOCKED: TER
DOCKED: ENDMDL
________________________________________________________________________________


	BEGINNING GENETIC ALGORITHM DOCKING 67 of 100
Run: 67 Seed: 1337604160 540139897 [ Run 67 of 100 GA/GALS ]
Beginning LAMARCKIAN GENETIC ALGORITHM (LGA), with a maximum of 2500000 energy evaluations.

Final-Value: -14.484


	FINAL GENETIC ALGORITHM DOCKED STATE
	_______________________________________________


Detailed state:  trans 27.602 -14.579 -2.269 quatxyzw -0.320727 -0.445988 -0.519617 -0.654391 center 0.154 0.112 -0.159 ntor 7 9.7529 -80.2017 -175.4833 -103.9854 160.6519 -171.2867 156.9578
State:	 27.602 -14.579  -2.269  -0.424 -0.590 -0.687 -98.253      9.75  -80.20 -175.48 -103.99  160.65 -171.29  156.96

DOCKED: MODEL       67
DOCKED: USER    Run = 67
DOCKED: USER    DPF = ligand_dock.biased.dpf
DOCKED: USER  
DOCKED: USER    Estimated Free Energy of Binding    =  -11.27 kcal/mol  [=(1)+(2)+(3)-(4)]
DOCKED: USER    Estimated Inhibition Constant, Ki   =    5.45 nM (nanomolar)  [Temperature = 298.15 K]
DOCKED: USER    
DOCKED: USER    (1) Final Intermolecular Energy     =  -13.36 kcal/mol
DOCKED: USER        vdW + Hbond + desolv Energy     =  -13.36 kcal/mol
DOCKED: USER        Electrostatic Energy            =   +0.00 kcal/mol
DOCKED: USER    (2) Final Total Internal Energy     =   -1.12 kcal/mol
DOCKED: USER    (3) Torsional Free Energy           =   +2.09 kcal/mol
DOCKED: USER    (4) Unbound System's Energy  [=(2)] =   -1.12 kcal/mol
DOCKED: USER    
DOCKED: USER    
DOCKED: USER    NEWDPF move ligand.pdbqt
DOCKED: USER    NEWDPF about 0.154000 0.112000 -0.159000
DOCKED: USER    NEWDPF tran0 27.601541 -14.579285 -2.269313
DOCKED: USER    NEWDPF quaternion0 -0.320727 -0.445988 -0.519617 -0.654391
DOCKED: USER    NEWDPF axisangle0 -0.424155 -0.589809 -0.687181 -98.253004
DOCKED: USER    NEWDPF quat0 -0.424155 -0.589809 -0.687181 -98.253004
DOCKED: USER    NEWDPF dihe0 9.75 -80.20 -175.48 -103.99 160.65 -171.29 156.96 
DOCKED: USER  keepresnum = 1 
DOCKED: USER  
DOCKED: REMARK  Name = 
DOCKED: REMARK  7 active torsions:
DOCKED: REMARK  status: ('A' for Active; 'I' for Inactive)
DOCKED: REMARK    1  A    between atoms: C_2  and  C_5
DOCKED: REMARK    2  A    between atoms: N_3  and  O_4
DOCKED: REMARK    3  A    between atoms: C_5  and  C_6
DOCKED: REMARK    4  A    between atoms: C_6  and  C_7
DOCKED: REMARK    5  A    between atoms: C_7  and  C_8
DOCKED: REMARK    6  A    between atoms: C_8  and  C_9
DOCKED: REMARK    7  A    between atoms: C_9  and  N_10
DOCKED: REMARK                            x       y       z     vdW  Elec       q    Type
DOCKED: REMARK                         _______ _______ _______ _____ _____    ______ ____
DOCKED: USER                              x       y       z     vdW  Elec       q    Type
DOCKED: USER                           _______ _______ _______ _____ _____    ______ ____
DOCKED: ROOT
DOCKED: ATOM      1  N   UNL     1      26.989 -15.496  -3.284 -0.35 -0.00    +0.000 N 
DOCKED: ATOM      2  C   UNL     1      28.081 -15.680  -4.206 -0.32 -0.00    +0.000 C 
DOCKED: ATOM      3  C   UNL     1      28.347 -14.666  -5.252 -0.32 -0.00    +0.000 A 
DOCKED: ATOM      4  C   UNL     1      29.426 -14.823  -6.141 -0.30 -0.00    +0.000 A 
DOCKED: ATOM      5  C   UNL     1      29.678 -13.866  -7.125 -0.25 -0.00    +0.000 A 
DOCKED: ATOM      6  C   UNL     1      28.862 -12.741  -7.239 -0.22 -0.00    +0.000 A 
DOCKED: ATOM      7  C   UNL     1      27.781 -12.562  -6.366 -0.18 -0.00    +0.000 A 
DOCKED: ATOM      8  C   UNL     1      26.960 -11.432  -6.481 -0.16 -0.00    +0.000 A 
DOCKED: ATOM      9  C   UNL     1      25.883 -11.254  -5.612 -0.24 -0.00    +0.000 A 
DOCKED: ATOM     10  C   UNL     1      25.614 -12.201  -4.622 -0.29 -0.00    +0.000 A 
DOCKED: ATOM     11  C   UNL     1      26.423 -13.342  -4.486 -0.31 -0.00    +0.000 A 
DOCKED: ATOM     12  C   UNL     1      27.516 -13.529  -5.361 -0.25 -0.00    +0.000 A 
DOCKED: ATOM     13  O   UNL     1      28.811 -16.707  -4.127 -0.27 -0.00    +0.000 OA
DOCKED: ATOM     14  C   UNL     1      26.136 -14.344  -3.433 -0.45 -0.00    +0.000 C 
DOCKED: ATOM     15  O   UNL     1      25.144 -14.186  -2.671 -0.34 -0.00    +0.000 OA
DOCKED: ENDROOT
DOCKED: BRANCH   1  16
DOCKED: ATOM     16  C   UNL     1      26.779 -16.459  -2.188 -0.41 -0.00    +0.000 C 
DOCKED: BRANCH  16  17
DOCKED: ATOM     17  C   UNL     1      25.337 -16.997  -2.179 -0.58 -0.00    +0.000 C 
DOCKED: BRANCH  17  18
DOCKED: ATOM     18  C   UNL     1      24.468 -16.454  -1.029 -0.52 -0.00    +0.000 C 
DOCKED: BRANCH  18  19
DOCKED: ATOM     19  C   UNL     1      23.709 -17.533  -0.227 -0.61 -0.00    +0.000 C 
DOCKED: BRANCH  19  20
DOCKED: ATOM     20  C   UNL     1      23.164 -18.692  -1.076 -0.82 -0.00    +0.000 C 
DOCKED: BRANCH  20  22
DOCKED: ATOM     21  O   UNL     1      21.016 -17.862  -0.438 -2.00 -0.00    +0.000 OA
DOCKED: ATOM     22  C   UNL     1      21.664 -18.712  -1.106 -0.79 -0.00    +0.000 C 
DOCKED: ATOM     23  N   UNL     1      20.967 -19.709  -1.858 -0.67 -0.00    +0.000 N 
DOCKED: ATOM     24  H   UNL     1      21.476 -20.377  -2.372 -0.55 -0.00    +0.000 HD
DOCKED: BRANCH  23  25
DOCKED: ATOM     25  O   UNL     1      19.613 -19.742  -1.869 -1.72 -0.00    +0.000 OA
DOCKED: ATOM     26  H   UNL     1      19.266 -18.940  -1.448 -0.45 -0.00    +0.000 HD
DOCKED: ENDBRANCH  23  25
DOCKED: ENDBRANCH  20  22
DOCKED: ENDBRANCH  19  20
DOCKED: ENDBRANCH  18  19
DOCKED: ENDBRANCH  17  18
DOCKED: ENDBRANCH  16  17
DOCKED: ENDBRANCH   1  16
DOCKED: TORSDOF 7
DOCKED: TER
DOCKED: ENDMDL
________________________________________________________________________________


	BEGINNING GENETIC ALGORITHM DOCKING 68 of 100
Run: 68 Seed: 2000825563 2087416483 [ Run 68 of 100 GA/GALS ]
Beginning LAMARCKIAN GENETIC ALGORITHM (LGA), with a maximum of 2500000 energy evaluations.

Final-Value: -13.226


	FINAL GENETIC ALGORITHM DOCKED STATE
	_______________________________________________


Detailed state:  trans 25.238 -14.332 -2.649 quatxyzw -0.008592 -0.977651 -0.144951 -0.152036 center 0.154 0.112 -0.159 ntor 7 6.7430 161.0615 75.4791 26.8208 -175.9376 -180.0000 -154.7548
State:	 25.238 -14.332  -2.649  -0.009 -0.989 -0.147 -162.510      6.74  161.06   75.48   26.82 -175.94 -180.00 -154.75

DOCKED: MODEL       68
DOCKED: USER    Run = 68
DOCKED: USER    DPF = ligand_dock.biased.dpf
DOCKED: USER  
DOCKED: USER    Estimated Free Energy of Binding    =   -9.95 kcal/mol  [=(1)+(2)+(3)-(4)]
DOCKED: USER    Estimated Inhibition Constant, Ki   =   51.18 nM (nanomolar)  [Temperature = 298.15 K]
DOCKED: USER    
DOCKED: USER    (1) Final Intermolecular Energy     =  -12.03 kcal/mol
DOCKED: USER        vdW + Hbond + desolv Energy     =  -12.03 kcal/mol
DOCKED: USER        Electrostatic Energy            =   +0.00 kcal/mol
DOCKED: USER    (2) Final Total Internal Energy     =   -1.19 kcal/mol
DOCKED: USER    (3) Torsional Free Energy           =   +2.09 kcal/mol
DOCKED: USER    (4) Unbound System's Energy  [=(2)] =   -1.19 kcal/mol
DOCKED: USER    
DOCKED: USER    
DOCKED: USER    NEWDPF move ligand.pdbqt
DOCKED: USER    NEWDPF about 0.154000 0.112000 -0.159000
DOCKED: USER    NEWDPF tran0 25.238163 -14.332393 -2.649027
DOCKED: USER    NEWDPF quaternion0 -0.008592 -0.977651 -0.144951 -0.152036
DOCKED: USER    NEWDPF axisangle0 -0.008693 -0.989149 -0.146655 -162.510143
DOCKED: USER    NEWDPF quat0 -0.008693 -0.989149 -0.146655 -162.510143
DOCKED: USER    NEWDPF dihe0 6.74 161.06 75.48 26.82 -175.94 -180.00 -154.75 
DOCKED: USER  keepresnum = 1 
DOCKED: USER  
DOCKED: REMARK  Name = 
DOCKED: REMARK  7 active torsions:
DOCKED: REMARK  status: ('A' for Active; 'I' for Inactive)
DOCKED: REMARK    1  A    between atoms: C_2  and  C_5
DOCKED: REMARK    2  A    between atoms: N_3  and  O_4
DOCKED: REMARK    3  A    between atoms: C_5  and  C_6
DOCKED: REMARK    4  A    between atoms: C_6  and  C_7
DOCKED: REMARK    5  A    between atoms: C_7  and  C_8
DOCKED: REMARK    6  A    between atoms: C_8  and  C_9
DOCKED: REMARK    7  A    between atoms: C_9  and  N_10
DOCKED: REMARK                            x       y       z     vdW  Elec       q    Type
DOCKED: REMARK                         _______ _______ _______ _____ _____    ______ ____
DOCKED: USER                              x       y       z     vdW  Elec       q    Type
DOCKED: USER                           _______ _______ _______ _____ _____    ______ ____
DOCKED: ROOT
DOCKED: ATOM      1  N   UNL     1      26.076 -15.451  -2.109 -0.40 -0.00    +0.000 N 
DOCKED: ATOM      2  C   UNL     1      27.045 -14.734  -1.319 -0.29 -0.00    +0.000 C 
DOCKED: ATOM      3  C   UNL     1      28.231 -14.130  -1.967 -0.12 -0.00    +0.000 A 
DOCKED: ATOM      4  C   UNL     1      29.168 -13.406  -1.208 -0.06 -0.00    +0.000 A 
DOCKED: ATOM      5  C   UNL     1      30.285 -12.834  -1.820 -0.02 -0.00    +0.000 A 
DOCKED: ATOM      6  C   UNL     1      30.484 -12.974  -3.193 -0.02 -0.00    +0.000 A 
DOCKED: ATOM      7  C   UNL     1      29.565 -13.691  -3.971 -0.07 -0.00    +0.000 A 
DOCKED: ATOM      8  C   UNL     1      29.767 -13.832  -5.350 -0.12 -0.00    +0.000 A 
DOCKED: ATOM      9  C   UNL     1      28.852 -14.547  -6.124 -0.33 -0.00    +0.000 A 
DOCKED: ATOM     10  C   UNL     1      27.729 -15.126  -5.531 -0.37 +0.00    +0.000 A 
DOCKED: ATOM     11  C   UNL     1      27.505 -14.998  -4.149 -0.34 -0.00    +0.000 A 
DOCKED: ATOM     12  C   UNL     1      28.426 -14.276  -3.358 -0.15 -0.00    +0.000 A 
DOCKED: ATOM     13  O   UNL     1      26.885 -14.623  -0.072 -0.33 -0.00    +0.000 OA
DOCKED: ATOM     14  C   UNL     1      26.312 -15.614  -3.522 -0.51 -0.00    +0.000 C 
DOCKED: ATOM     15  O   UNL     1      25.507 -16.280  -4.227 -0.59 -0.00    +0.000 OA
DOCKED: ENDROOT
DOCKED: BRANCH   1  16
DOCKED: ATOM     16  C   UNL     1      24.852 -15.975  -1.480 -0.42 -0.00    +0.000 C 
DOCKED: BRANCH  16  17
DOCKED: ATOM     17  C   UNL     1      25.127 -17.280  -0.710 -0.66 -0.00    +0.000 C 
DOCKED: BRANCH  17  18
DOCKED: ATOM     18  C   UNL     1      24.392 -18.511  -1.272 -0.65 -0.00    +0.000 C 
DOCKED: BRANCH  18  19
DOCKED: ATOM     19  C   UNL     1      23.209 -19.006  -0.412 -0.73 -0.00    +0.000 C 
DOCKED: BRANCH  19  20
DOCKED: ATOM     20  C   UNL     1      21.844 -18.423  -0.811 -0.84 -0.00    +0.000 C 
DOCKED: BRANCH  20  22
DOCKED: ATOM     21  O   UNL     1      20.116 -19.701  -1.857 -1.84 -0.00    +0.000 OA
DOCKED: ATOM     22  C   UNL     1      20.762 -19.464  -0.801 -0.88 -0.00    +0.000 C 
DOCKED: ATOM     23  N   UNL     1      20.439 -20.161   0.405 -0.69 -0.00    +0.000 N 
DOCKED: ATOM     24  H   UNL     1      20.940 -19.967   1.230 -0.49 -0.00    +0.000 HD
DOCKED: BRANCH  23  25
DOCKED: ATOM     25  O   UNL     1      19.449 -21.085   0.421 -0.75 -0.00    +0.000 OA
DOCKED: ATOM     26  H   UNL     1      19.130 -21.234  -0.483 -0.39 -0.00    +0.000 HD
DOCKED: ENDBRANCH  23  25
DOCKED: ENDBRANCH  20  22
DOCKED: ENDBRANCH  19  20
DOCKED: ENDBRANCH  18  19
DOCKED: ENDBRANCH  17  18
DOCKED: ENDBRANCH  16  17
DOCKED: ENDBRANCH   1  16
DOCKED: TORSDOF 7
DOCKED: TER
DOCKED: ENDMDL
________________________________________________________________________________


	BEGINNING GENETIC ALGORITHM DOCKING 69 of 100
Run: 69 Seed: 316388340 2058201076 [ Run 69 of 100 GA/GALS ]
Beginning LAMARCKIAN GENETIC ALGORITHM (LGA), with a maximum of 2500000 energy evaluations.

Final-Value: -14.169


	FINAL GENETIC ALGORITHM DOCKED STATE
	_______________________________________________


Detailed state:  trans 25.900 -14.246 -2.282 quatxyzw -0.074152 0.591259 0.579592 0.555866 center 0.154 0.112 -0.159 ntor 7 -3.6309 -178.8621 80.8967 -171.6943 -169.9118 143.8611 40.9609
State:	 25.900 -14.246  -2.282  -0.089  0.711  0.697 112.459     -3.63 -178.86   80.90 -171.69 -169.91  143.86   40.96

DOCKED: MODEL       69
DOCKED: USER    Run = 69
DOCKED: USER    DPF = ligand_dock.biased.dpf
DOCKED: USER  
DOCKED: USER    Estimated Free Energy of Binding    =  -10.93 kcal/mol  [=(1)+(2)+(3)-(4)]
DOCKED: USER    Estimated Inhibition Constant, Ki   =    9.81 nM (nanomolar)  [Temperature = 298.15 K]
DOCKED: USER    
DOCKED: USER    (1) Final Intermolecular Energy     =  -13.01 kcal/mol
DOCKED: USER        vdW + Hbond + desolv Energy     =  -13.01 kcal/mol
DOCKED: USER        Electrostatic Energy            =   +0.00 kcal/mol
DOCKED: USER    (2) Final Total Internal Energy     =   -1.16 kcal/mol
DOCKED: USER    (3) Torsional Free Energy           =   +2.09 kcal/mol
DOCKED: USER    (4) Unbound System's Energy  [=(2)] =   -1.16 kcal/mol
DOCKED: USER    
DOCKED: USER    
DOCKED: USER    NEWDPF move ligand.pdbqt
DOCKED: USER    NEWDPF about 0.154000 0.112000 -0.159000
DOCKED: USER    NEWDPF tran0 25.900495 -14.246062 -2.282053
DOCKED: USER    NEWDPF quaternion0 -0.074152 0.591259 0.579592 0.555866
DOCKED: USER    NEWDPF axisangle0 -0.089203 0.711271 0.697235 112.459179
DOCKED: USER    NEWDPF quat0 -0.089203 0.711271 0.697235 112.459179
DOCKED: USER    NEWDPF dihe0 -3.63 -178.86 80.90 -171.69 -169.91 143.86 40.96 
DOCKED: USER  keepresnum = 1 
DOCKED: USER  
DOCKED: REMARK  Name = 
DOCKED: REMARK  7 active torsions:
DOCKED: REMARK  status: ('A' for Active; 'I' for Inactive)
DOCKED: REMARK    1  A    between atoms: C_2  and  C_5
DOCKED: REMARK    2  A    between atoms: N_3  and  O_4
DOCKED: REMARK    3  A    between atoms: C_5  and  C_6
DOCKED: REMARK    4  A    between atoms: C_6  and  C_7
DOCKED: REMARK    5  A    between atoms: C_7  and  C_8
DOCKED: REMARK    6  A    between atoms: C_8  and  C_9
DOCKED: REMARK    7  A    between atoms: C_9  and  N_10
DOCKED: REMARK                            x       y       z     vdW  Elec       q    Type
DOCKED: REMARK                         _______ _______ _______ _____ _____    ______ ____
DOCKED: USER                              x       y       z     vdW  Elec       q    Type
DOCKED: USER                           _______ _______ _______ _____ _____    ______ ____
DOCKED: ROOT
DOCKED: ATOM      1  N   UNL     1      26.429 -14.716  -3.603 -0.40 -0.00    +0.000 N 
DOCKED: ATOM      2  C   UNL     1      27.825 -14.375  -3.495 -0.24 -0.00    +0.000 C 
DOCKED: ATOM      3  C   UNL     1      28.277 -12.994  -3.782 -0.12 -0.00    +0.000 A 
DOCKED: ATOM      4  C   UNL     1      29.633 -12.645  -3.655 -0.04 -0.00    +0.000 A 
DOCKED: ATOM      5  C   UNL     1      30.058 -11.343  -3.923 -0.02 -0.00    +0.000 A 
DOCKED: ATOM      6  C   UNL     1      29.140 -10.371  -4.320 -0.03 -0.00    +0.000 A 
DOCKED: ATOM      7  C   UNL     1      27.783 -10.694  -4.454 -0.08 -0.00    +0.000 A 
DOCKED: ATOM      8  C   UNL     1      26.861  -9.717  -4.855 -0.10 -0.00    +0.000 A 
DOCKED: ATOM      9  C   UNL     1      25.511 -10.039  -4.989 -0.26 -0.00    +0.000 A 
DOCKED: ATOM     10  C   UNL     1      25.067 -11.336  -4.727 -0.33 -0.00    +0.000 A 
DOCKED: ATOM     11  C   UNL     1      25.972 -12.333  -4.323 -0.29 -0.00    +0.000 A 
DOCKED: ATOM     12  C   UNL     1      27.341 -12.015  -4.184 -0.16 -0.00    +0.000 A 
DOCKED: ATOM     13  O   UNL     1      28.666 -15.254  -3.160 -0.20 -0.00    +0.000 OA
DOCKED: ATOM     14  C   UNL     1      25.497 -13.708  -4.044 -0.48 -0.00    +0.000 C 
DOCKED: ATOM     15  O   UNL     1      24.279 -13.994  -4.195 -1.02 -0.00    +0.000 OA
DOCKED: ENDROOT
DOCKED: BRANCH   1  16
DOCKED: ATOM     16  C   UNL     1      25.968 -16.065  -3.232 -0.44 -0.00    +0.000 C 
DOCKED: BRANCH  16  17
DOCKED: ATOM     17  C   UNL     1      24.994 -16.020  -2.041 -0.52 -0.00    +0.000 C 
DOCKED: BRANCH  17  18
DOCKED: ATOM     18  C   UNL     1      24.987 -17.300  -1.183 -0.68 -0.00    +0.000 C 
DOCKED: BRANCH  18  19
DOCKED: ATOM     19  C   UNL     1      23.806 -18.256  -1.457 -0.76 -0.00    +0.000 C 
DOCKED: BRANCH  19  20
DOCKED: ATOM     20  C   UNL     1      22.720 -18.253  -0.370 -0.83 -0.00    +0.000 C 
DOCKED: BRANCH  20  22
DOCKED: ATOM     21  O   UNL     1      20.612 -17.377  -1.077 -2.02 -0.00    +0.000 OA
DOCKED: ATOM     22  C   UNL     1      21.342 -18.396  -0.949 -0.77 -0.00    +0.000 C 
DOCKED: ATOM     23  N   UNL     1      20.844 -19.682  -1.324 -0.79 -0.00    +0.000 N 
DOCKED: ATOM     24  H   UNL     1      21.414 -20.478  -1.216 -0.22 -0.00    +0.000 HD
DOCKED: BRANCH  23  25
DOCKED: ATOM     25  O   UNL     1      19.593 -19.816  -1.828 -1.67 -0.00    +0.000 OA
DOCKED: ATOM     26  H   UNL     1      19.146 -18.955  -1.817 -0.55 -0.00    +0.000 HD
DOCKED: ENDBRANCH  23  25
DOCKED: ENDBRANCH  20  22
DOCKED: ENDBRANCH  19  20
DOCKED: ENDBRANCH  18  19
DOCKED: ENDBRANCH  17  18
DOCKED: ENDBRANCH  16  17
DOCKED: ENDBRANCH   1  16
DOCKED: TORSDOF 7
DOCKED: TER
DOCKED: ENDMDL
________________________________________________________________________________


	BEGINNING GENETIC ALGORITHM DOCKING 70 of 100
Run: 70 Seed: 241268741 1122304540 [ Run 70 of 100 GA/GALS ]
Beginning LAMARCKIAN GENETIC ALGORITHM (LGA), with a maximum of 2500000 energy evaluations.

Final-Value: -14.803


	FINAL GENETIC ALGORITHM DOCKED STATE
	_______________________________________________


Detailed state:  trans 25.832 -16.372 -4.064 quatxyzw 0.303888 -0.755036 0.579466 0.042317 center 0.154 0.112 -0.159 ntor 7 -4.9922 176.6884 104.0579 -179.9248 -97.8464 173.8495 142.8739
State:	 25.832 -16.372  -4.064   0.304 -0.756  0.580 175.149     -4.99  176.69  104.06 -179.92  -97.85  173.85  142.87

DOCKED: MODEL       70
DOCKED: USER    Run = 70
DOCKED: USER    DPF = ligand_dock.biased.dpf
DOCKED: USER  
DOCKED: USER    Estimated Free Energy of Binding    =  -11.65 kcal/mol  [=(1)+(2)+(3)-(4)]
DOCKED: USER    Estimated Inhibition Constant, Ki   =    2.88 nM (nanomolar)  [Temperature = 298.15 K]
DOCKED: USER    
DOCKED: USER    (1) Final Intermolecular Energy     =  -13.74 kcal/mol
DOCKED: USER        vdW + Hbond + desolv Energy     =  -13.74 kcal/mol
DOCKED: USER        Electrostatic Energy            =   +0.00 kcal/mol
DOCKED: USER    (2) Final Total Internal Energy     =   -1.06 kcal/mol
DOCKED: USER    (3) Torsional Free Energy           =   +2.09 kcal/mol
DOCKED: USER    (4) Unbound System's Energy  [=(2)] =   -1.06 kcal/mol
DOCKED: USER    
DOCKED: USER    
DOCKED: USER    NEWDPF move ligand.pdbqt
DOCKED: USER    NEWDPF about 0.154000 0.112000 -0.159000
DOCKED: USER    NEWDPF tran0 25.832400 -16.372209 -4.064369
DOCKED: USER    NEWDPF quaternion0 0.303888 -0.755036 0.579466 0.042317
DOCKED: USER    NEWDPF axisangle0 0.304160 -0.755713 0.579986 175.149405
DOCKED: USER    NEWDPF quat0 0.304160 -0.755713 0.579986 175.149405
DOCKED: USER    NEWDPF dihe0 -4.99 176.69 104.06 -179.92 -97.85 173.85 142.87 
DOCKED: USER  keepresnum = 1 
DOCKED: USER  
DOCKED: REMARK  Name = 
DOCKED: REMARK  7 active torsions:
DOCKED: REMARK  status: ('A' for Active; 'I' for Inactive)
DOCKED: REMARK    1  A    between atoms: C_2  and  C_5
DOCKED: REMARK    2  A    between atoms: N_3  and  O_4
DOCKED: REMARK    3  A    between atoms: C_5  and  C_6
DOCKED: REMARK    4  A    between atoms: C_6  and  C_7
DOCKED: REMARK    5  A    between atoms: C_7  and  C_8
DOCKED: REMARK    6  A    between atoms: C_8  and  C_9
DOCKED: REMARK    7  A    between atoms: C_9  and  N_10
DOCKED: REMARK                            x       y       z     vdW  Elec       q    Type
DOCKED: REMARK                         _______ _______ _______ _____ _____    ______ ____
DOCKED: USER                              x       y       z     vdW  Elec       q    Type
DOCKED: USER                           _______ _______ _______ _____ _____    ______ ____
DOCKED: ROOT
DOCKED: ATOM      1  N   UNL     1      26.241 -15.289  -3.113 -0.43 -0.00    +0.000 N 
DOCKED: ATOM      2  C   UNL     1      26.084 -14.111  -3.928 -0.47 -0.00    +0.000 C 
DOCKED: ATOM      3  C   UNL     1      27.153 -13.714  -4.872 -0.30 -0.00    +0.000 A 
DOCKED: ATOM      4  C   UNL     1      26.999 -12.581  -5.690 -0.11 -0.00    +0.000 A 
DOCKED: ATOM      5  C   UNL     1      28.006 -12.208  -6.581 -0.18 -0.00    +0.000 A 
DOCKED: ATOM      6  C   UNL     1      29.179 -12.956  -6.672 -0.19 -0.00    +0.000 A 
DOCKED: ATOM      7  C   UNL     1      29.357 -14.089  -5.867 -0.22 -0.00    +0.000 A 
DOCKED: ATOM      8  C   UNL     1      30.537 -14.840  -5.956 -0.17 -0.00    +0.000 A 
DOCKED: ATOM      9  C   UNL     1      30.714 -15.968  -5.154 -0.16 -0.00    +0.000 A 
DOCKED: ATOM     10  C   UNL     1      29.719 -16.356  -4.256 -0.23 -0.00    +0.000 A 
DOCKED: ATOM     11  C   UNL     1      28.526 -15.620  -4.148 -0.27 -0.00    +0.000 A 
DOCKED: ATOM     12  C   UNL     1      28.338 -14.477  -4.957 -0.28 -0.00    +0.000 A 
DOCKED: ATOM     13  O   UNL     1      25.036 -13.414  -3.836 -0.58 -0.00    +0.000 OA
DOCKED: ATOM     14  C   UNL     1      27.472 -16.035  -3.194 -0.24 -0.00    +0.000 C 
DOCKED: ATOM     15  O   UNL     1      27.655 -17.040  -2.456 -0.30 -0.00    +0.000 OA
DOCKED: ENDROOT
DOCKED: BRANCH   1  16
DOCKED: ATOM     16  C   UNL     1      25.141 -15.735  -2.239 -0.51 -0.00    +0.000 C 
DOCKED: BRANCH  16  17
DOCKED: ATOM     17  C   UNL     1      25.668 -16.259  -0.891 -0.51 -0.00    +0.000 C 
DOCKED: BRANCH  17  18
DOCKED: ATOM     18  C   UNL     1      25.259 -17.710  -0.575 -0.68 -0.00    +0.000 C 
DOCKED: BRANCH  18  19
DOCKED: ATOM     19  C   UNL     1      23.920 -18.156  -1.201 -0.78 -0.00    +0.000 C 
DOCKED: BRANCH  19  20
DOCKED: ATOM     20  C   UNL     1      22.807 -18.448  -0.182 -0.80 -0.00    +0.000 C 
DOCKED: BRANCH  20  22
DOCKED: ATOM     21  O   UNL     1      20.632 -17.606  -0.706 -2.17 +0.00    +0.000 OA
DOCKED: ATOM     22  C   UNL     1      21.459 -18.549  -0.835 -0.83 -0.00    +0.000 C 
DOCKED: ATOM     23  N   UNL     1      21.096 -19.721  -1.569 -0.69 -0.00    +0.000 N 
DOCKED: ATOM     24  H   UNL     1      21.741 -20.459  -1.661 -0.36 -0.00    +0.000 HD
DOCKED: BRANCH  23  25
DOCKED: ATOM     25  O   UNL     1      19.872 -19.823  -2.141 -1.86 -0.00    +0.000 OA
DOCKED: ATOM     26  H   UNL     1      19.334 -19.054  -1.894 -0.42 -0.00    +0.000 HD
DOCKED: ENDBRANCH  23  25
DOCKED: ENDBRANCH  20  22
DOCKED: ENDBRANCH  19  20
DOCKED: ENDBRANCH  18  19
DOCKED: ENDBRANCH  17  18
DOCKED: ENDBRANCH  16  17
DOCKED: ENDBRANCH   1  16
DOCKED: TORSDOF 7
DOCKED: TER
DOCKED: ENDMDL
________________________________________________________________________________


	BEGINNING GENETIC ALGORITHM DOCKING 71 of 100
Run: 71 Seed: 2056025126 2091819475 [ Run 71 of 100 GA/GALS ]
Beginning LAMARCKIAN GENETIC ALGORITHM (LGA), with a maximum of 2500000 energy evaluations.

Final-Value: -13.631


	FINAL GENETIC ALGORITHM DOCKED STATE
	_______________________________________________


Detailed state:  trans 24.788 -14.980 -1.905 quatxyzw -0.225851 0.793701 0.514604 0.232835 center 0.154 0.112 -0.159 ntor 7 -4.1911 165.8365 119.0969 -111.9532 178.6270 -180.0000 1.5255
State:	 24.788 -14.980  -1.905  -0.232  0.816  0.529 153.072     -4.19  165.84  119.10 -111.95  178.63 -180.00    1.53

DOCKED: MODEL       71
DOCKED: USER    Run = 71
DOCKED: USER    DPF = ligand_dock.biased.dpf
DOCKED: USER  
DOCKED: USER    Estimated Free Energy of Binding    =  -10.35 kcal/mol  [=(1)+(2)+(3)-(4)]
DOCKED: USER    Estimated Inhibition Constant, Ki   =   25.99 nM (nanomolar)  [Temperature = 298.15 K]
DOCKED: USER    
DOCKED: USER    (1) Final Intermolecular Energy     =  -12.44 kcal/mol
DOCKED: USER        vdW + Hbond + desolv Energy     =  -12.44 kcal/mol
DOCKED: USER        Electrostatic Energy            =   +0.00 kcal/mol
DOCKED: USER    (2) Final Total Internal Energy     =   -1.20 kcal/mol
DOCKED: USER    (3) Torsional Free Energy           =   +2.09 kcal/mol
DOCKED: USER    (4) Unbound System's Energy  [=(2)] =   -1.20 kcal/mol
DOCKED: USER    
DOCKED: USER    
DOCKED: USER    NEWDPF move ligand.pdbqt
DOCKED: USER    NEWDPF about 0.154000 0.112000 -0.159000
DOCKED: USER    NEWDPF tran0 24.788269 -14.979801 -1.904661
DOCKED: USER    NEWDPF quaternion0 -0.225851 0.793701 0.514604 0.232835
DOCKED: USER    NEWDPF axisangle0 -0.232234 0.816131 0.529147 153.071948
DOCKED: USER    NEWDPF quat0 -0.232234 0.816131 0.529147 153.071948
DOCKED: USER    NEWDPF dihe0 -4.19 165.84 119.10 -111.95 178.63 -180.00 1.53 
DOCKED: USER  keepresnum = 1 
DOCKED: USER  
DOCKED: REMARK  Name = 
DOCKED: REMARK  7 active torsions:
DOCKED: REMARK  status: ('A' for Active; 'I' for Inactive)
DOCKED: REMARK    1  A    between atoms: C_2  and  C_5
DOCKED: REMARK    2  A    between atoms: N_3  and  O_4
DOCKED: REMARK    3  A    between atoms: C_5  and  C_6
DOCKED: REMARK    4  A    between atoms: C_6  and  C_7
DOCKED: REMARK    5  A    between atoms: C_7  and  C_8
DOCKED: REMARK    6  A    between atoms: C_8  and  C_9
DOCKED: REMARK    7  A    between atoms: C_9  and  N_10
DOCKED: REMARK                            x       y       z     vdW  Elec       q    Type
DOCKED: REMARK                         _______ _______ _______ _____ _____    ______ ____
DOCKED: USER                              x       y       z     vdW  Elec       q    Type
DOCKED: USER                           _______ _______ _______ _____ _____    ______ ____
DOCKED: ROOT
DOCKED: ATOM      1  N   UNL     1      26.008 -15.691  -2.406 -0.43 -0.00    +0.000 N 
DOCKED: ATOM      2  C   UNL     1      26.933 -15.482  -1.320 -0.36 -0.00    +0.000 C 
DOCKED: ATOM      3  C   UNL     1      27.688 -14.212  -1.222 -0.17 -0.00    +0.000 A 
DOCKED: ATOM      4  C   UNL     1      28.573 -13.988  -0.152 -0.13 -0.00    +0.000 A 
DOCKED: ATOM      5  C   UNL     1      29.282 -12.790  -0.058 -0.05 -0.00    +0.000 A 
DOCKED: ATOM      6  C   UNL     1      29.120 -11.798  -1.025 -0.03 -0.00    +0.000 A 
DOCKED: ATOM      7  C   UNL     1      28.245 -11.997  -2.101 -0.07 -0.00    +0.000 A 
DOCKED: ATOM      8  C   UNL     1      28.083 -11.001  -3.074 -0.07 -0.00    +0.000 A 
DOCKED: ATOM      9  C   UNL     1      27.212 -11.200  -4.145 -0.13 -0.00    +0.000 A 
DOCKED: ATOM     10  C   UNL     1      26.495 -12.392  -4.256 -0.26 -0.00    +0.000 A 
DOCKED: ATOM     11  C   UNL     1      26.639 -13.406  -3.294 -0.25 -0.00    +0.000 A 
DOCKED: ATOM     12  C   UNL     1      27.518 -13.213  -2.206 -0.14 -0.00    +0.000 A 
DOCKED: ATOM     13  O   UNL     1      27.104 -16.383  -0.453 -0.43 -0.00    +0.000 OA
DOCKED: ATOM     14  C   UNL     1      25.875 -14.669  -3.414 -0.51 -0.00    +0.000 C 
DOCKED: ATOM     15  O   UNL     1      25.111 -14.848  -4.401 -0.97 -0.00    +0.000 OA
DOCKED: ENDROOT
DOCKED: BRANCH   1  16
DOCKED: ATOM     16  C   UNL     1      25.192 -16.916  -2.455 -0.52 -0.00    +0.000 C 
DOCKED: BRANCH  16  17
DOCKED: ATOM     17  C   UNL     1      24.006 -16.843  -1.477 -0.59 -0.00    +0.000 C 
DOCKED: BRANCH  17  18
DOCKED: ATOM     18  C   UNL     1      24.051 -17.892  -0.350 -0.75 -0.00    +0.000 C 
DOCKED: BRANCH  18  19
DOCKED: ATOM     19  C   UNL     1      22.949 -18.970  -0.425 -0.78 -0.00    +0.000 C 
DOCKED: BRANCH  19  20
DOCKED: ATOM     20  C   UNL     1      21.540 -18.422  -0.701 -0.85 -0.00    +0.000 C 
DOCKED: BRANCH  20  22
DOCKED: ATOM     21  O   UNL     1      19.881 -19.743  -1.803 -1.87 -0.00    +0.000 OA
DOCKED: ATOM     22  C   UNL     1      20.507 -19.511  -0.734 -0.89 -0.00    +0.000 C 
DOCKED: ATOM     23  N   UNL     1      20.208 -20.261   0.446 -0.71 -0.00    +0.000 N 
DOCKED: ATOM     24  H   UNL     1      20.694 -20.071   1.281 -0.41 -0.00    +0.000 HD
DOCKED: BRANCH  23  25
DOCKED: ATOM     25  O   UNL     1      19.262 -21.230   0.424 -0.73 -0.00    +0.000 OA
DOCKED: ATOM     26  H   UNL     1      18.835 -21.246  -0.447 -0.33 -0.00    +0.000 HD
DOCKED: ENDBRANCH  23  25
DOCKED: ENDBRANCH  20  22
DOCKED: ENDBRANCH  19  20
DOCKED: ENDBRANCH  18  19
DOCKED: ENDBRANCH  17  18
DOCKED: ENDBRANCH  16  17
DOCKED: ENDBRANCH   1  16
DOCKED: TORSDOF 7
DOCKED: TER
DOCKED: ENDMDL
________________________________________________________________________________


	BEGINNING GENETIC ALGORITHM DOCKING 72 of 100
Run: 72 Seed: 2140571445 1393370695 [ Run 72 of 100 GA/GALS ]
Beginning LAMARCKIAN GENETIC ALGORITHM (LGA), with a maximum of 2500000 energy evaluations.

Final-Value: -14.176


	FINAL GENETIC ALGORITHM DOCKED STATE
	_______________________________________________


Detailed state:  trans 27.648 -15.396 -0.470 quatxyzw 0.353709 0.574300 0.440895 0.592183 center 0.154 0.112 -0.159 ntor 7 -8.5686 -33.3977 142.3852 -179.8105 180.0000 -111.7749 -173.6334
State:	 27.648 -15.396  -0.470   0.439  0.713  0.547 107.376     -8.57  -33.40  142.39 -179.81  180.00 -111.77 -173.63

DOCKED: MODEL       72
DOCKED: USER    Run = 72
DOCKED: USER    DPF = ligand_dock.biased.dpf
DOCKED: USER  
DOCKED: USER    Estimated Free Energy of Binding    =  -10.89 kcal/mol  [=(1)+(2)+(3)-(4)]
DOCKED: USER    Estimated Inhibition Constant, Ki   =   10.41 nM (nanomolar)  [Temperature = 298.15 K]
DOCKED: USER    
DOCKED: USER    (1) Final Intermolecular Energy     =  -12.98 kcal/mol
DOCKED: USER        vdW + Hbond + desolv Energy     =  -12.98 kcal/mol
DOCKED: USER        Electrostatic Energy            =   +0.00 kcal/mol
DOCKED: USER    (2) Final Total Internal Energy     =   -1.20 kcal/mol
DOCKED: USER    (3) Torsional Free Energy           =   +2.09 kcal/mol
DOCKED: USER    (4) Unbound System's Energy  [=(2)] =   -1.20 kcal/mol
DOCKED: USER    
DOCKED: USER    
DOCKED: USER    NEWDPF move ligand.pdbqt
DOCKED: USER    NEWDPF about 0.154000 0.112000 -0.159000
DOCKED: USER    NEWDPF tran0 27.648446 -15.395564 -0.469884
DOCKED: USER    NEWDPF quaternion0 0.353709 0.574300 0.440895 0.592183
DOCKED: USER    NEWDPF axisangle0 0.438951 0.712705 0.547150 107.375844
DOCKED: USER    NEWDPF quat0 0.438951 0.712705 0.547150 107.375844
DOCKED: USER    NEWDPF dihe0 -8.57 -33.40 142.39 -179.81 180.00 -111.77 -173.63 
DOCKED: USER  keepresnum = 1 
DOCKED: USER  
DOCKED: REMARK  Name = 
DOCKED: REMARK  7 active torsions:
DOCKED: REMARK  status: ('A' for Active; 'I' for Inactive)
DOCKED: REMARK    1  A    between atoms: C_2  and  C_5
DOCKED: REMARK    2  A    between atoms: N_3  and  O_4
DOCKED: REMARK    3  A    between atoms: C_5  and  C_6
DOCKED: REMARK    4  A    between atoms: C_6  and  C_7
DOCKED: REMARK    5  A    between atoms: C_7  and  C_8
DOCKED: REMARK    6  A    between atoms: C_8  and  C_9
DOCKED: REMARK    7  A    between atoms: C_9  and  N_10
DOCKED: REMARK                            x       y       z     vdW  Elec       q    Type
DOCKED: REMARK                         _______ _______ _______ _____ _____    ______ ____
DOCKED: USER                              x       y       z     vdW  Elec       q    Type
DOCKED: USER                           _______ _______ _______ _____ _____    ______ ____
DOCKED: ROOT
DOCKED: ATOM      1  N   UNL     1      27.261 -16.619  -1.244 -0.38 -0.00    +0.000 N 
DOCKED: ATOM      2  C   UNL     1      28.489 -16.929  -1.931 -0.28 -0.00    +0.000 C 
DOCKED: ATOM      3  C   UNL     1      28.837 -16.221  -3.184 -0.22 -0.00    +0.000 A 
DOCKED: ATOM      4  C   UNL     1      30.044 -16.498  -3.849 -0.19 -0.00    +0.000 A 
DOCKED: ATOM      5  C   UNL     1      30.374 -15.828  -5.029 -0.18 -0.00    +0.000 A 
DOCKED: ATOM      6  C   UNL     1      29.507 -14.875  -5.563 -0.24 -0.00    +0.000 A 
DOCKED: ATOM      7  C   UNL     1      28.297 -14.582  -4.919 -0.29 -0.00    +0.000 A 
DOCKED: ATOM      8  C   UNL     1      27.426 -13.625  -5.457 -0.24 -0.00    +0.000 A 
DOCKED: ATOM      9  C   UNL     1      26.221 -13.333  -4.816 -0.19 -0.00    +0.000 A 
DOCKED: ATOM     10  C   UNL     1      25.874 -13.993  -3.636 -0.41 -0.00    +0.000 A 
DOCKED: ATOM     11  C   UNL     1      26.731 -14.956  -3.077 -0.35 -0.00    +0.000 A 
DOCKED: ATOM     12  C   UNL     1      27.954 -15.257  -3.719 -0.27 -0.00    +0.000 A 
DOCKED: ATOM     13  O   UNL     1      29.268 -17.807  -1.469 -0.31 -0.00    +0.000 OA
DOCKED: ATOM     14  C   UNL     1      26.361 -15.654  -1.824 -0.44 -0.00    +0.000 C 
DOCKED: ATOM     15  O   UNL     1      25.257 -15.402  -1.269 -0.45 -0.00    +0.000 OA
DOCKED: ENDROOT
DOCKED: BRANCH   1  16
DOCKED: ATOM     16  C   UNL     1      26.957 -17.258   0.049 -0.47 -0.00    +0.000 C 
DOCKED: BRANCH  16  17
DOCKED: ATOM     17  C   UNL     1      26.026 -18.471  -0.127 -0.62 -0.00    +0.000 C 
DOCKED: BRANCH  17  18
DOCKED: ATOM     18  C   UNL     1      24.797 -18.200  -1.016 -0.72 -0.00    +0.000 C 
DOCKED: BRANCH  18  19
DOCKED: ATOM     19  C   UNL     1      23.448 -18.190  -0.267 -0.79 -0.00    +0.000 C 
DOCKED: BRANCH  19  20
DOCKED: ATOM     20  C   UNL     1      22.498 -19.336  -0.652 -0.75 -0.00    +0.000 C 
DOCKED: BRANCH  20  22
DOCKED: ATOM     21  O   UNL     1      20.623 -17.856  -0.722 -2.34 -0.00    +0.000 OA
DOCKED: ATOM     22  C   UNL     1      21.061 -18.989  -0.389 -0.86 -0.00    +0.000 C 
DOCKED: ATOM     23  N   UNL     1      20.199 -19.923   0.267 -0.73 -0.00    +0.000 N 
DOCKED: ATOM     24  H   UNL     1      20.546 -20.805   0.533 -0.20 -0.00    +0.000 HD
DOCKED: BRANCH  23  25
DOCKED: ATOM     25  O   UNL     1      18.908 -19.603   0.524 -0.79 -0.00    +0.000 OA
DOCKED: ATOM     26  H   UNL     1      18.761 -18.665   0.327 -0.26 -0.00    +0.000 HD
DOCKED: ENDBRANCH  23  25
DOCKED: ENDBRANCH  20  22
DOCKED: ENDBRANCH  19  20
DOCKED: ENDBRANCH  18  19
DOCKED: ENDBRANCH  17  18
DOCKED: ENDBRANCH  16  17
DOCKED: ENDBRANCH   1  16
DOCKED: TORSDOF 7
DOCKED: TER
DOCKED: ENDMDL
________________________________________________________________________________


	BEGINNING GENETIC ALGORITHM DOCKING 73 of 100
Run: 73 Seed: 18268113 1068266240 [ Run 73 of 100 GA/GALS ]
Beginning LAMARCKIAN GENETIC ALGORITHM (LGA), with a maximum of 2500000 energy evaluations.

Final-Value: -13.833


	FINAL GENETIC ALGORITHM DOCKED STATE
	_______________________________________________


Detailed state:  trans 26.625 -14.727 -1.653 quatxyzw 0.038982 -0.597404 -0.444135 -0.666583 center 0.154 0.112 -0.159 ntor 7 -18.8962 -165.0168 150.2090 157.4038 -179.8893 69.0118 49.9669
State:	 26.625 -14.727  -1.653   0.052 -0.801 -0.596 -96.392    -18.90 -165.02  150.21  157.40 -179.89   69.01   49.97

DOCKED: MODEL       73
DOCKED: USER    Run = 73
DOCKED: USER    DPF = ligand_dock.biased.dpf
DOCKED: USER  
DOCKED: USER    Estimated Free Energy of Binding    =  -10.58 kcal/mol  [=(1)+(2)+(3)-(4)]
DOCKED: USER    Estimated Inhibition Constant, Ki   =   17.64 nM (nanomolar)  [Temperature = 298.15 K]
DOCKED: USER    
DOCKED: USER    (1) Final Intermolecular Energy     =  -12.67 kcal/mol
DOCKED: USER        vdW + Hbond + desolv Energy     =  -12.67 kcal/mol
DOCKED: USER        Electrostatic Energy            =   +0.00 kcal/mol
DOCKED: USER    (2) Final Total Internal Energy     =   -1.17 kcal/mol
DOCKED: USER    (3) Torsional Free Energy           =   +2.09 kcal/mol
DOCKED: USER    (4) Unbound System's Energy  [=(2)] =   -1.17 kcal/mol
DOCKED: USER    
DOCKED: USER    
DOCKED: USER    NEWDPF move ligand.pdbqt
DOCKED: USER    NEWDPF about 0.154000 0.112000 -0.159000
DOCKED: USER    NEWDPF tran0 26.625267 -14.727001 -1.653009
DOCKED: USER    NEWDPF quaternion0 0.038982 -0.597404 -0.444135 -0.666583
DOCKED: USER    NEWDPF axisangle0 0.052295 -0.801421 -0.595810 -96.392225
DOCKED: USER    NEWDPF quat0 0.052295 -0.801421 -0.595810 -96.392225
DOCKED: USER    NEWDPF dihe0 -18.90 -165.02 150.21 157.40 -179.89 69.01 49.97 
DOCKED: USER  keepresnum = 1 
DOCKED: USER  
DOCKED: REMARK  Name = 
DOCKED: REMARK  7 active torsions:
DOCKED: REMARK  status: ('A' for Active; 'I' for Inactive)
DOCKED: REMARK    1  A    between atoms: C_2  and  C_5
DOCKED: REMARK    2  A    between atoms: N_3  and  O_4
DOCKED: REMARK    3  A    between atoms: C_5  and  C_6
DOCKED: REMARK    4  A    between atoms: C_6  and  C_7
DOCKED: REMARK    5  A    between atoms: C_7  and  C_8
DOCKED: REMARK    6  A    between atoms: C_8  and  C_9
DOCKED: REMARK    7  A    between atoms: C_9  and  N_10
DOCKED: REMARK                            x       y       z     vdW  Elec       q    Type
DOCKED: REMARK                         _______ _______ _______ _____ _____    ______ ____
DOCKED: USER                              x       y       z     vdW  Elec       q    Type
DOCKED: USER                           _______ _______ _______ _____ _____    ______ ____
DOCKED: ROOT
DOCKED: ATOM      1  N   UNL     1      27.097 -15.370  -2.922 -0.31 -0.00    +0.000 N 
DOCKED: ATOM      2  C   UNL     1      28.367 -14.719  -3.122 -0.20 -0.00    +0.000 C 
DOCKED: ATOM      3  C   UNL     1      28.424 -13.381  -3.754 -0.12 -0.00    +0.000 A 
DOCKED: ATOM      4  C   UNL     1      29.656 -12.727  -3.931 -0.05 -0.00    +0.000 A 
DOCKED: ATOM      5  C   UNL     1      29.710 -11.465  -4.524 -0.03 -0.00    +0.000 A 
DOCKED: ATOM      6  C   UNL     1      28.540 -10.836  -4.949 -0.06 -0.00    +0.000 A 
DOCKED: ATOM      7  C   UNL     1      27.300 -11.468  -4.784 -0.15 -0.00    +0.000 A 
DOCKED: ATOM      8  C   UNL     1      26.124 -10.837  -5.213 -0.23 -0.00    +0.000 A 
DOCKED: ATOM      9  C   UNL     1      24.889 -11.466  -5.049 -0.34 -0.00    +0.000 A 
DOCKED: ATOM     10  C   UNL     1      24.816 -12.728  -4.459 -0.17 -0.00    +0.000 A 
DOCKED: ATOM     11  C   UNL     1      25.981 -13.382  -4.021 -0.37 -0.00    +0.000 A 
DOCKED: ATOM     12  C   UNL     1      27.235 -12.752  -4.182 -0.20 -0.00    +0.000 A 
DOCKED: ATOM     13  O   UNL     1      29.434 -15.290  -2.763 -0.14 -0.00    +0.000 OA
DOCKED: ATOM     14  C   UNL     1      25.899 -14.722  -3.394 -0.51 -0.00    +0.000 C 
DOCKED: ATOM     15  O   UNL     1      24.781 -15.292  -3.276 -0.55 -0.00    +0.000 OA
DOCKED: ENDROOT
DOCKED: BRANCH   1  16
DOCKED: ATOM     16  C   UNL     1      27.032 -16.660  -2.213 -0.34 -0.00    +0.000 C 
DOCKED: BRANCH  16  17
DOCKED: ATOM     17  C   UNL     1      26.045 -16.606  -1.033 -0.54 -0.00    +0.000 C 
DOCKED: BRANCH  17  18
DOCKED: ATOM     18  C   UNL     1      25.074 -17.799  -0.968 -0.70 -0.00    +0.000 C 
DOCKED: BRANCH  18  19
DOCKED: ATOM     19  C   UNL     1      23.601 -17.452  -1.275 -0.70 -0.00    +0.000 C 
DOCKED: BRANCH  19  20
DOCKED: ATOM     20  C   UNL     1      22.582 -18.104  -0.327 -0.83 -0.00    +0.000 C 
DOCKED: BRANCH  20  22
DOCKED: ATOM     21  O   UNL     1      20.388 -17.531  -1.081 -2.07 -0.00    +0.000 OA
DOCKED: ATOM     22  C   UNL     1      21.286 -18.413  -1.019 -0.75 -0.00    +0.000 C 
DOCKED: ATOM     23  N   UNL     1      21.053 -19.709  -1.575 -0.71 -0.00    +0.000 N 
DOCKED: ATOM     24  H   UNL     1      21.754 -20.398  -1.518 -0.32 -0.00    +0.000 HD
DOCKED: BRANCH  23  25
DOCKED: ATOM     25  O   UNL     1      19.876 -19.996  -2.182 -1.81 -0.00    +0.000 OA
DOCKED: ATOM     26  H   UNL     1      19.204 -19.354  -1.905 -0.48 -0.00    +0.000 HD
DOCKED: ENDBRANCH  23  25
DOCKED: ENDBRANCH  20  22
DOCKED: ENDBRANCH  19  20
DOCKED: ENDBRANCH  18  19
DOCKED: ENDBRANCH  17  18
DOCKED: ENDBRANCH  16  17
DOCKED: ENDBRANCH   1  16
DOCKED: TORSDOF 7
DOCKED: TER
DOCKED: ENDMDL
________________________________________________________________________________


	BEGINNING GENETIC ALGORITHM DOCKING 74 of 100
Run: 74 Seed: 2064796836 199580647 [ Run 74 of 100 GA/GALS ]
Beginning LAMARCKIAN GENETIC ALGORITHM (LGA), with a maximum of 2500000 energy evaluations.

Final-Value: -13.543


	FINAL GENETIC ALGORITHM DOCKED STATE
	_______________________________________________


Detailed state:  trans 27.886 -18.208 -1.958 quatxyzw -0.511284 0.589833 -0.625022 -0.005670 center 0.154 0.112 -0.159 ntor 7 -24.7285 178.7950 121.3910 -154.1643 132.9990 35.3591 -59.4332
State:	 27.886 -18.208  -1.958  -0.511  0.590 -0.625 -179.350    -24.73  178.79  121.39 -154.16  133.00   35.36  -59.43

DOCKED: MODEL       74
DOCKED: USER    Run = 74
DOCKED: USER    DPF = ligand_dock.biased.dpf
DOCKED: USER  
DOCKED: USER    Estimated Free Energy of Binding    =  -11.11 kcal/mol  [=(1)+(2)+(3)-(4)]
DOCKED: USER    Estimated Inhibition Constant, Ki   =    7.17 nM (nanomolar)  [Temperature = 298.15 K]
DOCKED: USER    
DOCKED: USER    (1) Final Intermolecular Energy     =  -13.20 kcal/mol
DOCKED: USER        vdW + Hbond + desolv Energy     =  -13.20 kcal/mol
DOCKED: USER        Electrostatic Energy            =   +0.00 kcal/mol
DOCKED: USER    (2) Final Total Internal Energy     =   -0.34 kcal/mol
DOCKED: USER    (3) Torsional Free Energy           =   +2.09 kcal/mol
DOCKED: USER    (4) Unbound System's Energy  [=(2)] =   -0.34 kcal/mol
DOCKED: USER    
DOCKED: USER    
DOCKED: USER    NEWDPF move ligand.pdbqt
DOCKED: USER    NEWDPF about 0.154000 0.112000 -0.159000
DOCKED: USER    NEWDPF tran0 27.886227 -18.207872 -1.957632
DOCKED: USER    NEWDPF quaternion0 -0.511284 0.589833 -0.625022 -0.005670
DOCKED: USER    NEWDPF axisangle0 -0.511292 0.589843 -0.625032 -179.350241
DOCKED: USER    NEWDPF quat0 -0.511292 0.589843 -0.625032 -179.350241
DOCKED: USER    NEWDPF dihe0 -24.73 178.79 121.39 -154.16 133.00 35.36 -59.43 
DOCKED: USER  keepresnum = 1 
DOCKED: USER  
DOCKED: REMARK  Name = 
DOCKED: REMARK  7 active torsions:
DOCKED: REMARK  status: ('A' for Active; 'I' for Inactive)
DOCKED: REMARK    1  A    between atoms: C_2  and  C_5
DOCKED: REMARK    2  A    between atoms: N_3  and  O_4
DOCKED: REMARK    3  A    between atoms: C_5  and  C_6
DOCKED: REMARK    4  A    between atoms: C_6  and  C_7
DOCKED: REMARK    5  A    between atoms: C_7  and  C_8
DOCKED: REMARK    6  A    between atoms: C_8  and  C_9
DOCKED: REMARK    7  A    between atoms: C_9  and  N_10
DOCKED: REMARK                            x       y       z     vdW  Elec       q    Type
DOCKED: REMARK                         _______ _______ _______ _____ _____    ______ ____
DOCKED: USER                              x       y       z     vdW  Elec       q    Type
DOCKED: USER                           _______ _______ _______ _____ _____    ______ ____
DOCKED: ROOT
DOCKED: ATOM      1  N   UNL     1      28.010 -16.798  -1.464 -0.34 -0.00    +0.000 N 
DOCKED: ATOM      2  C   UNL     1      27.252 -16.076  -2.455 -0.35 -0.00    +0.000 C 
DOCKED: ATOM      3  C   UNL     1      27.881 -15.703  -3.743 -0.26 -0.00    +0.000 A 
DOCKED: ATOM      4  C   UNL     1      27.142 -15.020  -4.726 -0.43 -0.00    +0.000 A 
DOCKED: ATOM      5  C   UNL     1      27.734 -14.671  -5.941 -0.28 -0.00    +0.000 A 
DOCKED: ATOM      6  C   UNL     1      29.066 -14.995  -6.194 -0.34 -0.00    +0.000 A 
DOCKED: ATOM      7  C   UNL     1      29.823 -15.674  -5.230 -0.24 -0.00    +0.000 A 
DOCKED: ATOM      8  C   UNL     1      31.163 -15.999  -5.485 -0.13 -0.00    +0.000 A 
DOCKED: ATOM      9  C   UNL     1      31.916 -16.674  -4.525 -0.07 -0.00    +0.000 A 
DOCKED: ATOM     10  C   UNL     1      31.343 -17.032  -3.303 -0.10 -0.00    +0.000 A 
DOCKED: ATOM     11  C   UNL     1      30.001 -16.718  -3.024 -0.18 -0.00    +0.000 A 
DOCKED: ATOM     12  C   UNL     1      29.231 -16.034  -3.991 -0.24 -0.00    +0.000 A 
DOCKED: ATOM     13  O   UNL     1      26.053 -15.757  -2.225 -0.46 -0.00    +0.000 OA
DOCKED: ATOM     14  C   UNL     1      29.395 -17.099  -1.728 -0.26 -0.00    +0.000 C 
DOCKED: ATOM     15  O   UNL     1      30.094 -17.686  -0.857 -0.27 -0.00    +0.000 OA
DOCKED: ENDROOT
DOCKED: BRANCH   1  16
DOCKED: ATOM     16  C   UNL     1      27.360 -17.248  -0.221 -0.42 -0.00    +0.000 C 
DOCKED: BRANCH  16  17
DOCKED: ATOM     17  C   UNL     1      25.826 -17.219  -0.344 -0.58 -0.00    +0.000 C 
DOCKED: BRANCH  17  18
DOCKED: ATOM     18  C   UNL     1      25.191 -18.588  -0.651 -0.63 -0.00    +0.000 C 
DOCKED: BRANCH  18  19
DOCKED: ATOM     19  C   UNL     1      23.789 -18.521  -1.292 -0.77 -0.00    +0.000 C 
DOCKED: BRANCH  19  20
DOCKED: ATOM     20  C   UNL     1      22.630 -18.463  -0.284 -0.83 -0.00    +0.000 C 
DOCKED: BRANCH  20  22
DOCKED: ATOM     21  O   UNL     1      20.630 -17.416  -1.070 -2.05 -0.00    +0.000 OA
DOCKED: ATOM     22  C   UNL     1      21.291 -18.484  -0.962 -0.78 -0.00    +0.000 C 
DOCKED: ATOM     23  N   UNL     1      20.747 -19.711  -1.455 -0.80 -0.00    +0.000 N 
DOCKED: ATOM     24  H   UNL     1      21.263 -20.545  -1.362 -0.22 -0.00    +0.000 HD
DOCKED: BRANCH  23  25
DOCKED: ATOM     25  O   UNL     1      19.530 -19.736  -2.048 -1.60 -0.00    +0.000 OA
DOCKED: ATOM     26  H   UNL     1      19.001 -18.986  -1.733 -0.57 -0.00    +0.000 HD
DOCKED: ENDBRANCH  23  25
DOCKED: ENDBRANCH  20  22
DOCKED: ENDBRANCH  19  20
DOCKED: ENDBRANCH  18  19
DOCKED: ENDBRANCH  17  18
DOCKED: ENDBRANCH  16  17
DOCKED: ENDBRANCH   1  16
DOCKED: TORSDOF 7
DOCKED: TER
DOCKED: ENDMDL
________________________________________________________________________________


	BEGINNING GENETIC ALGORITHM DOCKING 75 of 100
Run: 75 Seed: 1453880756 2072340463 [ Run 75 of 100 GA/GALS ]
Beginning LAMARCKIAN GENETIC ALGORITHM (LGA), with a maximum of 2500000 energy evaluations.

Final-Value: -14.506


	FINAL GENETIC ALGORITHM DOCKED STATE
	_______________________________________________


Detailed state:  trans 25.989 -16.213 -4.347 quatxyzw 0.258408 -0.751028 0.607463 0.013040 center 0.154 0.112 -0.159 ntor 7 -0.1802 -176.9924 113.2506 170.3390 -106.7173 179.7309 140.2090
State:	 25.989 -16.213  -4.347   0.258 -0.751  0.608 178.506     -0.18 -176.99  113.25  170.34 -106.72  179.73  140.21

DOCKED: MODEL       75
DOCKED: USER    Run = 75
DOCKED: USER    DPF = ligand_dock.biased.dpf
DOCKED: USER  
DOCKED: USER    Estimated Free Energy of Binding    =  -11.44 kcal/mol  [=(1)+(2)+(3)-(4)]
DOCKED: USER    Estimated Inhibition Constant, Ki   =    4.11 nM (nanomolar)  [Temperature = 298.15 K]
DOCKED: USER    
DOCKED: USER    (1) Final Intermolecular Energy     =  -13.53 kcal/mol
DOCKED: USER        vdW + Hbond + desolv Energy     =  -13.53 kcal/mol
DOCKED: USER        Electrostatic Energy            =   +0.00 kcal/mol
DOCKED: USER    (2) Final Total Internal Energy     =   -0.98 kcal/mol
DOCKED: USER    (3) Torsional Free Energy           =   +2.09 kcal/mol
DOCKED: USER    (4) Unbound System's Energy  [=(2)] =   -0.98 kcal/mol
DOCKED: USER    
DOCKED: USER    
DOCKED: USER    NEWDPF move ligand.pdbqt
DOCKED: USER    NEWDPF about 0.154000 0.112000 -0.159000
DOCKED: USER    NEWDPF tran0 25.988804 -16.213334 -4.346939
DOCKED: USER    NEWDPF quaternion0 0.258408 -0.751028 0.607463 0.013040
DOCKED: USER    NEWDPF axisangle0 0.258430 -0.751092 0.607515 178.505697
DOCKED: USER    NEWDPF quat0 0.258430 -0.751092 0.607515 178.505697
DOCKED: USER    NEWDPF dihe0 -0.18 -176.99 113.25 170.34 -106.72 179.73 140.21 
DOCKED: USER  keepresnum = 1 
DOCKED: USER  
DOCKED: REMARK  Name = 
DOCKED: REMARK  7 active torsions:
DOCKED: REMARK  status: ('A' for Active; 'I' for Inactive)
DOCKED: REMARK    1  A    between atoms: C_2  and  C_5
DOCKED: REMARK    2  A    between atoms: N_3  and  O_4
DOCKED: REMARK    3  A    between atoms: C_5  and  C_6
DOCKED: REMARK    4  A    between atoms: C_6  and  C_7
DOCKED: REMARK    5  A    between atoms: C_7  and  C_8
DOCKED: REMARK    6  A    between atoms: C_8  and  C_9
DOCKED: REMARK    7  A    between atoms: C_9  and  N_10
DOCKED: REMARK                            x       y       z     vdW  Elec       q    Type
DOCKED: REMARK                         _______ _______ _______ _____ _____    ______ ____
DOCKED: USER                              x       y       z     vdW  Elec       q    Type
DOCKED: USER                           _______ _______ _______ _____ _____    ______ ____
DOCKED: ROOT
DOCKED: ATOM      1  N   UNL     1      26.485 -15.121  -3.450 -0.41 -0.00    +0.000 N 
DOCKED: ATOM      2  C   UNL     1      26.469 -13.986  -4.338 -0.43 -0.00    +0.000 C 
DOCKED: ATOM      3  C   UNL     1      27.595 -13.758  -5.272 -0.28 -0.00    +0.000 A 
DOCKED: ATOM      4  C   UNL     1      27.576 -12.668  -6.160 -0.13 -0.00    +0.000 A 
DOCKED: ATOM      5  C   UNL     1      28.637 -12.455  -7.043 -0.20 -0.00    +0.000 A 
DOCKED: ATOM      6  C   UNL     1      29.728 -13.323  -7.055 -0.21 -0.00    +0.000 A 
DOCKED: ATOM      7  C   UNL     1      29.770 -14.416  -6.179 -0.23 -0.00    +0.000 A 
DOCKED: ATOM      8  C   UNL     1      30.868 -15.288  -6.189 -0.18 -0.00    +0.000 A 
DOCKED: ATOM      9  C   UNL     1      30.910 -16.376  -5.317 -0.17 -0.00    +0.000 A 
DOCKED: ATOM     10  C   UNL     1      29.860 -16.604  -4.427 -0.24 -0.00    +0.000 A 
DOCKED: ATOM     11  C   UNL     1      28.747 -15.745  -4.397 -0.27 -0.00    +0.000 A 
DOCKED: ATOM     12  C   UNL     1      28.696 -14.642  -5.277 -0.28 -0.00    +0.000 A 
DOCKED: ATOM     13  O   UNL     1      25.497 -13.181  -4.318 -0.52 -0.00    +0.000 OA
DOCKED: ATOM     14  C   UNL     1      27.634 -15.991  -3.451 -0.24 -0.00    +0.000 C 
DOCKED: ATOM     15  O   UNL     1      27.695 -16.962  -2.649 -0.23 -0.00    +0.000 OA
DOCKED: ENDROOT
DOCKED: BRANCH   1  16
DOCKED: ATOM     16  C   UNL     1      25.325 -15.397  -2.584 -0.49 -0.00    +0.000 C 
DOCKED: BRANCH  16  17
DOCKED: ATOM     17  C   UNL     1      25.763 -15.950  -1.215 -0.50 -0.00    +0.000 C 
DOCKED: BRANCH  17  18
DOCKED: ATOM     18  C   UNL     1      25.282 -17.385  -0.931 -0.66 -0.00    +0.000 C 
DOCKED: BRANCH  18  19
DOCKED: ATOM     19  C   UNL     1      23.862 -17.705  -1.446 -0.73 -0.00    +0.000 C 
DOCKED: BRANCH  19  20
DOCKED: ATOM     20  C   UNL     1      22.890 -18.206  -0.366 -0.83 -0.00    +0.000 C 
DOCKED: BRANCH  20  22
DOCKED: ATOM     21  O   UNL     1      20.632 -17.501  -0.706 -2.10 +0.00    +0.000 OA
DOCKED: ATOM     22  C   UNL     1      21.500 -18.393  -0.901 -0.79 -0.00    +0.000 C 
DOCKED: ATOM     23  N   UNL     1      21.148 -19.591  -1.598 -0.69 -0.00    +0.000 N 
DOCKED: ATOM     24  H   UNL     1      21.827 -20.290  -1.741 -0.42 -0.00    +0.000 HD
DOCKED: BRANCH  23  25
DOCKED: ATOM     25  O   UNL     1      19.889 -19.771  -2.063 -1.88 -0.00    +0.000 OA
DOCKED: ATOM     26  H   UNL     1      19.347 -18.998  -1.839 -0.43 -0.00    +0.000 HD
DOCKED: ENDBRANCH  23  25
DOCKED: ENDBRANCH  20  22
DOCKED: ENDBRANCH  19  20
DOCKED: ENDBRANCH  18  19
DOCKED: ENDBRANCH  17  18
DOCKED: ENDBRANCH  16  17
DOCKED: ENDBRANCH   1  16
DOCKED: TORSDOF 7
DOCKED: TER
DOCKED: ENDMDL
________________________________________________________________________________


	BEGINNING GENETIC ALGORITHM DOCKING 76 of 100
Run: 76 Seed: 785049399 1172760636 [ Run 76 of 100 GA/GALS ]
Beginning LAMARCKIAN GENETIC ALGORITHM (LGA), with a maximum of 2500000 energy evaluations.

Final-Value: -13.231


	FINAL GENETIC ALGORITHM DOCKED STATE
	_______________________________________________


Detailed state:  trans 26.721 -16.408 0.555 quatxyzw -0.219862 0.234306 0.839739 0.437722 center 0.154 0.112 -0.159 ntor 7 -21.0448 159.4330 177.2115 152.8265 -69.9963 64.1963 -1.3537
State:	 26.721 -16.408   0.555  -0.245  0.261  0.934 128.083    -21.04  159.43  177.21  152.83  -70.00   64.20   -1.35

DOCKED: MODEL       76
DOCKED: USER    Run = 76
DOCKED: USER    DPF = ligand_dock.biased.dpf
DOCKED: USER  
DOCKED: USER    Estimated Free Energy of Binding    =   -9.84 kcal/mol  [=(1)+(2)+(3)-(4)]
DOCKED: USER    Estimated Inhibition Constant, Ki   =   61.57 nM (nanomolar)  [Temperature = 298.15 K]
DOCKED: USER    
DOCKED: USER    (1) Final Intermolecular Energy     =  -11.93 kcal/mol
DOCKED: USER        vdW + Hbond + desolv Energy     =  -11.93 kcal/mol
DOCKED: USER        Electrostatic Energy            =   +0.00 kcal/mol
DOCKED: USER    (2) Final Total Internal Energy     =   -1.31 kcal/mol
DOCKED: USER    (3) Torsional Free Energy           =   +2.09 kcal/mol
DOCKED: USER    (4) Unbound System's Energy  [=(2)] =   -1.31 kcal/mol
DOCKED: USER    
DOCKED: USER    
DOCKED: USER    NEWDPF move ligand.pdbqt
DOCKED: USER    NEWDPF about 0.154000 0.112000 -0.159000
DOCKED: USER    NEWDPF tran0 26.720901 -16.407715 0.555086
DOCKED: USER    NEWDPF quaternion0 -0.219862 0.234306 0.839739 0.437722
DOCKED: USER    NEWDPF axisangle0 -0.244533 0.260597 0.933966 128.082777
DOCKED: USER    NEWDPF quat0 -0.244533 0.260597 0.933966 128.082777
DOCKED: USER    NEWDPF dihe0 -21.04 159.43 177.21 152.83 -70.00 64.20 -1.35 
DOCKED: USER  keepresnum = 1 
DOCKED: USER  
DOCKED: REMARK  Name = 
DOCKED: REMARK  7 active torsions:
DOCKED: REMARK  status: ('A' for Active; 'I' for Inactive)
DOCKED: REMARK    1  A    between atoms: C_2  and  C_5
DOCKED: REMARK    2  A    between atoms: N_3  and  O_4
DOCKED: REMARK    3  A    between atoms: C_5  and  C_6
DOCKED: REMARK    4  A    between atoms: C_6  and  C_7
DOCKED: REMARK    5  A    between atoms: C_7  and  C_8
DOCKED: REMARK    6  A    between atoms: C_8  and  C_9
DOCKED: REMARK    7  A    between atoms: C_9  and  N_10
DOCKED: REMARK                            x       y       z     vdW  Elec       q    Type
DOCKED: REMARK                         _______ _______ _______ _____ _____    ______ ____
DOCKED: USER                              x       y       z     vdW  Elec       q    Type
DOCKED: USER                           _______ _______ _______ _____ _____    ______ ____
DOCKED: ROOT
DOCKED: ATOM      1  N   UNL     1      27.096 -15.671  -0.695 -0.31 -0.00    +0.000 N 
DOCKED: ATOM      2  C   UNL     1      28.535 -15.731  -0.647 -0.25 -0.00    +0.000 C 
DOCKED: ATOM      3  C   UNL     1      29.291 -14.761   0.176 -0.14 -0.00    +0.000 A 
DOCKED: ATOM      4  C   UNL     1      30.694 -14.827   0.249 -0.09 -0.00    +0.000 A 
DOCKED: ATOM      5  C   UNL     1      31.407 -13.914   1.028 -0.05 -0.00    +0.000 A 
DOCKED: ATOM      6  C   UNL     1      30.735 -12.924   1.744 -0.05 -0.00    +0.000 A 
DOCKED: ATOM      7  C   UNL     1      29.338 -12.837   1.687 -0.09 -0.00    +0.000 A 
DOCKED: ATOM      8  C   UNL     1      28.663 -11.840   2.405 -0.12 -0.00    +0.000 A 
DOCKED: ATOM      9  C   UNL     1      27.272 -11.753   2.348 -0.26 +0.00    +0.000 A 
DOCKED: ATOM     10  C   UNL     1      26.541 -12.657   1.574 -0.32 -0.00    +0.000 A 
DOCKED: ATOM     11  C   UNL     1      27.195 -13.665   0.845 -0.26 -0.00    +0.000 A 
DOCKED: ATOM     12  C   UNL     1      28.603 -13.761   0.898 -0.16 -0.00    +0.000 A 
DOCKED: ATOM     13  O   UNL     1      29.153 -16.609  -1.311 -0.27 -0.00    +0.000 OA
DOCKED: ATOM     14  C   UNL     1      26.417 -14.623   0.026 -0.26 -0.00    +0.000 C 
DOCKED: ATOM     15  O   UNL     1      25.162 -14.518  -0.040 -0.11 -0.00    +0.000 OA
DOCKED: ENDROOT
DOCKED: BRANCH   1  16
DOCKED: ATOM     16  C   UNL     1      26.338 -16.691  -1.442 -0.51 -0.00    +0.000 C 
DOCKED: BRANCH  16  17
DOCKED: ATOM     17  C   UNL     1      26.304 -18.032  -0.689 -0.60 -0.00    +0.000 C 
DOCKED: BRANCH  17  18
DOCKED: ATOM     18  C   UNL     1      24.891 -18.616  -0.503 -0.65 -0.00    +0.000 C 
DOCKED: BRANCH  18  19
DOCKED: ATOM     19  C   UNL     1      23.752 -17.748  -1.079 -0.77 -0.00    +0.000 C 
DOCKED: BRANCH  19  20
DOCKED: ATOM     20  C   UNL     1      22.481 -17.708  -0.214 -0.75 -0.00    +0.000 C 
DOCKED: BRANCH  20  22
DOCKED: ATOM     21  O   UNL     1      20.268 -17.471  -1.083 -2.01 -0.00    +0.000 OA
DOCKED: ATOM     22  C   UNL     1      21.278 -18.214  -0.956 -0.70 -0.00    +0.000 C 
DOCKED: ATOM     23  N   UNL     1      21.260 -19.541  -1.487 -0.70 -0.00    +0.000 N 
DOCKED: ATOM     24  H   UNL     1      22.048 -20.121  -1.379 -0.34 -0.00    +0.000 HD
DOCKED: BRANCH  23  25
DOCKED: ATOM     25  O   UNL     1      20.167 -20.007  -2.138 -1.83 -0.00    +0.000 OA
DOCKED: ATOM     26  H   UNL     1      19.392 -19.483  -1.884 -0.34 -0.00    +0.000 HD
DOCKED: ENDBRANCH  23  25
DOCKED: ENDBRANCH  20  22
DOCKED: ENDBRANCH  19  20
DOCKED: ENDBRANCH  18  19
DOCKED: ENDBRANCH  17  18
DOCKED: ENDBRANCH  16  17
DOCKED: ENDBRANCH   1  16
DOCKED: TORSDOF 7
DOCKED: TER
DOCKED: ENDMDL
________________________________________________________________________________


	BEGINNING GENETIC ALGORITHM DOCKING 77 of 100
Run: 77 Seed: 1555583988 2133505707 [ Run 77 of 100 GA/GALS ]
Beginning LAMARCKIAN GENETIC ALGORITHM (LGA), with a maximum of 2500000 energy evaluations.

Final-Value: -14.457


	FINAL GENETIC ALGORITHM DOCKED STATE
	_______________________________________________


Detailed state:  trans 27.292 -14.581 -2.065 quatxyzw -0.383894 -0.775503 -0.440290 -0.239509 center 0.154 0.112 -0.159 ntor 7 23.1549 -46.8953 178.3603 155.4883 153.4514 180.0000 -139.1867
State:	 27.292 -14.581  -2.065  -0.395 -0.799 -0.453 -152.285     23.15  -46.90  178.36  155.49  153.45  180.00 -139.19

DOCKED: MODEL       77
DOCKED: USER    Run = 77
DOCKED: USER    DPF = ligand_dock.biased.dpf
DOCKED: USER  
DOCKED: USER    Estimated Free Energy of Binding    =  -11.35 kcal/mol  [=(1)+(2)+(3)-(4)]
DOCKED: USER    Estimated Inhibition Constant, Ki   =    4.80 nM (nanomolar)  [Temperature = 298.15 K]
DOCKED: USER    
DOCKED: USER    (1) Final Intermolecular Energy     =  -13.44 kcal/mol
DOCKED: USER        vdW + Hbond + desolv Energy     =  -13.44 kcal/mol
DOCKED: USER        Electrostatic Energy            =   +0.00 kcal/mol
DOCKED: USER    (2) Final Total Internal Energy     =   -1.02 kcal/mol
DOCKED: USER    (3) Torsional Free Energy           =   +2.09 kcal/mol
DOCKED: USER    (4) Unbound System's Energy  [=(2)] =   -1.02 kcal/mol
DOCKED: USER    
DOCKED: USER    
DOCKED: USER    NEWDPF move ligand.pdbqt
DOCKED: USER    NEWDPF about 0.154000 0.112000 -0.159000
DOCKED: USER    NEWDPF tran0 27.292439 -14.581308 -2.065341
DOCKED: USER    NEWDPF quaternion0 -0.383894 -0.775503 -0.440290 -0.239509
DOCKED: USER    NEWDPF axisangle0 -0.395403 -0.798752 -0.453489 -152.284830
DOCKED: USER    NEWDPF quat0 -0.395403 -0.798752 -0.453489 -152.284830
DOCKED: USER    NEWDPF dihe0 23.15 -46.90 178.36 155.49 153.45 180.00 -139.19 
DOCKED: USER  keepresnum = 1 
DOCKED: USER  
DOCKED: REMARK  Name = 
DOCKED: REMARK  7 active torsions:
DOCKED: REMARK  status: ('A' for Active; 'I' for Inactive)
DOCKED: REMARK    1  A    between atoms: C_2  and  C_5
DOCKED: REMARK    2  A    between atoms: N_3  and  O_4
DOCKED: REMARK    3  A    between atoms: C_5  and  C_6
DOCKED: REMARK    4  A    between atoms: C_6  and  C_7
DOCKED: REMARK    5  A    between atoms: C_7  and  C_8
DOCKED: REMARK    6  A    between atoms: C_8  and  C_9
DOCKED: REMARK    7  A    between atoms: C_9  and  N_10
DOCKED: REMARK                            x       y       z     vdW  Elec       q    Type
DOCKED: REMARK                         _______ _______ _______ _____ _____    ______ ____
DOCKED: USER                              x       y       z     vdW  Elec       q    Type
DOCKED: USER                           _______ _______ _______ _____ _____    ______ ____
DOCKED: ROOT
DOCKED: ATOM      1  N   UNL     1      26.986 -16.009  -2.403 -0.34 -0.00    +0.000 N 
DOCKED: ATOM      2  C   UNL     1      28.210 -16.667  -2.022 -0.32 -0.00    +0.000 C 
DOCKED: ATOM      3  C   UNL     1      29.367 -16.675  -2.946 -0.21 -0.00    +0.000 A 
DOCKED: ATOM      4  C   UNL     1      30.574 -17.293  -2.574 -0.16 -0.00    +0.000 A 
DOCKED: ATOM      5  C   UNL     1      31.665 -17.298  -3.444 -0.09 -0.00    +0.000 A 
DOCKED: ATOM      6  C   UNL     1      31.571 -16.690  -4.695 -0.10 -0.00    +0.000 A 
DOCKED: ATOM      7  C   UNL     1      30.378 -16.068  -5.090 -0.20 -0.00    +0.000 A 
DOCKED: ATOM      8  C   UNL     1      30.283 -15.458  -6.348 -0.26 -0.00    +0.000 A 
DOCKED: ATOM      9  C   UNL     1      29.096 -14.840  -6.741 -0.30 -0.00    +0.000 A 
DOCKED: ATOM     10  C   UNL     1      27.994 -14.825  -5.885 -0.35 -0.00    +0.000 A 
DOCKED: ATOM     11  C   UNL     1      28.064 -15.430  -4.618 -0.33 -0.00    +0.000 A 
DOCKED: ATOM     12  C   UNL     1      29.263 -16.057  -4.212 -0.25 -0.00    +0.000 A 
DOCKED: ATOM     13  O   UNL     1      28.297 -17.241  -0.902 -0.40 -0.00    +0.000 OA
DOCKED: ATOM     14  C   UNL     1      26.893 -15.411  -3.711 -0.44 -0.00    +0.000 C 
DOCKED: ATOM     15  O   UNL     1      25.817 -14.873  -4.088 -0.66 -0.00    +0.000 OA
DOCKED: ENDROOT
DOCKED: BRANCH   1  16
DOCKED: ATOM     16  C   UNL     1      25.866 -15.923  -1.449 -0.50 -0.00    +0.000 C 
DOCKED: BRANCH  16  17
DOCKED: ATOM     17  C   UNL     1      25.327 -17.318  -1.086 -0.65 -0.00    +0.000 C 
DOCKED: BRANCH  17  18
DOCKED: ATOM     18  C   UNL     1      23.871 -17.566  -1.523 -0.68 -0.00    +0.000 C 
DOCKED: BRANCH  18  19
DOCKED: ATOM     19  C   UNL     1      22.995 -18.288  -0.477 -0.83 -0.00    +0.000 C 
DOCKED: BRANCH  19  20
DOCKED: ATOM     20  C   UNL     1      22.066 -19.365  -1.058 -0.73 -0.00    +0.000 C 
DOCKED: BRANCH  20  22
DOCKED: ATOM     21  O   UNL     1      20.237 -17.865  -0.719 -2.19 -0.00    +0.000 OA
DOCKED: ATOM     22  C   UNL     1      20.619 -19.063  -0.794 -0.90 -0.00    +0.000 C 
DOCKED: ATOM     23  N   UNL     1      19.682 -20.125  -0.594 -0.73 -0.00    +0.000 N 
DOCKED: ATOM     24  H   UNL     1      19.986 -21.060  -0.646 -0.41 -0.00    +0.000 HD
DOCKED: BRANCH  23  25
DOCKED: ATOM     25  O   UNL     1      18.381 -19.854  -0.335 -0.82 -0.00    +0.000 OA
DOCKED: ATOM     26  H   UNL     1      18.161 -18.970  -0.667 -0.56 -0.00    +0.000 HD
DOCKED: ENDBRANCH  23  25
DOCKED: ENDBRANCH  20  22
DOCKED: ENDBRANCH  19  20
DOCKED: ENDBRANCH  18  19
DOCKED: ENDBRANCH  17  18
DOCKED: ENDBRANCH  16  17
DOCKED: ENDBRANCH   1  16
DOCKED: TORSDOF 7
DOCKED: TER
DOCKED: ENDMDL
________________________________________________________________________________


	BEGINNING GENETIC ALGORITHM DOCKING 78 of 100
Run: 78 Seed: 342442820 206540758 [ Run 78 of 100 GA/GALS ]
Beginning LAMARCKIAN GENETIC ALGORITHM (LGA), with a maximum of 2500000 energy evaluations.

Final-Value: -14.558


	FINAL GENETIC ALGORITHM DOCKED STATE
	_______________________________________________


Detailed state:  trans 27.916 -14.933 -1.217 quatxyzw -0.393204 -0.489288 -0.502565 -0.594489 center 0.154 0.112 -0.159 ntor 7 19.6477 131.8469 144.1107 140.6831 31.2685 165.1369 -144.7796
State:	 27.916 -14.933  -1.217  -0.489 -0.608 -0.625 -107.048     19.65  131.85  144.11  140.68   31.27  165.14 -144.78

DOCKED: MODEL       78
DOCKED: USER    Run = 78
DOCKED: USER    DPF = ligand_dock.biased.dpf
DOCKED: USER  
DOCKED: USER    Estimated Free Energy of Binding    =  -11.26 kcal/mol  [=(1)+(2)+(3)-(4)]
DOCKED: USER    Estimated Inhibition Constant, Ki   =    5.62 nM (nanomolar)  [Temperature = 298.15 K]
DOCKED: USER    
DOCKED: USER    (1) Final Intermolecular Energy     =  -13.34 kcal/mol
DOCKED: USER        vdW + Hbond + desolv Energy     =  -13.34 kcal/mol
DOCKED: USER        Electrostatic Energy            =   +0.00 kcal/mol
DOCKED: USER    (2) Final Total Internal Energy     =   -1.21 kcal/mol
DOCKED: USER    (3) Torsional Free Energy           =   +2.09 kcal/mol
DOCKED: USER    (4) Unbound System's Energy  [=(2)] =   -1.21 kcal/mol
DOCKED: USER    
DOCKED: USER    
DOCKED: USER    NEWDPF move ligand.pdbqt
DOCKED: USER    NEWDPF about 0.154000 0.112000 -0.159000
DOCKED: USER    NEWDPF tran0 27.916028 -14.933037 -1.217472
DOCKED: USER    NEWDPF quaternion0 -0.393204 -0.489288 -0.502565 -0.594489
DOCKED: USER    NEWDPF axisangle0 -0.488996 -0.608488 -0.625000 -107.047603
DOCKED: USER    NEWDPF quat0 -0.488996 -0.608488 -0.625000 -107.047603
DOCKED: USER    NEWDPF dihe0 19.65 131.85 144.11 140.68 31.27 165.14 -144.78 
DOCKED: USER  keepresnum = 1 
DOCKED: USER  
DOCKED: REMARK  Name = 
DOCKED: REMARK  7 active torsions:
DOCKED: REMARK  status: ('A' for Active; 'I' for Inactive)
DOCKED: REMARK    1  A    between atoms: C_2  and  C_5
DOCKED: REMARK    2  A    between atoms: N_3  and  O_4
DOCKED: REMARK    3  A    between atoms: C_5  and  C_6
DOCKED: REMARK    4  A    between atoms: C_6  and  C_7
DOCKED: REMARK    5  A    between atoms: C_7  and  C_8
DOCKED: REMARK    6  A    between atoms: C_8  and  C_9
DOCKED: REMARK    7  A    between atoms: C_9  and  N_10
DOCKED: REMARK                            x       y       z     vdW  Elec       q    Type
DOCKED: REMARK                         _______ _______ _______ _____ _____    ______ ____
DOCKED: USER                              x       y       z     vdW  Elec       q    Type
DOCKED: USER                           _______ _______ _______ _____ _____    ______ ____
DOCKED: ROOT
DOCKED: ATOM      1  N   UNL     1      27.250 -15.981  -2.056 -0.31 -0.00    +0.000 N 
DOCKED: ATOM      2  C   UNL     1      28.339 -16.420  -2.892 -0.25 -0.00    +0.000 C 
DOCKED: ATOM      3  C   UNL     1      28.701 -15.650  -4.104 -0.26 -0.00    +0.000 A 
DOCKED: ATOM      4  C   UNL     1      29.778 -16.055  -4.912 -0.25 -0.00    +0.000 A 
DOCKED: ATOM      5  C   UNL     1      30.121 -15.328  -6.053 -0.25 -0.00    +0.000 A 
DOCKED: ATOM      6  C   UNL     1      29.398 -14.189  -6.405 -0.27 -0.00    +0.000 A 
DOCKED: ATOM      7  C   UNL     1      28.320 -13.765  -5.617 -0.26 -0.00    +0.000 A 
DOCKED: ATOM      8  C   UNL     1      27.592 -12.620  -5.972 -0.18 -0.00    +0.000 A 
DOCKED: ATOM      9  C   UNL     1      26.519 -12.199  -5.187 -0.22 -0.00    +0.000 A 
DOCKED: ATOM     10  C   UNL     1      26.161 -12.913  -4.043 -0.31 -0.00    +0.000 A 
DOCKED: ATOM     11  C   UNL     1      26.875 -14.064  -3.665 -0.31 -0.00    +0.000 A 
DOCKED: ATOM     12  C   UNL     1      27.964 -14.497  -4.454 -0.27 -0.00    +0.000 A 
DOCKED: ATOM     13  O   UNL     1      28.984 -17.463  -2.595 -0.21 -0.00    +0.000 OA
DOCKED: ATOM     14  C   UNL     1      26.493 -14.820  -2.450 -0.37 -0.00    +0.000 C 
DOCKED: ATOM     15  O   UNL     1      25.504 -14.444  -1.763 -0.34 -0.00    +0.000 OA
DOCKED: ENDROOT
DOCKED: BRANCH   1  16
DOCKED: ATOM     16  C   UNL     1      26.947 -16.695  -0.803 -0.48 -0.00    +0.000 C 
DOCKED: BRANCH  16  17
DOCKED: ATOM     17  C   UNL     1      26.388 -18.103  -1.078 -0.38 -0.00    +0.000 C 
DOCKED: BRANCH  17  18
DOCKED: ATOM     18  C   UNL     1      25.104 -18.435  -0.295 -0.65 -0.00    +0.000 C 
DOCKED: BRANCH  18  19
DOCKED: ATOM     19  C   UNL     1      23.798 -18.298  -1.107 -0.80 -0.00    +0.000 C 
DOCKED: BRANCH  19  20
DOCKED: ATOM     20  C   UNL     1      22.552 -17.987  -0.261 -0.81 -0.00    +0.000 C 
DOCKED: BRANCH  20  22
DOCKED: ATOM     21  O   UNL     1      20.208 -17.856  -0.709 -2.15 +0.00    +0.000 OA
DOCKED: ATOM     22  C   UNL     1      21.291 -18.467  -0.918 -0.79 -0.00    +0.000 C 
DOCKED: ATOM     23  N   UNL     1      21.305 -19.629  -1.750 -0.56 -0.00    +0.000 N 
DOCKED: ATOM     24  H   UNL     1      22.151 -20.109  -1.905 -0.50 -0.00    +0.000 HD
DOCKED: BRANCH  23  25
DOCKED: ATOM     25  O   UNL     1      20.164 -20.077  -2.327 -1.78 -0.00    +0.000 OA
DOCKED: ATOM     26  H   UNL     1      19.508 -19.362  -2.345 -0.41 -0.00    +0.000 HD
DOCKED: ENDBRANCH  23  25
DOCKED: ENDBRANCH  20  22
DOCKED: ENDBRANCH  19  20
DOCKED: ENDBRANCH  18  19
DOCKED: ENDBRANCH  17  18
DOCKED: ENDBRANCH  16  17
DOCKED: ENDBRANCH   1  16
DOCKED: TORSDOF 7
DOCKED: TER
DOCKED: ENDMDL
________________________________________________________________________________


	BEGINNING GENETIC ALGORITHM DOCKING 79 of 100
Run: 79 Seed: 1232749576 729919761 [ Run 79 of 100 GA/GALS ]
Beginning LAMARCKIAN GENETIC ALGORITHM (LGA), with a maximum of 2500000 energy evaluations.

Final-Value: -14.438


	FINAL GENETIC ALGORITHM DOCKED STATE
	_______________________________________________


Detailed state:  trans 26.589 -17.337 -2.268 quatxyzw -0.336532 0.531015 -0.776660 -0.039603 center 0.154 0.112 -0.159 ntor 7 2.5595 169.5950 82.7217 -116.0230 75.1839 33.2727 -9.9810
State:	 26.589 -17.337  -2.268  -0.337  0.531 -0.777 -175.461      2.56  169.60   82.72 -116.02   75.18   33.27   -9.98

DOCKED: MODEL       79
DOCKED: USER    Run = 79
DOCKED: USER    DPF = ligand_dock.biased.dpf
DOCKED: USER  
DOCKED: USER    Estimated Free Energy of Binding    =  -11.09 kcal/mol  [=(1)+(2)+(3)-(4)]
DOCKED: USER    Estimated Inhibition Constant, Ki   =    7.49 nM (nanomolar)  [Temperature = 298.15 K]
DOCKED: USER    
DOCKED: USER    (1) Final Intermolecular Energy     =  -13.17 kcal/mol
DOCKED: USER        vdW + Hbond + desolv Energy     =  -13.17 kcal/mol
DOCKED: USER        Electrostatic Energy            =   +0.00 kcal/mol
DOCKED: USER    (2) Final Total Internal Energy     =   -1.26 kcal/mol
DOCKED: USER    (3) Torsional Free Energy           =   +2.09 kcal/mol
DOCKED: USER    (4) Unbound System's Energy  [=(2)] =   -1.26 kcal/mol
DOCKED: USER    
DOCKED: USER    
DOCKED: USER    NEWDPF move ligand.pdbqt
DOCKED: USER    NEWDPF about 0.154000 0.112000 -0.159000
DOCKED: USER    NEWDPF tran0 26.588564 -17.336787 -2.267833
DOCKED: USER    NEWDPF quaternion0 -0.336532 0.531015 -0.776660 -0.039603
DOCKED: USER    NEWDPF axisangle0 -0.336797 0.531432 -0.777270 -175.460609
DOCKED: USER    NEWDPF quat0 -0.336797 0.531432 -0.777270 -175.460609
DOCKED: USER    NEWDPF dihe0 2.56 169.60 82.72 -116.02 75.18 33.27 -9.98 
DOCKED: USER  keepresnum = 1 
DOCKED: USER  
DOCKED: REMARK  Name = 
DOCKED: REMARK  7 active torsions:
DOCKED: REMARK  status: ('A' for Active; 'I' for Inactive)
DOCKED: REMARK    1  A    between atoms: C_2  and  C_5
DOCKED: REMARK    2  A    between atoms: N_3  and  O_4
DOCKED: REMARK    3  A    between atoms: C_5  and  C_6
DOCKED: REMARK    4  A    between atoms: C_6  and  C_7
DOCKED: REMARK    5  A    between atoms: C_7  and  C_8
DOCKED: REMARK    6  A    between atoms: C_8  and  C_9
DOCKED: REMARK    7  A    between atoms: C_9  and  N_10
DOCKED: REMARK                            x       y       z     vdW  Elec       q    Type
DOCKED: REMARK                         _______ _______ _______ _____ _____    ______ ____
DOCKED: USER                              x       y       z     vdW  Elec       q    Type
DOCKED: USER                           _______ _______ _______ _____ _____    ______ ____
DOCKED: ROOT
DOCKED: ATOM      1  N   UNL     1      26.715 -15.861  -2.042 -0.35 -0.00    +0.000 N 
DOCKED: ATOM      2  C   UNL     1      26.520 -15.345  -3.373 -0.47 -0.00    +0.000 C 
DOCKED: ATOM      3  C   UNL     1      27.649 -15.316  -4.331 -0.35 -0.00    +0.000 A 
DOCKED: ATOM      4  C   UNL     1      27.463 -14.838  -5.640 -0.31 -0.00    +0.000 A 
DOCKED: ATOM      5  C   UNL     1      28.527 -14.814  -6.543 -0.30 -0.00    +0.000 A 
DOCKED: ATOM      6  C   UNL     1      29.788 -15.264  -6.158 -0.29 -0.00    +0.000 A 
DOCKED: ATOM      7  C   UNL     1      30.000 -15.745  -4.858 -0.20 -0.00    +0.000 A 
DOCKED: ATOM      8  C   UNL     1      31.269 -16.195  -4.470 -0.10 -0.00    +0.000 A 
DOCKED: ATOM      9  C   UNL     1      31.479 -16.673  -3.176 -0.08 -0.00    +0.000 A 
DOCKED: ATOM     10  C   UNL     1      30.428 -16.705  -2.258 -0.14 -0.00    +0.000 A 
DOCKED: ATOM     11  C   UNL     1      29.146 -16.258  -2.623 -0.20 -0.00    +0.000 A 
DOCKED: ATOM     12  C   UNL     1      28.924 -15.774  -3.932 -0.24 -0.00    +0.000 A 
DOCKED: ATOM     13  O   UNL     1      25.387 -14.913  -3.724 -0.76 -0.00    +0.000 OA
DOCKED: ATOM     14  C   UNL     1      28.032 -16.294  -1.647 -0.33 -0.00    +0.000 C 
DOCKED: ATOM     15  O   UNL     1      28.241 -16.702  -0.473 -0.36 -0.00    +0.000 OA
DOCKED: ENDROOT
DOCKED: BRANCH   1  16
DOCKED: ATOM     16  C   UNL     1      25.572 -15.972  -1.118 -0.51 -0.00    +0.000 C 
DOCKED: BRANCH  16  17
DOCKED: ATOM     17  C   UNL     1      24.548 -17.010  -1.611 -0.65 -0.00    +0.000 C 
DOCKED: BRANCH  17  18
DOCKED: ATOM     18  C   UNL     1      24.700 -18.401  -0.967 -0.69 -0.00    +0.000 C 
DOCKED: BRANCH  18  19
DOCKED: ATOM     19  C   UNL     1      23.371 -19.143  -0.709 -0.75 -0.00    +0.000 C 
DOCKED: BRANCH  19  20
DOCKED: ATOM     20  C   UNL     1      22.308 -18.309   0.025 -0.80 -0.00    +0.000 C 
DOCKED: BRANCH  20  22
DOCKED: ATOM     21  O   UNL     1      20.264 -17.753  -1.081 -2.13 -0.00    +0.000 OA
DOCKED: ATOM     22  C   UNL     1      20.919 -18.624  -0.448 -0.71 -0.00    +0.000 C 
DOCKED: ATOM     23  N   UNL     1      20.324 -19.891  -0.156 -0.75 -0.00    +0.000 N 
DOCKED: ATOM     24  H   UNL     1      20.835 -20.566   0.346 -0.28 -0.00    +0.000 HD
DOCKED: BRANCH  23  25
DOCKED: ATOM     25  O   UNL     1      19.062 -20.169  -0.564 -0.90 -0.00    +0.000 OA
DOCKED: ATOM     26  H   UNL     1      18.715 -19.422  -1.075 -0.53 -0.00    +0.000 HD
DOCKED: ENDBRANCH  23  25
DOCKED: ENDBRANCH  20  22
DOCKED: ENDBRANCH  19  20
DOCKED: ENDBRANCH  18  19
DOCKED: ENDBRANCH  17  18
DOCKED: ENDBRANCH  16  17
DOCKED: ENDBRANCH   1  16
DOCKED: TORSDOF 7
DOCKED: TER
DOCKED: ENDMDL
________________________________________________________________________________


	BEGINNING GENETIC ALGORITHM DOCKING 80 of 100
Run: 80 Seed: 1230067816 410431923 [ Run 80 of 100 GA/GALS ]
Beginning LAMARCKIAN GENETIC ALGORITHM (LGA), with a maximum of 2500000 energy evaluations.

Final-Value: -14.030


	FINAL GENETIC ALGORITHM DOCKED STATE
	_______________________________________________


Detailed state:  trans 26.718 -16.164 -1.920 quatxyzw 0.220086 -0.087159 0.829486 0.505885 center 0.154 0.112 -0.159 ntor 7 -18.3105 150.0204 63.6539 -101.4752 -166.6456 175.3251 71.2718
State:	 26.718 -16.164  -1.920   0.255 -0.101  0.962 119.220    -18.31  150.02   63.65 -101.48 -166.65  175.33   71.27

DOCKED: MODEL       80
DOCKED: USER    Run = 80
DOCKED: USER    DPF = ligand_dock.biased.dpf
DOCKED: USER  
DOCKED: USER    Estimated Free Energy of Binding    =  -10.96 kcal/mol  [=(1)+(2)+(3)-(4)]
DOCKED: USER    Estimated Inhibition Constant, Ki   =    9.27 nM (nanomolar)  [Temperature = 298.15 K]
DOCKED: USER    
DOCKED: USER    (1) Final Intermolecular Energy     =  -13.05 kcal/mol
DOCKED: USER        vdW + Hbond + desolv Energy     =  -13.05 kcal/mol
DOCKED: USER        Electrostatic Energy            =   +0.00 kcal/mol
DOCKED: USER    (2) Final Total Internal Energy     =   -0.98 kcal/mol
DOCKED: USER    (3) Torsional Free Energy           =   +2.09 kcal/mol
DOCKED: USER    (4) Unbound System's Energy  [=(2)] =   -0.98 kcal/mol
DOCKED: USER    
DOCKED: USER    
DOCKED: USER    NEWDPF move ligand.pdbqt
DOCKED: USER    NEWDPF about 0.154000 0.112000 -0.159000
DOCKED: USER    NEWDPF tran0 26.717968 -16.163967 -1.919904
DOCKED: USER    NEWDPF quaternion0 0.220086 -0.087159 0.829486 0.505885
DOCKED: USER    NEWDPF axisangle0 0.255142 -0.101043 0.961610 119.219828
DOCKED: USER    NEWDPF quat0 0.255142 -0.101043 0.961610 119.219828
DOCKED: USER    NEWDPF dihe0 -18.31 150.02 63.65 -101.48 -166.65 175.33 71.27 
DOCKED: USER  keepresnum = 1 
DOCKED: USER  
DOCKED: REMARK  Name = 
DOCKED: REMARK  7 active torsions:
DOCKED: REMARK  status: ('A' for Active; 'I' for Inactive)
DOCKED: REMARK    1  A    between atoms: C_2  and  C_5
DOCKED: REMARK    2  A    between atoms: N_3  and  O_4
DOCKED: REMARK    3  A    between atoms: C_5  and  C_6
DOCKED: REMARK    4  A    between atoms: C_6  and  C_7
DOCKED: REMARK    5  A    between atoms: C_7  and  C_8
DOCKED: REMARK    6  A    between atoms: C_8  and  C_9
DOCKED: REMARK    7  A    between atoms: C_9  and  N_10
DOCKED: REMARK                            x       y       z     vdW  Elec       q    Type
DOCKED: REMARK                         _______ _______ _______ _____ _____    ______ ____
DOCKED: USER                              x       y       z     vdW  Elec       q    Type
DOCKED: USER                           _______ _______ _______ _____ _____    ______ ____
DOCKED: ROOT
DOCKED: ATOM      1  N   UNL     1      25.779 -15.303  -2.709 -0.45 -0.00    +0.000 N 
DOCKED: ATOM      2  C   UNL     1      26.468 -15.204  -3.971 -0.53 -0.00    +0.000 C 
DOCKED: ATOM      3  C   UNL     1      27.556 -14.215  -4.148 -0.27 -0.00    +0.000 A 
DOCKED: ATOM      4  C   UNL     1      28.251 -14.128  -5.367 -0.28 -0.00    +0.000 A 
DOCKED: ATOM      5  C   UNL     1      29.279 -13.198  -5.532 -0.13 -0.00    +0.000 A 
DOCKED: ATOM      6  C   UNL     1      29.629 -12.344  -4.488 -0.05 -0.00    +0.000 A 
DOCKED: ATOM      7  C   UNL     1      28.952 -12.411  -3.263 -0.06 -0.00    +0.000 A 
DOCKED: ATOM      8  C   UNL     1      29.303 -11.550  -2.214 -0.03 -0.00    +0.000 A 
DOCKED: ATOM      9  C   UNL     1      28.628 -11.617  -0.995 -0.05 -0.00    +0.000 A 
DOCKED: ATOM     10  C   UNL     1      27.597 -12.539  -0.811 -0.12 -0.00    +0.000 A 
DOCKED: ATOM     11  C   UNL     1      27.226 -13.413  -1.848 -0.17 -0.00    +0.000 A 
DOCKED: ATOM     12  C   UNL     1      27.905 -13.353  -3.085 -0.14 -0.00    +0.000 A 
DOCKED: ATOM     13  O   UNL     1      26.142 -15.957  -4.930 -0.99 +0.00    +0.000 OA
DOCKED: ATOM     14  C   UNL     1      26.132 -14.392  -1.649 -0.31 -0.00    +0.000 C 
DOCKED: ATOM     15  O   UNL     1      25.511 -14.424  -0.552 -0.38 -0.00    +0.000 OA
DOCKED: ENDROOT
DOCKED: BRANCH   1  16
DOCKED: ATOM     16  C   UNL     1      24.758 -16.345  -2.505 -0.26 -0.00    +0.000 C 
DOCKED: BRANCH  16  17
DOCKED: ATOM     17  C   UNL     1      24.732 -16.831  -1.045 -0.64 -0.00    +0.000 C 
DOCKED: BRANCH  17  18
DOCKED: ATOM     18  C   UNL     1      25.002 -18.338  -0.876 -0.67 -0.00    +0.000 C 
DOCKED: BRANCH  18  19
DOCKED: ATOM     19  C   UNL     1      23.735 -19.209  -0.730 -0.62 -0.00    +0.000 C 
DOCKED: BRANCH  19  20
DOCKED: ATOM     20  C   UNL     1      22.590 -18.541   0.048 -0.77 -0.00    +0.000 C 
DOCKED: BRANCH  20  22
DOCKED: ATOM     21  O   UNL     1      20.640 -17.469  -0.824 -2.07 +0.00    +0.000 OA
DOCKED: ATOM     22  C   UNL     1      21.308 -18.534  -0.734 -0.85 -0.00    +0.000 C 
DOCKED: ATOM     23  N   UNL     1      20.825 -19.733  -1.344 -0.79 -0.00    +0.000 N 
DOCKED: ATOM     24  H   UNL     1      21.346 -20.565  -1.265 -0.17 -0.00    +0.000 HD
DOCKED: BRANCH  23  25
DOCKED: ATOM     25  O   UNL     1      19.658 -19.734  -2.032 -1.70 -0.00    +0.000 OA
DOCKED: ATOM     26  H   UNL     1      19.136 -18.954  -1.784 -0.56 -0.00    +0.000 HD
DOCKED: ENDBRANCH  23  25
DOCKED: ENDBRANCH  20  22
DOCKED: ENDBRANCH  19  20
DOCKED: ENDBRANCH  18  19
DOCKED: ENDBRANCH  17  18
DOCKED: ENDBRANCH  16  17
DOCKED: ENDBRANCH   1  16
DOCKED: TORSDOF 7
DOCKED: TER
DOCKED: ENDMDL
________________________________________________________________________________


	BEGINNING GENETIC ALGORITHM DOCKING 81 of 100
Run: 81 Seed: 1334987055 1426494339 [ Run 81 of 100 GA/GALS ]
Beginning LAMARCKIAN GENETIC ALGORITHM (LGA), with a maximum of 2500000 energy evaluations.

Final-Value: -15.018


	FINAL GENETIC ALGORITHM DOCKED STATE
	_______________________________________________


Detailed state:  trans 27.005 -14.933 -1.686 quatxyzw 0.367573 0.741367 0.473489 0.301784 center 0.154 0.112 -0.159 ntor 7 -12.6602 158.1321 -19.6083 15.6396 -1.4014 38.9432 148.6977
State:	 27.005 -14.933  -1.686   0.386  0.778  0.497 144.870    -12.66  158.13  -19.61   15.64   -1.40   38.94  148.70

DOCKED: MODEL       81
DOCKED: USER    Run = 81
DOCKED: USER    DPF = ligand_dock.biased.dpf
DOCKED: USER  
DOCKED: USER    Estimated Free Energy of Binding    =  -11.70 kcal/mol  [=(1)+(2)+(3)-(4)]
DOCKED: USER    Estimated Inhibition Constant, Ki   =    2.66 nM (nanomolar)  [Temperature = 298.15 K]
DOCKED: USER    
DOCKED: USER    (1) Final Intermolecular Energy     =  -13.79 kcal/mol
DOCKED: USER        vdW + Hbond + desolv Energy     =  -13.79 kcal/mol
DOCKED: USER        Electrostatic Energy            =   +0.00 kcal/mol
DOCKED: USER    (2) Final Total Internal Energy     =   -1.23 kcal/mol
DOCKED: USER    (3) Torsional Free Energy           =   +2.09 kcal/mol
DOCKED: USER    (4) Unbound System's Energy  [=(2)] =   -1.23 kcal/mol
DOCKED: USER    
DOCKED: USER    
DOCKED: USER    NEWDPF move ligand.pdbqt
DOCKED: USER    NEWDPF about 0.154000 0.112000 -0.159000
DOCKED: USER    NEWDPF tran0 27.004804 -14.933365 -1.686316
DOCKED: USER    NEWDPF quaternion0 0.367573 0.741367 0.473489 0.301784
DOCKED: USER    NEWDPF axisangle0 0.385549 0.777622 0.496644 144.870427
DOCKED: USER    NEWDPF quat0 0.385549 0.777622 0.496644 144.870427
DOCKED: USER    NEWDPF dihe0 -12.66 158.13 -19.61 15.64 -1.40 38.94 148.70 
DOCKED: USER  keepresnum = 1 
DOCKED: USER  
DOCKED: REMARK  Name = 
DOCKED: REMARK  7 active torsions:
DOCKED: REMARK  status: ('A' for Active; 'I' for Inactive)
DOCKED: REMARK    1  A    between atoms: C_2  and  C_5
DOCKED: REMARK    2  A    between atoms: N_3  and  O_4
DOCKED: REMARK    3  A    between atoms: C_5  and  C_6
DOCKED: REMARK    4  A    between atoms: C_6  and  C_7
DOCKED: REMARK    5  A    between atoms: C_7  and  C_8
DOCKED: REMARK    6  A    between atoms: C_8  and  C_9
DOCKED: REMARK    7  A    between atoms: C_9  and  N_10
DOCKED: REMARK                            x       y       z     vdW  Elec       q    Type
DOCKED: REMARK                         _______ _______ _______ _____ _____    ______ ____
DOCKED: USER                              x       y       z     vdW  Elec       q    Type
DOCKED: USER                           _______ _______ _______ _____ _____    ______ ____
DOCKED: ROOT
DOCKED: ATOM      1  N   UNL     1      26.720 -16.314  -2.195 -0.38 -0.00    +0.000 N 
DOCKED: ATOM      2  C   UNL     1      27.991 -16.964  -1.996 -0.26 -0.00    +0.000 C 
DOCKED: ATOM      3  C   UNL     1      29.074 -16.798  -2.991 -0.19 -0.00    +0.000 A 
DOCKED: ATOM      4  C   UNL     1      30.326 -17.408  -2.794 -0.17 -0.00    +0.000 A 
DOCKED: ATOM      5  C   UNL     1      31.348 -17.248  -3.731 -0.12 -0.00    +0.000 A 
DOCKED: ATOM      6  C   UNL     1      31.140 -16.481  -4.876 -0.13 -0.00    +0.000 A 
DOCKED: ATOM      7  C   UNL     1      29.901 -15.863  -5.096 -0.24 -0.00    +0.000 A 
DOCKED: ATOM      8  C   UNL     1      29.691 -15.093  -6.249 -0.30 -0.00    +0.000 A 
DOCKED: ATOM      9  C   UNL     1      28.458 -14.479  -6.468 -0.32 -0.00    +0.000 A 
DOCKED: ATOM     10  C   UNL     1      27.423 -14.627  -5.543 -0.33 -0.00    +0.000 A 
DOCKED: ATOM     11  C   UNL     1      27.609 -15.394  -4.380 -0.35 -0.00    +0.000 A 
DOCKED: ATOM     12  C   UNL     1      28.855 -16.019  -4.149 -0.25 -0.00    +0.000 A 
DOCKED: ATOM     13  O   UNL     1      28.181 -17.680  -0.974 -0.43 -0.00    +0.000 OA
DOCKED: ATOM     14  C   UNL     1      26.510 -15.549  -3.399 -0.48 -0.00    +0.000 C 
DOCKED: ATOM     15  O   UNL     1      25.391 -15.012  -3.621 -0.72 -0.00    +0.000 OA
DOCKED: ENDROOT
DOCKED: BRANCH   1  16
DOCKED: ATOM     16  C   UNL     1      25.673 -16.406  -1.163 -0.55 -0.00    +0.000 C 
DOCKED: BRANCH  16  17
DOCKED: ATOM     17  C   UNL     1      24.296 -16.706  -1.781 -0.53 -0.00    +0.000 C 
DOCKED: BRANCH  17  18
DOCKED: ATOM     18  C   UNL     1      23.843 -18.170  -1.632 -0.70 -0.00    +0.000 C 
DOCKED: BRANCH  18  19
DOCKED: ATOM     19  C   UNL     1      23.536 -18.608  -0.184 -0.74 -0.00    +0.000 C 
DOCKED: BRANCH  19  20
DOCKED: ATOM     20  C   UNL     1      22.138 -18.213   0.318 -0.66 -0.00    +0.000 C 
DOCKED: BRANCH  20  22
DOCKED: ATOM     21  O   UNL     1      20.341 -17.484  -1.078 -2.04 -0.00    +0.000 OA
DOCKED: ATOM     22  C   UNL     1      21.080 -18.441  -0.722 -0.79 -0.00    +0.000 C 
DOCKED: ATOM     23  N   UNL     1      20.884 -19.741  -1.282 -0.77 -0.00    +0.000 N 
DOCKED: ATOM     24  H   UNL     1      21.458 -20.488  -0.996 -0.16 -0.00    +0.000 HD
DOCKED: BRANCH  23  25
DOCKED: ATOM     25  O   UNL     1      19.915 -19.954  -2.205 -1.83 -0.00    +0.000 OA
DOCKED: ATOM     26  H   UNL     1      19.320 -19.189  -2.232 -0.36 -0.00    +0.000 HD
DOCKED: ENDBRANCH  23  25
DOCKED: ENDBRANCH  20  22
DOCKED: ENDBRANCH  19  20
DOCKED: ENDBRANCH  18  19
DOCKED: ENDBRANCH  17  18
DOCKED: ENDBRANCH  16  17
DOCKED: ENDBRANCH   1  16
DOCKED: TORSDOF 7
DOCKED: TER
DOCKED: ENDMDL
________________________________________________________________________________


	BEGINNING GENETIC ALGORITHM DOCKING 82 of 100
Run: 82 Seed: 1097563694 1087550570 [ Run 82 of 100 GA/GALS ]
Beginning LAMARCKIAN GENETIC ALGORITHM (LGA), with a maximum of 2500000 energy evaluations.

Final-Value: -14.007


	FINAL GENETIC ALGORITHM DOCKED STATE
	_______________________________________________


Detailed state:  trans 26.618 -15.283 -0.746 quatxyzw -0.143541 -0.830394 -0.309335 -0.440629 center 0.154 0.112 -0.159 ntor 7 -6.7272 -137.5740 -159.4506 179.7261 -113.1252 -152.5658 171.1310
State:	 26.618 -15.283  -0.746  -0.160 -0.925 -0.345 -127.712     -6.73 -137.57 -159.45  179.73 -113.13 -152.57  171.13

DOCKED: MODEL       82
DOCKED: USER    Run = 82
DOCKED: USER    DPF = ligand_dock.biased.dpf
DOCKED: USER  
DOCKED: USER    Estimated Free Energy of Binding    =  -10.70 kcal/mol  [=(1)+(2)+(3)-(4)]
DOCKED: USER    Estimated Inhibition Constant, Ki   =   14.30 nM (nanomolar)  [Temperature = 298.15 K]
DOCKED: USER    
DOCKED: USER    (1) Final Intermolecular Energy     =  -12.79 kcal/mol
DOCKED: USER        vdW + Hbond + desolv Energy     =  -12.79 kcal/mol
DOCKED: USER        Electrostatic Energy            =   +0.00 kcal/mol
DOCKED: USER    (2) Final Total Internal Energy     =   -1.22 kcal/mol
DOCKED: USER    (3) Torsional Free Energy           =   +2.09 kcal/mol
DOCKED: USER    (4) Unbound System's Energy  [=(2)] =   -1.22 kcal/mol
DOCKED: USER    
DOCKED: USER    
DOCKED: USER    NEWDPF move ligand.pdbqt
DOCKED: USER    NEWDPF about 0.154000 0.112000 -0.159000
DOCKED: USER    NEWDPF tran0 26.617821 -15.283294 -0.746393
DOCKED: USER    NEWDPF quaternion0 -0.143541 -0.830394 -0.309335 -0.440629
DOCKED: USER    NEWDPF axisangle0 -0.159900 -0.925035 -0.344590 -127.711943
DOCKED: USER    NEWDPF quat0 -0.159900 -0.925035 -0.344590 -127.711943
DOCKED: USER    NEWDPF dihe0 -6.73 -137.57 -159.45 179.73 -113.13 -152.57 171.13 
DOCKED: USER  keepresnum = 1 
DOCKED: USER  
DOCKED: REMARK  Name = 
DOCKED: REMARK  7 active torsions:
DOCKED: REMARK  status: ('A' for Active; 'I' for Inactive)
DOCKED: REMARK    1  A    between atoms: C_2  and  C_5
DOCKED: REMARK    2  A    between atoms: N_3  and  O_4
DOCKED: REMARK    3  A    between atoms: C_5  and  C_6
DOCKED: REMARK    4  A    between atoms: C_6  and  C_7
DOCKED: REMARK    5  A    between atoms: C_7  and  C_8
DOCKED: REMARK    6  A    between atoms: C_8  and  C_9
DOCKED: REMARK    7  A    between atoms: C_9  and  N_10
DOCKED: REMARK                            x       y       z     vdW  Elec       q    Type
DOCKED: REMARK                         _______ _______ _______ _____ _____    ______ ____
DOCKED: USER                              x       y       z     vdW  Elec       q    Type
DOCKED: USER                           _______ _______ _______ _____ _____    ______ ____
DOCKED: ROOT
DOCKED: ATOM      1  N   UNL     1      27.201 -16.607  -1.136 -0.39 -0.00    +0.000 N 
DOCKED: ATOM      2  C   UNL     1      28.613 -16.353  -1.004 -0.29 -0.00    +0.000 C 
DOCKED: ATOM      3  C   UNL     1      29.352 -15.682  -2.097 -0.15 -0.00    +0.000 A 
DOCKED: ATOM      4  C   UNL     1      30.725 -15.407  -1.967 -0.06 -0.00    +0.000 A 
DOCKED: ATOM      5  C   UNL     1      31.421 -14.772  -2.998 -0.02 -0.00    +0.000 A 
DOCKED: ATOM      6  C   UNL     1      30.762 -14.403  -4.169 -0.05 -0.00    +0.000 A 
DOCKED: ATOM      7  C   UNL     1      29.394 -14.667  -4.323 -0.14 -0.00    +0.000 A 
DOCKED: ATOM      8  C   UNL     1      28.732 -14.297  -5.502 -0.27 -0.00    +0.000 A 
DOCKED: ATOM      9  C   UNL     1      27.371 -14.560  -5.655 -0.23 -0.00    +0.000 A 
DOCKED: ATOM     10  C   UNL     1      26.658 -15.195  -4.636 -0.49 -0.00    +0.000 A 
DOCKED: ATOM     11  C   UNL     1      27.299 -15.575  -3.445 -0.32 -0.00    +0.000 A 
DOCKED: ATOM     12  C   UNL     1      28.677 -15.312  -3.281 -0.19 -0.00    +0.000 A 
DOCKED: ATOM     13  O   UNL     1      29.224 -16.705   0.043 -0.24 -0.00    +0.000 OA
DOCKED: ATOM     14  C   UNL     1      26.540 -16.248  -2.365 -0.44 -0.00    +0.000 C 
DOCKED: ATOM     15  O   UNL     1      25.316 -16.505  -2.526 -0.60 -0.00    +0.000 OA
DOCKED: ENDROOT
DOCKED: BRANCH   1  16
DOCKED: ATOM     16  C   UNL     1      26.448 -17.194  -0.013 -0.48 -0.00    +0.000 C 
DOCKED: BRANCH  16  17
DOCKED: ATOM     17  C   UNL     1      25.954 -18.613  -0.346 -0.61 -0.00    +0.000 C 
DOCKED: BRANCH  17  18
DOCKED: ATOM     18  C   UNL     1      24.573 -18.657  -1.027 -0.63 -0.00    +0.000 C 
DOCKED: BRANCH  18  19
DOCKED: ATOM     19  C   UNL     1      23.513 -17.727  -0.400 -0.75 -0.00    +0.000 C 
DOCKED: BRANCH  19  20
DOCKED: ATOM     20  C   UNL     1      22.332 -18.459   0.259 -0.67 -0.00    +0.000 C 
DOCKED: BRANCH  20  22
DOCKED: ATOM     21  O   UNL     1      20.609 -17.486  -1.082 -2.11 -0.00    +0.000 OA
DOCKED: ATOM     22  C   UNL     1      21.143 -18.544  -0.653 -0.81 -0.00    +0.000 C 
DOCKED: ATOM     23  N   UNL     1      20.592 -19.815  -1.008 -0.80 -0.00    +0.000 N 
DOCKED: ATOM     24  H   UNL     1      21.006 -20.640  -0.664 -0.04 -0.00    +0.000 HD
DOCKED: BRANCH  23  25
DOCKED: ATOM     25  O   UNL     1      19.505 -19.894  -1.813 -1.55 -0.00    +0.000 OA
DOCKED: ATOM     26  H   UNL     1      19.158 -19.003  -1.976 -0.48 -0.00    +0.000 HD
DOCKED: ENDBRANCH  23  25
DOCKED: ENDBRANCH  20  22
DOCKED: ENDBRANCH  19  20
DOCKED: ENDBRANCH  18  19
DOCKED: ENDBRANCH  17  18
DOCKED: ENDBRANCH  16  17
DOCKED: ENDBRANCH   1  16
DOCKED: TORSDOF 7
DOCKED: TER
DOCKED: ENDMDL
________________________________________________________________________________


	BEGINNING GENETIC ALGORITHM DOCKING 83 of 100
Run: 83 Seed: 468185406 926925825 [ Run 83 of 100 GA/GALS ]
Beginning LAMARCKIAN GENETIC ALGORITHM (LGA), with a maximum of 2500000 energy evaluations.

Final-Value: -13.943


	FINAL GENETIC ALGORITHM DOCKED STATE
	_______________________________________________


Detailed state:  trans 26.865 -17.821 -1.932 quatxyzw -0.524267 0.707817 -0.466872 0.078543 center 0.154 0.112 -0.159 ntor 7 -14.5845 85.2074 -172.2549 162.4019 86.0888 -167.6753 14.9717
State:	 26.865 -17.821  -1.932  -0.526  0.710 -0.468 170.990    -14.58   85.21 -172.25  162.40   86.09 -167.68   14.97

DOCKED: MODEL       83
DOCKED: USER    Run = 83
DOCKED: USER    DPF = ligand_dock.biased.dpf
DOCKED: USER  
DOCKED: USER    Estimated Free Energy of Binding    =  -10.55 kcal/mol  [=(1)+(2)+(3)-(4)]
DOCKED: USER    Estimated Inhibition Constant, Ki   =   18.46 nM (nanomolar)  [Temperature = 298.15 K]
DOCKED: USER    
DOCKED: USER    (1) Final Intermolecular Energy     =  -12.64 kcal/mol
DOCKED: USER        vdW + Hbond + desolv Energy     =  -12.64 kcal/mol
DOCKED: USER        Electrostatic Energy            =   +0.00 kcal/mol
DOCKED: USER    (2) Final Total Internal Energy     =   -1.30 kcal/mol
DOCKED: USER    (3) Torsional Free Energy           =   +2.09 kcal/mol
DOCKED: USER    (4) Unbound System's Energy  [=(2)] =   -1.30 kcal/mol
DOCKED: USER    
DOCKED: USER    
DOCKED: USER    NEWDPF move ligand.pdbqt
DOCKED: USER    NEWDPF about 0.154000 0.112000 -0.159000
DOCKED: USER    NEWDPF tran0 26.865472 -17.820760 -1.931605
DOCKED: USER    NEWDPF quaternion0 -0.524267 0.707817 -0.466872 0.078543
DOCKED: USER    NEWDPF axisangle0 -0.525892 0.710011 -0.468319 170.990327
DOCKED: USER    NEWDPF quat0 -0.525892 0.710011 -0.468319 170.990327
DOCKED: USER    NEWDPF dihe0 -14.58 85.21 -172.25 162.40 86.09 -167.68 14.97 
DOCKED: USER  keepresnum = 1 
DOCKED: USER  
DOCKED: REMARK  Name = 
DOCKED: REMARK  7 active torsions:
DOCKED: REMARK  status: ('A' for Active; 'I' for Inactive)
DOCKED: REMARK    1  A    between atoms: C_2  and  C_5
DOCKED: REMARK    2  A    between atoms: N_3  and  O_4
DOCKED: REMARK    3  A    between atoms: C_5  and  C_6
DOCKED: REMARK    4  A    between atoms: C_6  and  C_7
DOCKED: REMARK    5  A    between atoms: C_7  and  C_8
DOCKED: REMARK    6  A    between atoms: C_8  and  C_9
DOCKED: REMARK    7  A    between atoms: C_9  and  N_10
DOCKED: REMARK                            x       y       z     vdW  Elec       q    Type
DOCKED: REMARK                         _______ _______ _______ _____ _____    ______ ____
DOCKED: USER                              x       y       z     vdW  Elec       q    Type
DOCKED: USER                           _______ _______ _______ _____ _____    ______ ____
DOCKED: ROOT
DOCKED: ATOM      1  N   UNL     1      27.439 -16.640  -1.209 -0.37 -0.00    +0.000 N 
DOCKED: ATOM      2  C   UNL     1      26.656 -15.559  -1.751 -0.40 -0.00    +0.000 C 
DOCKED: ATOM      3  C   UNL     1      27.018 -14.962  -3.057 -0.31 -0.00    +0.000 A 
DOCKED: ATOM      4  C   UNL     1      26.245 -13.924  -3.607 -0.37 -0.00    +0.000 A 
DOCKED: ATOM      5  C   UNL     1      26.585 -13.363  -4.839 -0.26 -0.00    +0.000 A 
DOCKED: ATOM      6  C   UNL     1      27.696 -13.828  -5.541 -0.28 -0.00    +0.000 A 
DOCKED: ATOM      7  C   UNL     1      28.483 -14.861  -5.015 -0.30 -0.00    +0.000 A 
DOCKED: ATOM      8  C   UNL     1      29.602 -15.326  -5.719 -0.28 -0.00    +0.000 A 
DOCKED: ATOM      9  C   UNL     1      30.385 -16.355  -5.195 -0.22 -0.00    +0.000 A 
DOCKED: ATOM     10  C   UNL     1      30.062 -16.927  -3.963 -0.22 -0.00    +0.000 A 
DOCKED: ATOM     11  C   UNL     1      28.945 -16.478  -3.237 -0.21 -0.00    +0.000 A 
DOCKED: ATOM     12  C   UNL     1      28.146 -15.438  -3.762 -0.27 -0.00    +0.000 A 
DOCKED: ATOM     13  O   UNL     1      25.662 -15.116  -1.112 -0.43 -0.00    +0.000 OA
DOCKED: ATOM     14  C   UNL     1      28.604 -17.088  -1.931 -0.26 -0.00    +0.000 C 
DOCKED: ATOM     15  O   UNL     1      29.334 -17.998  -1.455 -0.26 -0.00    +0.000 OA
DOCKED: ENDROOT
DOCKED: BRANCH   1  16
DOCKED: ATOM     16  C   UNL     1      27.028 -17.293   0.046 -0.46 -0.00    +0.000 C 
DOCKED: BRANCH  16  17
DOCKED: ATOM     17  C   UNL     1      26.107 -18.497  -0.220 -0.62 -0.00    +0.000 C 
DOCKED: BRANCH  17  18
DOCKED: ATOM     18  C   UNL     1      24.618 -18.229   0.072 -0.66 -0.00    +0.000 C 
DOCKED: BRANCH  18  19
DOCKED: ATOM     19  C   UNL     1      23.634 -19.125  -0.712 -0.71 -0.00    +0.000 C 
DOCKED: BRANCH  19  20
DOCKED: ATOM     20  C   UNL     1      22.489 -18.364  -1.399 -0.61 -0.00    +0.000 C 
DOCKED: BRANCH  20  22
DOCKED: ATOM     21  O   UNL     1      20.192 -17.860  -0.971 -2.12 -0.00    +0.000 OA
DOCKED: ATOM     22  C   UNL     1      21.164 -18.632  -0.747 -0.85 -0.00    +0.000 C 
DOCKED: ATOM     23  N   UNL     1      21.007 -19.735   0.149 -0.68 -0.00    +0.000 N 
DOCKED: ATOM     24  H   UNL     1      21.770 -20.331   0.327 -0.57 -0.00    +0.000 HD
DOCKED: BRANCH  23  25
DOCKED: ATOM     25  O   UNL     1      19.818 -19.967   0.754 -0.78 -0.00    +0.000 OA
DOCKED: ATOM     26  H   UNL     1      19.251 -19.185   0.664 -0.14 -0.00    +0.000 HD
DOCKED: ENDBRANCH  23  25
DOCKED: ENDBRANCH  20  22
DOCKED: ENDBRANCH  19  20
DOCKED: ENDBRANCH  18  19
DOCKED: ENDBRANCH  17  18
DOCKED: ENDBRANCH  16  17
DOCKED: ENDBRANCH   1  16
DOCKED: TORSDOF 7
DOCKED: TER
DOCKED: ENDMDL
________________________________________________________________________________


	BEGINNING GENETIC ALGORITHM DOCKING 84 of 100
Run: 84 Seed: 480342696 1024531377 [ Run 84 of 100 GA/GALS ]
Beginning LAMARCKIAN GENETIC ALGORITHM (LGA), with a maximum of 2500000 energy evaluations.

Final-Value: -13.733


	FINAL GENETIC ALGORITHM DOCKED STATE
	_______________________________________________


Detailed state:  trans 27.037 -15.884 -2.261 quatxyzw -0.347281 0.097694 -0.848030 -0.388196 center 0.154 0.112 -0.159 ntor 7 -50.5789 -178.2639 64.4978 174.3244 42.5261 68.6799 -9.3646
State:	 27.037 -15.884  -2.261  -0.377  0.106 -0.920 -134.315    -50.58 -178.26   64.50  174.32   42.53   68.68   -9.36

DOCKED: MODEL       84
DOCKED: USER    Run = 84
DOCKED: USER    DPF = ligand_dock.biased.dpf
DOCKED: USER  
DOCKED: USER    Estimated Free Energy of Binding    =  -10.71 kcal/mol  [=(1)+(2)+(3)-(4)]
DOCKED: USER    Estimated Inhibition Constant, Ki   =   13.99 nM (nanomolar)  [Temperature = 298.15 K]
DOCKED: USER    
DOCKED: USER    (1) Final Intermolecular Energy     =  -12.80 kcal/mol
DOCKED: USER        vdW + Hbond + desolv Energy     =  -12.80 kcal/mol
DOCKED: USER        Electrostatic Energy            =   +0.00 kcal/mol
DOCKED: USER    (2) Final Total Internal Energy     =   -0.93 kcal/mol
DOCKED: USER    (3) Torsional Free Energy           =   +2.09 kcal/mol
DOCKED: USER    (4) Unbound System's Energy  [=(2)] =   -0.93 kcal/mol
DOCKED: USER    
DOCKED: USER    
DOCKED: USER    NEWDPF move ligand.pdbqt
DOCKED: USER    NEWDPF about 0.154000 0.112000 -0.159000
DOCKED: USER    NEWDPF tran0 27.036699 -15.884240 -2.261013
DOCKED: USER    NEWDPF quaternion0 -0.347281 0.097694 -0.848030 -0.388196
DOCKED: USER    NEWDPF axisangle0 -0.376834 0.106007 -0.920195 -134.315382
DOCKED: USER    NEWDPF quat0 -0.376834 0.106007 -0.920195 -134.315382
DOCKED: USER    NEWDPF dihe0 -50.58 -178.26 64.50 174.32 42.53 68.68 -9.36 
DOCKED: USER  keepresnum = 1 
DOCKED: USER  
DOCKED: REMARK  Name = 
DOCKED: REMARK  7 active torsions:
DOCKED: REMARK  status: ('A' for Active; 'I' for Inactive)
DOCKED: REMARK    1  A    between atoms: C_2  and  C_5
DOCKED: REMARK    2  A    between atoms: N_3  and  O_4
DOCKED: REMARK    3  A    between atoms: C_5  and  C_6
DOCKED: REMARK    4  A    between atoms: C_6  and  C_7
DOCKED: REMARK    5  A    between atoms: C_7  and  C_8
DOCKED: REMARK    6  A    between atoms: C_8  and  C_9
DOCKED: REMARK    7  A    between atoms: C_9  and  N_10
DOCKED: REMARK                            x       y       z     vdW  Elec       q    Type
DOCKED: REMARK                         _______ _______ _______ _____ _____    ______ ____
DOCKED: USER                              x       y       z     vdW  Elec       q    Type
DOCKED: USER                           _______ _______ _______ _____ _____    ______ ____
DOCKED: ROOT
DOCKED: ATOM      1  N   UNL     1      26.097 -14.963  -2.978 -0.41 -0.00    +0.000 N 
DOCKED: ATOM      2  C   UNL     1      26.459 -15.191  -4.354 -0.55 -0.00    +0.000 C 
DOCKED: ATOM      3  C   UNL     1      27.625 -14.492  -4.940 -0.35 -0.00    +0.000 A 
DOCKED: ATOM      4  C   UNL     1      28.002 -14.728  -6.274 -0.21 -0.00    +0.000 A 
DOCKED: ATOM      5  C   UNL     1      29.103 -14.071  -6.826 -0.30 -0.00    +0.000 A 
DOCKED: ATOM      6  C   UNL     1      29.843 -13.172  -6.060 -0.12 -0.00    +0.000 A 
DOCKED: ATOM      7  C   UNL     1      29.488 -12.920  -4.728 -0.07 -0.00    +0.000 A 
DOCKED: ATOM      8  C   UNL     1      30.231 -12.015  -3.958 -0.02 -0.00    +0.000 A 
DOCKED: ATOM      9  C   UNL     1      29.877 -11.764  -2.632 -0.01 -0.00    +0.000 A 
DOCKED: ATOM     10  C   UNL     1      28.779 -12.410  -2.063 -0.05 -0.00    +0.000 A 
DOCKED: ATOM     11  C   UNL     1      28.017 -13.322  -2.814 -0.12 -0.00    +0.000 A 
DOCKED: ATOM     12  C   UNL     1      28.370 -13.583  -4.157 -0.15 -0.00    +0.000 A 
DOCKED: ATOM     13  O   UNL     1      25.780 -15.985  -5.063 -1.03 +0.00    +0.000 OA
DOCKED: ATOM     14  C   UNL     1      26.853 -14.008  -2.207 -0.26 -0.00    +0.000 C 
DOCKED: ATOM     15  O   UNL     1      26.526 -13.752  -1.016 -0.29 -0.00    +0.000 OA
DOCKED: ENDROOT
DOCKED: BRANCH   1  16
DOCKED: ATOM     16  C   UNL     1      24.992 -15.725  -2.368 -0.42 -0.00    +0.000 C 
DOCKED: BRANCH  16  17
DOCKED: ATOM     17  C   UNL     1      25.337 -17.220  -2.249 -0.48 -0.00    +0.000 C 
DOCKED: BRANCH  17  18
DOCKED: ATOM     18  C   UNL     1      25.034 -17.829  -0.868 -0.71 -0.00    +0.000 C 
DOCKED: BRANCH  18  19
DOCKED: ATOM     19  C   UNL     1      23.876 -18.850  -0.851 -0.76 -0.00    +0.000 C 
DOCKED: BRANCH  19  20
DOCKED: ATOM     20  C   UNL     1      22.699 -18.463   0.058 -0.76 -0.00    +0.000 C 
DOCKED: BRANCH  20  22
DOCKED: ATOM     21  O   UNL     1      20.886 -17.403  -1.083 -1.92 -0.00    +0.000 OA
DOCKED: ATOM     22  C   UNL     1      21.389 -18.485  -0.676 -0.85 -0.00    +0.000 C 
DOCKED: ATOM     23  N   UNL     1      20.696 -19.717  -0.884 -0.80 -0.00    +0.000 N 
DOCKED: ATOM     24  H   UNL     1      21.088 -20.560  -0.557 -0.06 -0.00    +0.000 HD
DOCKED: BRANCH  23  25
DOCKED: ATOM     25  O   UNL     1      19.504 -19.736  -1.527 -1.58 -0.00    +0.000 OA
DOCKED: ATOM     26  H   UNL     1      18.910 -19.081  -1.128 -0.50 -0.00    +0.000 HD
DOCKED: ENDBRANCH  23  25
DOCKED: ENDBRANCH  20  22
DOCKED: ENDBRANCH  19  20
DOCKED: ENDBRANCH  18  19
DOCKED: ENDBRANCH  17  18
DOCKED: ENDBRANCH  16  17
DOCKED: ENDBRANCH   1  16
DOCKED: TORSDOF 7
DOCKED: TER
DOCKED: ENDMDL
________________________________________________________________________________


	BEGINNING GENETIC ALGORITHM DOCKING 85 of 100
Run: 85 Seed: 829406009 292279022 [ Run 85 of 100 GA/GALS ]
Beginning LAMARCKIAN GENETIC ALGORITHM (LGA), with a maximum of 2500000 energy evaluations.

Final-Value: -13.886


	FINAL GENETIC ALGORITHM DOCKED STATE
	_______________________________________________


Detailed state:  trans 27.160 -15.793 -2.511 quatxyzw 0.251135 -0.101250 0.765708 0.583413 center 0.154 0.112 -0.159 ntor 7 15.6624 -102.0842 92.5567 84.1519 -26.0132 63.1486 50.3995
State:	 27.160 -15.793  -2.511   0.309 -0.125  0.943 108.618     15.66 -102.08   92.56   84.15  -26.01   63.15   50.40

DOCKED: MODEL       85
DOCKED: USER    Run = 85
DOCKED: USER    DPF = ligand_dock.biased.dpf
DOCKED: USER  
DOCKED: USER    Estimated Free Energy of Binding    =  -10.68 kcal/mol  [=(1)+(2)+(3)-(4)]
DOCKED: USER    Estimated Inhibition Constant, Ki   =   14.81 nM (nanomolar)  [Temperature = 298.15 K]
DOCKED: USER    
DOCKED: USER    (1) Final Intermolecular Energy     =  -12.77 kcal/mol
DOCKED: USER        vdW + Hbond + desolv Energy     =  -12.77 kcal/mol
DOCKED: USER        Electrostatic Energy            =   +0.00 kcal/mol
DOCKED: USER    (2) Final Total Internal Energy     =   -1.12 kcal/mol
DOCKED: USER    (3) Torsional Free Energy           =   +2.09 kcal/mol
DOCKED: USER    (4) Unbound System's Energy  [=(2)] =   -1.12 kcal/mol
DOCKED: USER    
DOCKED: USER    
DOCKED: USER    NEWDPF move ligand.pdbqt
DOCKED: USER    NEWDPF about 0.154000 0.112000 -0.159000
DOCKED: USER    NEWDPF tran0 27.160063 -15.793230 -2.510857
DOCKED: USER    NEWDPF quaternion0 0.251135 -0.101250 0.765708 0.583413
DOCKED: USER    NEWDPF axisangle0 0.309212 -0.124665 0.942787 108.618060
DOCKED: USER    NEWDPF quat0 0.309212 -0.124665 0.942787 108.618060
DOCKED: USER    NEWDPF dihe0 15.66 -102.08 92.56 84.15 -26.01 63.15 50.40 
DOCKED: USER  keepresnum = 1 
DOCKED: USER  
DOCKED: REMARK  Name = 
DOCKED: REMARK  7 active torsions:
DOCKED: REMARK  status: ('A' for Active; 'I' for Inactive)
DOCKED: REMARK    1  A    between atoms: C_2  and  C_5
DOCKED: REMARK    2  A    between atoms: N_3  and  O_4
DOCKED: REMARK    3  A    between atoms: C_5  and  C_6
DOCKED: REMARK    4  A    between atoms: C_6  and  C_7
DOCKED: REMARK    5  A    between atoms: C_7  and  C_8
DOCKED: REMARK    6  A    between atoms: C_8  and  C_9
DOCKED: REMARK    7  A    between atoms: C_9  and  N_10
DOCKED: REMARK                            x       y       z     vdW  Elec       q    Type
DOCKED: REMARK                         _______ _______ _______ _____ _____    ______ ____
DOCKED: USER                              x       y       z     vdW  Elec       q    Type
DOCKED: USER                           _______ _______ _______ _____ _____    ______ ____
DOCKED: ROOT
DOCKED: ATOM      1  N   UNL     1      26.013 -15.107  -3.187 -0.45 -0.00    +0.000 N 
DOCKED: ATOM      2  C   UNL     1      26.562 -14.840  -4.492 -0.52 -0.00    +0.000 C 
DOCKED: ATOM      3  C   UNL     1      27.424 -13.655  -4.707 -0.27 -0.00    +0.000 A 
DOCKED: ATOM      4  C   UNL     1      27.986 -13.400  -5.970 -0.23 -0.00    +0.000 A 
DOCKED: ATOM      5  C   UNL     1      28.801 -12.285  -6.172 -0.14 -0.00    +0.000 A 
DOCKED: ATOM      6  C   UNL     1      29.069 -11.410  -5.120 -0.06 -0.00    +0.000 A 
DOCKED: ATOM      7  C   UNL     1      28.521 -11.642  -3.851 -0.07 -0.00    +0.000 A 
DOCKED: ATOM      8  C   UNL     1      28.789 -10.761  -2.795 -0.04 -0.00    +0.000 A 
DOCKED: ATOM      9  C   UNL     1      28.242 -10.992  -1.532 -0.06 -0.00    +0.000 A 
DOCKED: ATOM     10  C   UNL     1      27.424 -12.101  -1.311 -0.11 -0.00    +0.000 A 
DOCKED: ATOM     11  C   UNL     1      27.141 -12.999  -2.355 -0.15 -0.00    +0.000 A 
DOCKED: ATOM     12  C   UNL     1      27.691 -12.773  -3.636 -0.15 -0.00    +0.000 A 
DOCKED: ATOM     13  O   UNL     1      26.306 -15.613  -5.456 -1.20 +0.00    +0.000 OA
DOCKED: ATOM     14  C   UNL     1      26.273 -14.176  -2.117 -0.31 -0.00    +0.000 C 
DOCKED: ATOM     15  O   UNL     1      25.763 -14.359  -0.979 -0.36 -0.00    +0.000 OA
DOCKED: ENDROOT
DOCKED: BRANCH   1  16
DOCKED: ATOM     16  C   UNL     1      25.228 -16.332  -2.952 -0.39 -0.00    +0.000 C 
DOCKED: BRANCH  16  17
DOCKED: ATOM     17  C   UNL     1      25.781 -17.135  -1.761 -0.56 -0.00    +0.000 C 
DOCKED: BRANCH  17  18
DOCKED: ATOM     18  C   UNL     1      24.729 -17.479  -0.690 -0.70 -0.00    +0.000 C 
DOCKED: BRANCH  18  19
DOCKED: ATOM     19  C   UNL     1      23.370 -17.954  -1.246 -0.76 -0.00    +0.000 C 
DOCKED: BRANCH  19  20
DOCKED: ATOM     20  C   UNL     1      22.615 -18.933  -0.333 -0.80 -0.00    +0.000 C 
DOCKED: BRANCH  20  22
DOCKED: ATOM     21  O   UNL     1      20.607 -17.859  -1.059 -2.23 -0.00    +0.000 OA
DOCKED: ATOM     22  C   UNL     1      21.132 -18.894  -0.569 -0.86 -0.00    +0.000 C 
DOCKED: ATOM     23  N   UNL     1      20.312 -20.008  -0.208 -0.74 -0.00    +0.000 N 
DOCKED: ATOM     24  H   UNL     1      20.725 -20.812   0.183 -0.17 -0.00    +0.000 HD
DOCKED: BRANCH  23  25
DOCKED: ATOM     25  O   UNL     1      18.972 -19.967  -0.400 -0.92 -0.00    +0.000 OA
DOCKED: ATOM     26  H   UNL     1      18.754 -19.240  -1.003 -0.52 -0.00    +0.000 HD
DOCKED: ENDBRANCH  23  25
DOCKED: ENDBRANCH  20  22
DOCKED: ENDBRANCH  19  20
DOCKED: ENDBRANCH  18  19
DOCKED: ENDBRANCH  17  18
DOCKED: ENDBRANCH  16  17
DOCKED: ENDBRANCH   1  16
DOCKED: TORSDOF 7
DOCKED: TER
DOCKED: ENDMDL
________________________________________________________________________________


	BEGINNING GENETIC ALGORITHM DOCKING 86 of 100
Run: 86 Seed: 1386429138 2067648992 [ Run 86 of 100 GA/GALS ]
Beginning LAMARCKIAN GENETIC ALGORITHM (LGA), with a maximum of 2500000 energy evaluations.

Final-Value: -14.537


	FINAL GENETIC ALGORITHM DOCKED STATE
	_______________________________________________


Detailed state:  trans 27.510 -14.642 -1.879 quatxyzw -0.424520 -0.715669 -0.470973 -0.292890 center 0.154 0.112 -0.159 ntor 7 12.4382 -64.7206 170.7954 171.1339 169.2319 -167.7940 -138.8522
State:	 27.510 -14.642  -1.879  -0.444 -0.748 -0.493 -145.938     12.44  -64.72  170.80  171.13  169.23 -167.79 -138.85

DOCKED: MODEL       86
DOCKED: USER    Run = 86
DOCKED: USER    DPF = ligand_dock.biased.dpf
DOCKED: USER  
DOCKED: USER    Estimated Free Energy of Binding    =  -11.36 kcal/mol  [=(1)+(2)+(3)-(4)]
DOCKED: USER    Estimated Inhibition Constant, Ki   =    4.74 nM (nanomolar)  [Temperature = 298.15 K]
DOCKED: USER    
DOCKED: USER    (1) Final Intermolecular Energy     =  -13.44 kcal/mol
DOCKED: USER        vdW + Hbond + desolv Energy     =  -13.44 kcal/mol
DOCKED: USER        Electrostatic Energy            =   +0.00 kcal/mol
DOCKED: USER    (2) Final Total Internal Energy     =   -1.09 kcal/mol
DOCKED: USER    (3) Torsional Free Energy           =   +2.09 kcal/mol
DOCKED: USER    (4) Unbound System's Energy  [=(2)] =   -1.09 kcal/mol
DOCKED: USER    
DOCKED: USER    
DOCKED: USER    NEWDPF move ligand.pdbqt
DOCKED: USER    NEWDPF about 0.154000 0.112000 -0.159000
DOCKED: USER    NEWDPF tran0 27.509739 -14.641762 -1.878832
DOCKED: USER    NEWDPF quaternion0 -0.424520 -0.715669 -0.470973 -0.292890
DOCKED: USER    NEWDPF axisangle0 -0.443991 -0.748494 -0.492575 -145.937858
DOCKED: USER    NEWDPF quat0 -0.443991 -0.748494 -0.492575 -145.937858
DOCKED: USER    NEWDPF dihe0 12.44 -64.72 170.80 171.13 169.23 -167.79 -138.85 
DOCKED: USER  keepresnum = 1 
DOCKED: USER  
DOCKED: REMARK  Name = 
DOCKED: REMARK  7 active torsions:
DOCKED: REMARK  status: ('A' for Active; 'I' for Inactive)
DOCKED: REMARK    1  A    between atoms: C_2  and  C_5
DOCKED: REMARK    2  A    between atoms: N_3  and  O_4
DOCKED: REMARK    3  A    between atoms: C_5  and  C_6
DOCKED: REMARK    4  A    between atoms: C_6  and  C_7
DOCKED: REMARK    5  A    between atoms: C_7  and  C_8
DOCKED: REMARK    6  A    between atoms: C_8  and  C_9
DOCKED: REMARK    7  A    between atoms: C_9  and  N_10
DOCKED: REMARK                            x       y       z     vdW  Elec       q    Type
DOCKED: REMARK                         _______ _______ _______ _____ _____    ______ ____
DOCKED: USER                              x       y       z     vdW  Elec       q    Type
DOCKED: USER                           _______ _______ _______ _____ _____    ______ ____
DOCKED: ROOT
DOCKED: ATOM      1  N   UNL     1      27.047 -15.991  -2.338 -0.33 -0.00    +0.000 N 
DOCKED: ATOM      2  C   UNL     1      28.248 -16.774  -2.196 -0.29 -0.00    +0.000 C 
DOCKED: ATOM      3  C   UNL     1      29.282 -16.746  -3.255 -0.22 -0.00    +0.000 A 
DOCKED: ATOM      4  C   UNL     1      30.469 -17.487  -3.115 -0.17 -0.00    +0.000 A 
DOCKED: ATOM      5  C   UNL     1      31.445 -17.457  -4.112 -0.13 -0.00    +0.000 A 
DOCKED: ATOM      6  C   UNL     1      31.255 -16.691  -5.261 -0.15 -0.00    +0.000 A 
DOCKED: ATOM      7  C   UNL     1      30.080 -15.944  -5.425 -0.25 -0.00    +0.000 A 
DOCKED: ATOM      8  C   UNL     1      29.888 -15.176  -6.581 -0.30 -0.00    +0.000 A 
DOCKED: ATOM      9  C   UNL     1      28.719 -14.433  -6.745 -0.31 -0.00    +0.000 A 
DOCKED: ATOM     10  C   UNL     1      27.731 -14.450  -5.759 -0.30 -0.00    +0.000 A 
DOCKED: ATOM     11  C   UNL     1      27.900 -15.213  -4.590 -0.35 -0.00    +0.000 A 
DOCKED: ATOM     12  C   UNL     1      29.081 -15.967  -4.417 -0.26 -0.00    +0.000 A 
DOCKED: ATOM     13  O   UNL     1      28.418 -17.490  -1.171 -0.40 -0.00    +0.000 OA
DOCKED: ATOM     14  C   UNL     1      26.850 -15.228  -3.546 -0.44 -0.00    +0.000 C 
DOCKED: ATOM     15  O   UNL     1      25.786 -14.574  -3.717 -0.58 -0.00    +0.000 OA
DOCKED: ENDROOT
DOCKED: BRANCH   1  16
DOCKED: ATOM     16  C   UNL     1      26.059 -15.949  -1.246 -0.48 -0.00    +0.000 C 
DOCKED: BRANCH  16  17
DOCKED: ATOM     17  C   UNL     1      25.457 -17.340  -0.976 -0.65 -0.00    +0.000 C 
DOCKED: BRANCH  17  18
DOCKED: ATOM     18  C   UNL     1      24.029 -17.527  -1.521 -0.70 -0.00    +0.000 C 
DOCKED: BRANCH  18  19
DOCKED: ATOM     19  C   UNL     1      22.975 -17.903  -0.458 -0.81 -0.00    +0.000 C 
DOCKED: BRANCH  19  20
DOCKED: ATOM     20  C   UNL     1      22.225 -19.215  -0.741 -0.79 -0.00    +0.000 C 
DOCKED: BRANCH  20  22
DOCKED: ATOM     21  O   UNL     1      20.251 -17.868  -0.710 -2.20 -0.00    +0.000 OA
DOCKED: ATOM     22  C   UNL     1      20.736 -19.032  -0.704 -0.90 -0.00    +0.000 C 
DOCKED: ATOM     23  N   UNL     1      19.868 -20.166  -0.627 -0.73 -0.00    +0.000 N 
DOCKED: ATOM     24  H   UNL     1      20.251 -21.073  -0.615 -0.31 -0.00    +0.000 HD
DOCKED: BRANCH  23  25
DOCKED: ATOM     25  O   UNL     1      18.525 -20.002  -0.573 -0.83 -0.00    +0.000 OA
DOCKED: ATOM     26  H   UNL     1      18.301 -19.083  -0.790 -0.58 -0.00    +0.000 HD
DOCKED: ENDBRANCH  23  25
DOCKED: ENDBRANCH  20  22
DOCKED: ENDBRANCH  19  20
DOCKED: ENDBRANCH  18  19
DOCKED: ENDBRANCH  17  18
DOCKED: ENDBRANCH  16  17
DOCKED: ENDBRANCH   1  16
DOCKED: TORSDOF 7
DOCKED: TER
DOCKED: ENDMDL
________________________________________________________________________________


	BEGINNING GENETIC ALGORITHM DOCKING 87 of 100
Run: 87 Seed: 1709086585 95153741 [ Run 87 of 100 GA/GALS ]
Beginning LAMARCKIAN GENETIC ALGORITHM (LGA), with a maximum of 2500000 energy evaluations.

Final-Value: -14.441


	FINAL GENETIC ALGORITHM DOCKED STATE
	_______________________________________________


Detailed state:  trans 28.355 -14.474 -1.694 quatxyzw -0.518837 -0.507598 -0.515607 -0.455303 center 0.154 0.112 -0.159 ntor 7 -9.6796 -93.3838 180.0000 -162.9359 163.3041 -142.8217 -143.6011
State:	 28.355 -14.474  -1.694  -0.583 -0.570 -0.579 -125.831     -9.68  -93.38  180.00 -162.94  163.30 -142.82 -143.60

DOCKED: MODEL       87
DOCKED: USER    Run = 87
DOCKED: USER    DPF = ligand_dock.biased.dpf
DOCKED: USER  
DOCKED: USER    Estimated Free Energy of Binding    =  -11.15 kcal/mol  [=(1)+(2)+(3)-(4)]
DOCKED: USER    Estimated Inhibition Constant, Ki   =    6.71 nM (nanomolar)  [Temperature = 298.15 K]
DOCKED: USER    
DOCKED: USER    (1) Final Intermolecular Energy     =  -13.24 kcal/mol
DOCKED: USER        vdW + Hbond + desolv Energy     =  -13.24 kcal/mol
DOCKED: USER        Electrostatic Energy            =   +0.00 kcal/mol
DOCKED: USER    (2) Final Total Internal Energy     =   -1.20 kcal/mol
DOCKED: USER    (3) Torsional Free Energy           =   +2.09 kcal/mol
DOCKED: USER    (4) Unbound System's Energy  [=(2)] =   -1.20 kcal/mol
DOCKED: USER    
DOCKED: USER    
DOCKED: USER    NEWDPF move ligand.pdbqt
DOCKED: USER    NEWDPF about 0.154000 0.112000 -0.159000
DOCKED: USER    NEWDPF tran0 28.355302 -14.473575 -1.694155
DOCKED: USER    NEWDPF quaternion0 -0.518837 -0.507598 -0.515607 -0.455303
DOCKED: USER    NEWDPF axisangle0 -0.582743 -0.570119 -0.579115 -125.831094
DOCKED: USER    NEWDPF quat0 -0.582743 -0.570119 -0.579115 -125.831094
DOCKED: USER    NEWDPF dihe0 -9.68 -93.38 180.00 -162.94 163.30 -142.82 -143.60 
DOCKED: USER  keepresnum = 1 
DOCKED: USER  
DOCKED: REMARK  Name = 
DOCKED: REMARK  7 active torsions:
DOCKED: REMARK  status: ('A' for Active; 'I' for Inactive)
DOCKED: REMARK    1  A    between atoms: C_2  and  C_5
DOCKED: REMARK    2  A    between atoms: N_3  and  O_4
DOCKED: REMARK    3  A    between atoms: C_5  and  C_6
DOCKED: REMARK    4  A    between atoms: C_6  and  C_7
DOCKED: REMARK    5  A    between atoms: C_7  and  C_8
DOCKED: REMARK    6  A    between atoms: C_8  and  C_9
DOCKED: REMARK    7  A    between atoms: C_9  and  N_10
DOCKED: REMARK                            x       y       z     vdW  Elec       q    Type
DOCKED: REMARK                         _______ _______ _______ _____ _____    ______ ____
DOCKED: USER                              x       y       z     vdW  Elec       q    Type
DOCKED: USER                           _______ _______ _______ _____ _____    ______ ____
DOCKED: ROOT
DOCKED: ATOM      1  N   UNL     1      27.441 -15.502  -2.287 -0.26 -0.00    +0.000 N 
DOCKED: ATOM      2  C   UNL     1      28.380 -16.408  -2.899 -0.26 -0.00    +0.000 C 
DOCKED: ATOM      3  C   UNL     1      28.941 -16.105  -4.235 -0.24 -0.00    +0.000 A 
DOCKED: ATOM      4  C   UNL     1      29.877 -16.970  -4.829 -0.26 -0.00    +0.000 A 
DOCKED: ATOM      5  C   UNL     1      30.407 -16.683  -6.088 -0.29 -0.00    +0.000 A 
DOCKED: ATOM      6  C   UNL     1      30.014 -15.533  -6.772 -0.29 -0.00    +0.000 A 
DOCKED: ATOM      7  C   UNL     1      29.082 -14.656  -6.202 -0.32 -0.00    +0.000 A 
DOCKED: ATOM      8  C   UNL     1      28.686 -13.502  -6.890 -0.27 -0.00    +0.000 A 
DOCKED: ATOM      9  C   UNL     1      27.757 -12.629  -6.322 -0.18 -0.00    +0.000 A 
DOCKED: ATOM     10  C   UNL     1      27.215 -12.899  -5.065 -0.23 -0.00    +0.000 A 
DOCKED: ATOM     11  C   UNL     1      27.597 -14.050  -4.354 -0.26 -0.00    +0.000 A 
DOCKED: ATOM     12  C   UNL     1      28.537 -14.939  -4.922 -0.29 -0.00    +0.000 A 
DOCKED: ATOM     13  O   UNL     1      28.724 -17.463  -2.297 -0.22 -0.00    +0.000 OA
DOCKED: ATOM     14  C   UNL     1      27.021 -14.334  -3.020 -0.31 -0.00    +0.000 C 
DOCKED: ATOM     15  O   UNL     1      26.162 -13.552  -2.528 -0.25 -0.00    +0.000 OA
DOCKED: ENDROOT
DOCKED: BRANCH   1  16
DOCKED: ATOM     16  C   UNL     1      26.952 -15.757  -0.921 -0.38 -0.00    +0.000 C 
DOCKED: BRANCH  16  17
DOCKED: ATOM     17  C   UNL     1      26.065 -17.014  -0.865 -0.57 -0.00    +0.000 C 
DOCKED: BRANCH  17  18
DOCKED: ATOM     18  C   UNL     1      24.623 -16.792  -1.358 -0.65 -0.00    +0.000 C 
DOCKED: BRANCH  18  19
DOCKED: ATOM     19  C   UNL     1      23.525 -17.256  -0.377 -0.62 -0.00    +0.000 C 
DOCKED: BRANCH  19  20
DOCKED: ATOM     20  C   UNL     1      22.962 -18.656  -0.667 -0.83 -0.00    +0.000 C 
DOCKED: BRANCH  20  22
DOCKED: ATOM     21  O   UNL     1      20.825 -17.587  -0.715 -2.13 -0.00    +0.000 OA
DOCKED: ATOM     22  C   UNL     1      21.496 -18.618  -0.989 -0.82 -0.00    +0.000 C 
DOCKED: ATOM     23  N   UNL     1      20.853 -19.755  -1.571 -0.74 -0.00    +0.000 N 
DOCKED: ATOM     24  H   UNL     1      21.379 -20.561  -1.777 -0.33 -0.00    +0.000 HD
DOCKED: BRANCH  23  25
DOCKED: ATOM     25  O   UNL     1      19.526 -19.730  -1.843 -1.67 -0.00    +0.000 OA
DOCKED: ATOM     26  H   UNL     1      19.129 -18.938  -1.448 -0.56 -0.00    +0.000 HD
DOCKED: ENDBRANCH  23  25
DOCKED: ENDBRANCH  20  22
DOCKED: ENDBRANCH  19  20
DOCKED: ENDBRANCH  18  19
DOCKED: ENDBRANCH  17  18
DOCKED: ENDBRANCH  16  17
DOCKED: ENDBRANCH   1  16
DOCKED: TORSDOF 7
DOCKED: TER
DOCKED: ENDMDL
________________________________________________________________________________


	BEGINNING GENETIC ALGORITHM DOCKING 88 of 100
Run: 88 Seed: 60727509 2138069667 [ Run 88 of 100 GA/GALS ]
Beginning LAMARCKIAN GENETIC ALGORITHM (LGA), with a maximum of 2500000 energy evaluations.

Final-Value: -13.605


	FINAL GENETIC ALGORITHM DOCKED STATE
	_______________________________________________


Detailed state:  trans 28.120 -15.386 -2.905 quatxyzw -0.489623 0.401951 -0.452456 -0.627684 center 0.154 0.112 -0.159 ntor 7 28.6065 -76.4229 -171.9107 -171.9735 64.5390 13.6204 172.7418
State:	 28.120 -15.386  -2.905  -0.629  0.516 -0.581 -102.241     28.61  -76.42 -171.91 -171.97   64.54   13.62  172.74

DOCKED: MODEL       88
DOCKED: USER    Run = 88
DOCKED: USER    DPF = ligand_dock.biased.dpf
DOCKED: USER  
DOCKED: USER    Estimated Free Energy of Binding    =  -10.37 kcal/mol  [=(1)+(2)+(3)-(4)]
DOCKED: USER    Estimated Inhibition Constant, Ki   =   25.22 nM (nanomolar)  [Temperature = 298.15 K]
DOCKED: USER    
DOCKED: USER    (1) Final Intermolecular Energy     =  -12.45 kcal/mol
DOCKED: USER        vdW + Hbond + desolv Energy     =  -12.45 kcal/mol
DOCKED: USER        Electrostatic Energy            =   +0.00 kcal/mol
DOCKED: USER    (2) Final Total Internal Energy     =   -1.15 kcal/mol
DOCKED: USER    (3) Torsional Free Energy           =   +2.09 kcal/mol
DOCKED: USER    (4) Unbound System's Energy  [=(2)] =   -1.15 kcal/mol
DOCKED: USER    
DOCKED: USER    
DOCKED: USER    NEWDPF move ligand.pdbqt
DOCKED: USER    NEWDPF about 0.154000 0.112000 -0.159000
DOCKED: USER    NEWDPF tran0 28.119955 -15.385923 -2.905377
DOCKED: USER    NEWDPF quaternion0 -0.489623 0.401951 -0.452456 -0.627684
DOCKED: USER    NEWDPF axisangle0 -0.628958 0.516336 -0.581213 -102.241015
DOCKED: USER    NEWDPF quat0 -0.628958 0.516336 -0.581213 -102.241015
DOCKED: USER    NEWDPF dihe0 28.61 -76.42 -171.91 -171.97 64.54 13.62 172.74 
DOCKED: USER  keepresnum = 1 
DOCKED: USER  
DOCKED: REMARK  Name = 
DOCKED: REMARK  7 active torsions:
DOCKED: REMARK  status: ('A' for Active; 'I' for Inactive)
DOCKED: REMARK    1  A    between atoms: C_2  and  C_5
DOCKED: REMARK    2  A    between atoms: N_3  and  O_4
DOCKED: REMARK    3  A    between atoms: C_5  and  C_6
DOCKED: REMARK    4  A    between atoms: C_6  and  C_7
DOCKED: REMARK    5  A    between atoms: C_7  and  C_8
DOCKED: REMARK    6  A    between atoms: C_8  and  C_9
DOCKED: REMARK    7  A    between atoms: C_9  and  N_10
DOCKED: REMARK                            x       y       z     vdW  Elec       q    Type
DOCKED: REMARK                         _______ _______ _______ _____ _____    ______ ____
DOCKED: USER                              x       y       z     vdW  Elec       q    Type
DOCKED: USER                           _______ _______ _______ _____ _____    ______ ____
DOCKED: ROOT
DOCKED: ATOM      1  N   UNL     1      26.803 -15.165  -2.227 -0.30 -0.00    +0.000 N 
DOCKED: ATOM      2  C   UNL     1      26.023 -14.579  -3.289 -0.48 -0.00    +0.000 C 
DOCKED: ATOM      3  C   UNL     1      26.139 -13.133  -3.583 -0.22 -0.00    +0.000 A 
DOCKED: ATOM      4  C   UNL     1      25.402 -12.557  -4.633 -0.19 -0.00    +0.000 A 
DOCKED: ATOM      5  C   UNL     1      25.513 -11.194  -4.913 -0.33 -0.00    +0.000 A 
DOCKED: ATOM      6  C   UNL     1      26.357 -10.386  -4.152 -0.18 -0.00    +0.000 A 
DOCKED: ATOM      7  C   UNL     1      27.101 -10.936  -3.100 -0.11 -0.00    +0.000 A 
DOCKED: ATOM      8  C   UNL     1      27.949 -10.123  -2.334 -0.06 -0.00    +0.000 A 
DOCKED: ATOM      9  C   UNL     1      28.689 -10.670  -1.286 -0.04 -0.00    +0.000 A 
DOCKED: ATOM     10  C   UNL     1      28.591 -12.031  -0.991 -0.06 -0.00    +0.000 A 
DOCKED: ATOM     11  C   UNL     1      27.748 -12.867  -1.744 -0.12 -0.00    +0.000 A 
DOCKED: ATOM     12  C   UNL     1      26.996 -12.321  -2.808 -0.12 -0.00    +0.000 A 
DOCKED: ATOM     13  O   UNL     1      25.239 -15.298  -3.967 -0.78 -0.00    +0.000 OA
DOCKED: ATOM     14  C   UNL     1      27.647 -14.311  -1.430 -0.21 -0.00    +0.000 C 
DOCKED: ATOM     15  O   UNL     1      28.300 -14.789  -0.463 -0.19 -0.00    +0.000 OA
DOCKED: ENDROOT
DOCKED: BRANCH   1  16
DOCKED: ATOM     16  C   UNL     1      26.755 -16.618  -1.992 -0.42 -0.00    +0.000 C 
DOCKED: BRANCH  16  17
DOCKED: ATOM     17  C   UNL     1      26.051 -16.952  -0.664 -0.57 -0.00    +0.000 C 
DOCKED: BRANCH  17  18
DOCKED: ATOM     18  C   UNL     1      24.515 -16.857  -0.723 -0.61 -0.00    +0.000 C 
DOCKED: BRANCH  18  19
DOCKED: ATOM     19  C   UNL     1      23.768 -18.051  -0.091 -0.72 -0.00    +0.000 C 
DOCKED: BRANCH  19  20
DOCKED: ATOM     20  C   UNL     1      23.131 -19.013  -1.106 -0.81 -0.00    +0.000 C 
DOCKED: BRANCH  20  22
DOCKED: ATOM     21  O   UNL     1      21.059 -18.109  -0.332 -1.87 -0.00    +0.000 OA
DOCKED: ATOM     22  C   UNL     1      21.632 -18.929  -1.099 -0.83 -0.00    +0.000 C 
DOCKED: ATOM     23  N   UNL     1      20.854 -19.795  -1.929 -0.60 -0.00    +0.000 N 
DOCKED: ATOM     24  H   UNL     1      21.305 -20.439  -2.521 -0.54 -0.00    +0.000 HD
DOCKED: BRANCH  23  25
DOCKED: ATOM     25  O   UNL     1      19.501 -19.735  -1.908 -1.63 -0.00    +0.000 OA
DOCKED: ATOM     26  H   UNL     1      19.220 -18.836  -1.674 -0.48 -0.00    +0.000 HD
DOCKED: ENDBRANCH  23  25
DOCKED: ENDBRANCH  20  22
DOCKED: ENDBRANCH  19  20
DOCKED: ENDBRANCH  18  19
DOCKED: ENDBRANCH  17  18
DOCKED: ENDBRANCH  16  17
DOCKED: ENDBRANCH   1  16
DOCKED: TORSDOF 7
DOCKED: TER
DOCKED: ENDMDL
________________________________________________________________________________


	BEGINNING GENETIC ALGORITHM DOCKING 89 of 100
Run: 89 Seed: 308992552 2089511226 [ Run 89 of 100 GA/GALS ]
Beginning LAMARCKIAN GENETIC ALGORITHM (LGA), with a maximum of 2500000 energy evaluations.

Final-Value: -13.084


	FINAL GENETIC ALGORITHM DOCKED STATE
	_______________________________________________


Detailed state:  trans 25.474 -15.520 -2.180 quatxyzw 0.489894 -0.826788 -0.189750 -0.201047 center 0.154 0.112 -0.159 ntor 7 -19.6239 -51.3873 86.2789 68.7419 87.5065 -178.4278 33.9448
State:	 25.474 -15.520  -2.180   0.500 -0.844 -0.194 -156.804    -19.62  -51.39   86.28   68.74   87.51 -178.43   33.94

DOCKED: MODEL       89
DOCKED: USER    Run = 89
DOCKED: USER    DPF = ligand_dock.biased.dpf
DOCKED: USER  
DOCKED: USER    Estimated Free Energy of Binding    =   -9.89 kcal/mol  [=(1)+(2)+(3)-(4)]
DOCKED: USER    Estimated Inhibition Constant, Ki   =   56.21 nM (nanomolar)  [Temperature = 298.15 K]
DOCKED: USER    
DOCKED: USER    (1) Final Intermolecular Energy     =  -11.98 kcal/mol
DOCKED: USER        vdW + Hbond + desolv Energy     =  -11.98 kcal/mol
DOCKED: USER        Electrostatic Energy            =   +0.00 kcal/mol
DOCKED: USER    (2) Final Total Internal Energy     =   -1.11 kcal/mol
DOCKED: USER    (3) Torsional Free Energy           =   +2.09 kcal/mol
DOCKED: USER    (4) Unbound System's Energy  [=(2)] =   -1.11 kcal/mol
DOCKED: USER    
DOCKED: USER    
DOCKED: USER    NEWDPF move ligand.pdbqt
DOCKED: USER    NEWDPF about 0.154000 0.112000 -0.159000
DOCKED: USER    NEWDPF tran0 25.474100 -15.519853 -2.180190
DOCKED: USER    NEWDPF quaternion0 0.489894 -0.826788 -0.189750 -0.201047
DOCKED: USER    NEWDPF axisangle0 0.500105 -0.844022 -0.193705 -156.803584
DOCKED: USER    NEWDPF quat0 0.500105 -0.844022 -0.193705 -156.803584
DOCKED: USER    NEWDPF dihe0 -19.62 -51.39 86.28 68.74 87.51 -178.43 33.94 
DOCKED: USER  keepresnum = 1 
DOCKED: USER  
DOCKED: REMARK  Name = 
DOCKED: REMARK  7 active torsions:
DOCKED: REMARK  status: ('A' for Active; 'I' for Inactive)
DOCKED: REMARK    1  A    between atoms: C_2  and  C_5
DOCKED: REMARK    2  A    between atoms: N_3  and  O_4
DOCKED: REMARK    3  A    between atoms: C_5  and  C_6
DOCKED: REMARK    4  A    between atoms: C_6  and  C_7
DOCKED: REMARK    5  A    between atoms: C_7  and  C_8
DOCKED: REMARK    6  A    between atoms: C_8  and  C_9
DOCKED: REMARK    7  A    between atoms: C_9  and  N_10
DOCKED: REMARK                            x       y       z     vdW  Elec       q    Type
DOCKED: REMARK                         _______ _______ _______ _____ _____    ______ ____
DOCKED: USER                              x       y       z     vdW  Elec       q    Type
DOCKED: USER                           _______ _______ _______ _____ _____    ______ ____
DOCKED: ROOT
DOCKED: ATOM      1  N   UNL     1      26.927 -15.495  -1.816 -0.30 -0.00    +0.000 N 
DOCKED: ATOM      2  C   UNL     1      26.942 -14.529  -0.746 -0.30 -0.00    +0.000 C 
DOCKED: ATOM      3  C   UNL     1      26.973 -13.081  -1.054 -0.15 -0.00    +0.000 A 
DOCKED: ATOM      4  C   UNL     1      26.962 -12.130  -0.018 -0.17 -0.00    +0.000 A 
DOCKED: ATOM      5  C   UNL     1      26.988 -10.765  -0.309 -0.14 +0.00    +0.000 A 
DOCKED: ATOM      6  C   UNL     1      27.025 -10.328  -1.632 -0.11 -0.00    +0.000 A 
DOCKED: ATOM      7  C   UNL     1      27.037 -11.255  -2.682 -0.09 -0.00    +0.000 A 
DOCKED: ATOM      8  C   UNL     1      27.076 -10.815  -4.012 -0.13 -0.00    +0.000 A 
DOCKED: ATOM      9  C   UNL     1      27.089 -11.739  -5.058 -0.18 -0.00    +0.000 A 
DOCKED: ATOM     10  C   UNL     1      27.064 -13.108  -4.787 -0.26 -0.00    +0.000 A 
DOCKED: ATOM     11  C   UNL     1      27.025 -13.575  -3.462 -0.24 -0.00    +0.000 A 
DOCKED: ATOM     12  C   UNL     1      27.011 -12.646  -2.397 -0.12 -0.00    +0.000 A 
DOCKED: ATOM     13  O   UNL     1      26.933 -14.916   0.455 -0.35 -0.00    +0.000 OA
DOCKED: ATOM     14  C   UNL     1      26.997 -15.028  -3.178 -0.37 -0.00    +0.000 C 
DOCKED: ATOM     15  O   UNL     1      27.037 -15.854  -4.130 -0.46 -0.00    +0.000 OA
DOCKED: ENDROOT
DOCKED: BRANCH   1  16
DOCKED: ATOM     16  C   UNL     1      26.807 -16.932  -1.512 -0.47 -0.00    +0.000 C 
DOCKED: BRANCH  16  17
DOCKED: ATOM     17  C   UNL     1      25.437 -17.486  -1.941 -0.49 -0.00    +0.000 C 
DOCKED: BRANCH  17  18
DOCKED: ATOM     18  C   UNL     1      24.554 -17.961  -0.772 -0.75 -0.00    +0.000 C 
DOCKED: BRANCH  18  19
DOCKED: ATOM     19  C   UNL     1      23.040 -17.978  -1.071 -0.79 -0.00    +0.000 C 
DOCKED: BRANCH  19  20
DOCKED: ATOM     20  C   UNL     1      22.313 -19.251  -0.605 -0.77 -0.00    +0.000 C 
DOCKED: BRANCH  20  22
DOCKED: ATOM     21  O   UNL     1      20.283 -17.994  -0.708 -2.20 -0.00    +0.000 OA
DOCKED: ATOM     22  C   UNL     1      20.893 -18.974  -0.203 -0.79 -0.00    +0.000 C 
DOCKED: ATOM     23  N   UNL     1      20.244 -19.792   0.773 -0.70 -0.00    +0.000 N 
DOCKED: ATOM     24  H   UNL     1      20.727 -20.552   1.172 -0.51 -0.00    +0.000 HD
DOCKED: BRANCH  23  25
DOCKED: ATOM     25  O   UNL     1      18.971 -19.531   1.153 -0.74 -0.00    +0.000 OA
DOCKED: ATOM     26  H   UNL     1      18.747 -18.615   0.928 -0.42 -0.00    +0.000 HD
DOCKED: ENDBRANCH  23  25
DOCKED: ENDBRANCH  20  22
DOCKED: ENDBRANCH  19  20
DOCKED: ENDBRANCH  18  19
DOCKED: ENDBRANCH  17  18
DOCKED: ENDBRANCH  16  17
DOCKED: ENDBRANCH   1  16
DOCKED: TORSDOF 7
DOCKED: TER
DOCKED: ENDMDL
________________________________________________________________________________


	BEGINNING GENETIC ALGORITHM DOCKING 90 of 100
Run: 90 Seed: 1862630554 2003594526 [ Run 90 of 100 GA/GALS ]
Beginning LAMARCKIAN GENETIC ALGORITHM (LGA), with a maximum of 2500000 energy evaluations.

Final-Value: -14.480


	FINAL GENETIC ALGORITHM DOCKED STATE
	_______________________________________________


Detailed state:  trans 27.569 -14.847 -1.352 quatxyzw 0.417128 0.698367 0.451380 0.366801 center 0.154 0.112 -0.159 ntor 7 28.0827 -74.8325 141.7287 -179.6585 178.7289 -138.4777 -152.9995
State:	 27.569 -14.847  -1.352   0.448  0.751  0.485 136.963     28.08  -74.83  141.73 -179.66  178.73 -138.48 -153.00

DOCKED: MODEL       90
DOCKED: USER    Run = 90
DOCKED: USER    DPF = ligand_dock.biased.dpf
DOCKED: USER  
DOCKED: USER    Estimated Free Energy of Binding    =  -11.29 kcal/mol  [=(1)+(2)+(3)-(4)]
DOCKED: USER    Estimated Inhibition Constant, Ki   =    5.26 nM (nanomolar)  [Temperature = 298.15 K]
DOCKED: USER    
DOCKED: USER    (1) Final Intermolecular Energy     =  -13.38 kcal/mol
DOCKED: USER        vdW + Hbond + desolv Energy     =  -13.38 kcal/mol
DOCKED: USER        Electrostatic Energy            =   +0.00 kcal/mol
DOCKED: USER    (2) Final Total Internal Energy     =   -1.10 kcal/mol
DOCKED: USER    (3) Torsional Free Energy           =   +2.09 kcal/mol
DOCKED: USER    (4) Unbound System's Energy  [=(2)] =   -1.10 kcal/mol
DOCKED: USER    
DOCKED: USER    
DOCKED: USER    NEWDPF move ligand.pdbqt
DOCKED: USER    NEWDPF about 0.154000 0.112000 -0.159000
DOCKED: USER    NEWDPF tran0 27.569365 -14.847438 -1.352479
DOCKED: USER    NEWDPF quaternion0 0.417128 0.698367 0.451380 0.366801
DOCKED: USER    NEWDPF axisangle0 0.448381 0.750691 0.485199 136.963039
DOCKED: USER    NEWDPF quat0 0.448381 0.750691 0.485199 136.963039
DOCKED: USER    NEWDPF dihe0 28.08 -74.83 141.73 -179.66 178.73 -138.48 -153.00 
DOCKED: USER  keepresnum = 1 
DOCKED: USER  
DOCKED: REMARK  Name = 
DOCKED: REMARK  7 active torsions:
DOCKED: REMARK  status: ('A' for Active; 'I' for Inactive)
DOCKED: REMARK    1  A    between atoms: C_2  and  C_5
DOCKED: REMARK    2  A    between atoms: N_3  and  O_4
DOCKED: REMARK    3  A    between atoms: C_5  and  C_6
DOCKED: REMARK    4  A    between atoms: C_6  and  C_7
DOCKED: REMARK    5  A    between atoms: C_7  and  C_8
DOCKED: REMARK    6  A    between atoms: C_8  and  C_9
DOCKED: REMARK    7  A    between atoms: C_9  and  N_10
DOCKED: REMARK                            x       y       z     vdW  Elec       q    Type
DOCKED: REMARK                         _______ _______ _______ _____ _____    ______ ____
DOCKED: USER                              x       y       z     vdW  Elec       q    Type
DOCKED: USER                           _______ _______ _______ _____ _____    ______ ____
DOCKED: ROOT
DOCKED: ATOM      1  N   UNL     1      27.152 -16.204  -1.831 -0.33 -0.00    +0.000 N 
DOCKED: ATOM      2  C   UNL     1      28.415 -16.895  -1.886 -0.30 -0.00    +0.000 C 
DOCKED: ATOM      3  C   UNL     1      29.301 -16.730  -3.061 -0.22 -0.00    +0.000 A 
DOCKED: ATOM      4  C   UNL     1      30.547 -17.380  -3.112 -0.17 -0.00    +0.000 A 
DOCKED: ATOM      5  C   UNL     1      31.384 -17.222  -4.218 -0.13 -0.00    +0.000 A 
DOCKED: ATOM      6  C   UNL     1      30.993 -16.417  -5.287 -0.16 -0.00    +0.000 A 
DOCKED: ATOM      7  C   UNL     1      29.756 -15.759  -5.260 -0.25 -0.00    +0.000 A 
DOCKED: ATOM      8  C   UNL     1      29.362 -14.951  -6.336 -0.32 -0.00    +0.000 A 
DOCKED: ATOM      9  C   UNL     1      28.130 -14.297  -6.309 -0.28 -0.00    +0.000 A 
DOCKED: ATOM     10  C   UNL     1      27.280 -14.443  -5.212 -0.36 -0.00    +0.000 A 
DOCKED: ATOM     11  C   UNL     1      27.652 -15.248  -4.121 -0.34 -0.00    +0.000 A 
DOCKED: ATOM     12  C   UNL     1      28.898 -15.913  -4.139 -0.26 -0.00    +0.000 A 
DOCKED: ATOM     13  O   UNL     1      28.767 -17.645  -0.934 -0.38 -0.00    +0.000 OA
DOCKED: ATOM     14  C   UNL     1      26.747 -15.400  -2.958 -0.42 -0.00    +0.000 C 
DOCKED: ATOM     15  O   UNL     1      25.625 -14.826  -2.957 -0.51 -0.00    +0.000 OA
DOCKED: ENDROOT
DOCKED: BRANCH   1  16
DOCKED: ATOM     16  C   UNL     1      26.310 -16.297  -0.625 -0.47 -0.00    +0.000 C 
DOCKED: BRANCH  16  17
DOCKED: ATOM     17  C   UNL     1      25.571 -17.645  -0.556 -0.66 -0.00    +0.000 C 
DOCKED: BRANCH  17  18
DOCKED: ATOM     18  C   UNL     1      24.384 -17.765  -1.531 -0.71 -0.00    +0.000 C 
DOCKED: BRANCH  18  19
DOCKED: ATOM     19  C   UNL     1      22.997 -17.825  -0.857 -0.79 -0.00    +0.000 C 
DOCKED: BRANCH  19  20
DOCKED: ATOM     20  C   UNL     1      22.264 -19.166  -1.025 -0.78 -0.00    +0.000 C 
DOCKED: BRANCH  20  22
DOCKED: ATOM     21  O   UNL     1      20.279 -17.872  -0.714 -2.22 -0.00    +0.000 OA
DOCKED: ATOM     22  C   UNL     1      20.777 -19.017  -0.885 -0.89 -0.00    +0.000 C 
DOCKED: ATOM     23  N   UNL     1      19.929 -20.167  -0.911 -0.68 -0.00    +0.000 N 
DOCKED: ATOM     24  H   UNL     1      20.322 -21.061  -1.037 -0.43 -0.00    +0.000 HD
DOCKED: BRANCH  23  25
DOCKED: ATOM     25  O   UNL     1      18.588 -20.037  -0.764 -0.78 -0.00    +0.000 OA
DOCKED: ATOM     26  H   UNL     1      18.310 -19.166  -1.086 -0.56 -0.00    +0.000 HD
DOCKED: ENDBRANCH  23  25
DOCKED: ENDBRANCH  20  22
DOCKED: ENDBRANCH  19  20
DOCKED: ENDBRANCH  18  19
DOCKED: ENDBRANCH  17  18
DOCKED: ENDBRANCH  16  17
DOCKED: ENDBRANCH   1  16
DOCKED: TORSDOF 7
DOCKED: TER
DOCKED: ENDMDL
________________________________________________________________________________


	BEGINNING GENETIC ALGORITHM DOCKING 91 of 100
Run: 91 Seed: 547261922 1121343154 [ Run 91 of 100 GA/GALS ]
Beginning LAMARCKIAN GENETIC ALGORITHM (LGA), with a maximum of 2500000 energy evaluations.

Final-Value: -14.155


	FINAL GENETIC ALGORITHM DOCKED STATE
	_______________________________________________


Detailed state:  trans 28.223 -14.463 -1.656 quatxyzw -0.422586 -0.523713 -0.475892 -0.566279 center 0.154 0.112 -0.159 ntor 7 -2.9884 -137.9442 85.2203 51.5485 64.4059 177.8016 -161.5357
State:	 28.223 -14.463  -1.656  -0.513 -0.635 -0.577 -111.018     -2.99 -137.94   85.22   51.55   64.41  177.80 -161.54

DOCKED: MODEL       91
DOCKED: USER    Run = 91
DOCKED: USER    DPF = ligand_dock.biased.dpf
DOCKED: USER  
DOCKED: USER    Estimated Free Energy of Binding    =  -10.86 kcal/mol  [=(1)+(2)+(3)-(4)]
DOCKED: USER    Estimated Inhibition Constant, Ki   =   10.88 nM (nanomolar)  [Temperature = 298.15 K]
DOCKED: USER    
DOCKED: USER    (1) Final Intermolecular Energy     =  -12.95 kcal/mol
DOCKED: USER        vdW + Hbond + desolv Energy     =  -12.95 kcal/mol
DOCKED: USER        Electrostatic Energy            =   +0.00 kcal/mol
DOCKED: USER    (2) Final Total Internal Energy     =   -1.20 kcal/mol
DOCKED: USER    (3) Torsional Free Energy           =   +2.09 kcal/mol
DOCKED: USER    (4) Unbound System's Energy  [=(2)] =   -1.20 kcal/mol
DOCKED: USER    
DOCKED: USER    
DOCKED: USER    NEWDPF move ligand.pdbqt
DOCKED: USER    NEWDPF about 0.154000 0.112000 -0.159000
DOCKED: USER    NEWDPF tran0 28.223083 -14.463493 -1.655954
DOCKED: USER    NEWDPF quaternion0 -0.422586 -0.523713 -0.475892 -0.566279
DOCKED: USER    NEWDPF axisangle0 -0.512715 -0.635410 -0.577389 -111.017641
DOCKED: USER    NEWDPF quat0 -0.512715 -0.635410 -0.577389 -111.017641
DOCKED: USER    NEWDPF dihe0 -2.99 -137.94 85.22 51.55 64.41 177.80 -161.54 
DOCKED: USER  keepresnum = 1 
DOCKED: USER  
DOCKED: REMARK  Name = 
DOCKED: REMARK  7 active torsions:
DOCKED: REMARK  status: ('A' for Active; 'I' for Inactive)
DOCKED: REMARK    1  A    between atoms: C_2  and  C_5
DOCKED: REMARK    2  A    between atoms: N_3  and  O_4
DOCKED: REMARK    3  A    between atoms: C_5  and  C_6
DOCKED: REMARK    4  A    between atoms: C_6  and  C_7
DOCKED: REMARK    5  A    between atoms: C_7  and  C_8
DOCKED: REMARK    6  A    between atoms: C_8  and  C_9
DOCKED: REMARK    7  A    between atoms: C_9  and  N_10
DOCKED: REMARK                            x       y       z     vdW  Elec       q    Type
DOCKED: REMARK                         _______ _______ _______ _____ _____    ______ ____
DOCKED: USER                              x       y       z     vdW  Elec       q    Type
DOCKED: USER                           _______ _______ _______ _____ _____    ______ ____
DOCKED: ROOT
DOCKED: ATOM      1  N   UNL     1      27.573 -15.605  -2.377 -0.26 -0.00    +0.000 N 
DOCKED: ATOM      2  C   UNL     1      28.677 -16.136  -3.136 -0.26 -0.00    +0.000 C 
DOCKED: ATOM      3  C   UNL     1      29.061 -15.513  -4.424 -0.24 -0.00    +0.000 A 
DOCKED: ATOM      4  C   UNL     1      30.152 -16.007  -5.159 -0.23 -0.00    +0.000 A 
DOCKED: ATOM      5  C   UNL     1      30.515 -15.418  -6.371 -0.24 -0.00    +0.000 A 
DOCKED: ATOM      6  C   UNL     1      29.798 -14.330  -6.868 -0.26 -0.00    +0.000 A 
DOCKED: ATOM      7  C   UNL     1      28.706 -13.819  -6.154 -0.27 -0.00    +0.000 A 
DOCKED: ATOM      8  C   UNL     1      27.984 -12.727  -6.654 -0.16 -0.00    +0.000 A 
DOCKED: ATOM      9  C   UNL     1      26.897 -12.219  -5.944 -0.06 -0.00    +0.000 A 
DOCKED: ATOM     10  C   UNL     1      26.518 -12.795  -4.730 -0.26 -0.00    +0.000 A 
DOCKED: ATOM     11  C   UNL     1      27.226 -13.891  -4.207 -0.28 -0.00    +0.000 A 
DOCKED: ATOM     12  C   UNL     1      28.329 -14.411  -4.920 -0.27 -0.00    +0.000 A 
DOCKED: ATOM     13  O   UNL     1      29.317 -17.135  -2.707 -0.29 -0.00    +0.000 OA
DOCKED: ATOM     14  C   UNL     1      26.822 -14.500  -2.918 -0.34 -0.00    +0.000 C 
DOCKED: ATOM     15  O   UNL     1      25.821 -14.049  -2.299 -0.33 -0.00    +0.000 OA
DOCKED: ENDROOT
DOCKED: BRANCH   1  16
DOCKED: ATOM     16  C   UNL     1      27.248 -16.167  -1.055 -0.40 -0.00    +0.000 C 
DOCKED: BRANCH  16  17
DOCKED: ATOM     17  C   UNL     1      26.330 -17.397  -1.175 -0.55 -0.00    +0.000 C 
DOCKED: BRANCH  17  18
DOCKED: ATOM     18  C   UNL     1      24.960 -17.231  -0.491 -0.59 -0.00    +0.000 C 
DOCKED: BRANCH  18  19
DOCKED: ATOM     19  C   UNL     1      23.753 -17.677  -1.342 -0.73 -0.00    +0.000 C 
DOCKED: BRANCH  19  20
DOCKED: ATOM     20  C   UNL     1      22.948 -18.843  -0.745 -0.83 -0.00    +0.000 C 
DOCKED: BRANCH  20  22
DOCKED: ATOM     21  O   UNL     1      20.827 -17.742  -0.706 -2.20 -0.00    +0.000 OA
DOCKED: ATOM     22  C   UNL     1      21.487 -18.748  -1.079 -0.82 -0.00    +0.000 C 
DOCKED: ATOM     23  N   UNL     1      20.835 -19.807  -1.785 -0.66 -0.00    +0.000 N 
DOCKED: ATOM     24  H   UNL     1      21.352 -20.596  -2.068 -0.31 -0.00    +0.000 HD
DOCKED: BRANCH  23  25
DOCKED: ATOM     25  O   UNL     1      19.513 -19.733  -2.068 -1.57 -0.00    +0.000 OA
DOCKED: ATOM     26  H   UNL     1      19.144 -18.923  -1.684 -0.55 -0.00    +0.000 HD
DOCKED: ENDBRANCH  23  25
DOCKED: ENDBRANCH  20  22
DOCKED: ENDBRANCH  19  20
DOCKED: ENDBRANCH  18  19
DOCKED: ENDBRANCH  17  18
DOCKED: ENDBRANCH  16  17
DOCKED: ENDBRANCH   1  16
DOCKED: TORSDOF 7
DOCKED: TER
DOCKED: ENDMDL
________________________________________________________________________________


	BEGINNING GENETIC ALGORITHM DOCKING 92 of 100
Run: 92 Seed: 120332887 1326805570 [ Run 92 of 100 GA/GALS ]
Beginning LAMARCKIAN GENETIC ALGORITHM (LGA), with a maximum of 2500000 energy evaluations.

Final-Value: -12.676


	FINAL GENETIC ALGORITHM DOCKED STATE
	_______________________________________________


Detailed state:  trans 27.771 -15.812 -1.488 quatxyzw -0.317680 0.841318 -0.276631 -0.338731 center 0.154 0.112 -0.159 ntor 7 -3.0680 169.8373 63.2036 45.2219 -176.3447 -177.2303 8.3408
State:	 27.771 -15.812  -1.488  -0.338  0.894 -0.294 -140.401     -3.07  169.84   63.20   45.22 -176.34 -177.23    8.34

DOCKED: MODEL       92
DOCKED: USER    Run = 92
DOCKED: USER    DPF = ligand_dock.biased.dpf
DOCKED: USER  
DOCKED: USER    Estimated Free Energy of Binding    =   -9.38 kcal/mol  [=(1)+(2)+(3)-(4)]
DOCKED: USER    Estimated Inhibition Constant, Ki   =  133.31 nM (nanomolar)  [Temperature = 298.15 K]
DOCKED: USER    
DOCKED: USER    (1) Final Intermolecular Energy     =  -11.47 kcal/mol
DOCKED: USER        vdW + Hbond + desolv Energy     =  -11.47 kcal/mol
DOCKED: USER        Electrostatic Energy            =   +0.00 kcal/mol
DOCKED: USER    (2) Final Total Internal Energy     =   -1.21 kcal/mol
DOCKED: USER    (3) Torsional Free Energy           =   +2.09 kcal/mol
DOCKED: USER    (4) Unbound System's Energy  [=(2)] =   -1.21 kcal/mol
DOCKED: USER    
DOCKED: USER    
DOCKED: USER    NEWDPF move ligand.pdbqt
DOCKED: USER    NEWDPF about 0.154000 0.112000 -0.159000
DOCKED: USER    NEWDPF tran0 27.771333 -15.812200 -1.487642
DOCKED: USER    NEWDPF quaternion0 -0.317680 0.841318 -0.276631 -0.338731
DOCKED: USER    NEWDPF axisangle0 -0.337640 0.894179 -0.294012 -140.400851
DOCKED: USER    NEWDPF quat0 -0.337640 0.894179 -0.294012 -140.400851
DOCKED: USER    NEWDPF dihe0 -3.07 169.84 63.20 45.22 -176.34 -177.23 8.34 
DOCKED: USER  keepresnum = 1 
DOCKED: USER  
DOCKED: REMARK  Name = 
DOCKED: REMARK  7 active torsions:
DOCKED: REMARK  status: ('A' for Active; 'I' for Inactive)
DOCKED: REMARK    1  A    between atoms: C_2  and  C_5
DOCKED: REMARK    2  A    between atoms: N_3  and  O_4
DOCKED: REMARK    3  A    between atoms: C_5  and  C_6
DOCKED: REMARK    4  A    between atoms: C_6  and  C_7
DOCKED: REMARK    5  A    between atoms: C_7  and  C_8
DOCKED: REMARK    6  A    between atoms: C_8  and  C_9
DOCKED: REMARK    7  A    between atoms: C_9  and  N_10
DOCKED: REMARK                            x       y       z     vdW  Elec       q    Type
DOCKED: REMARK                         _______ _______ _______ _____ _____    ______ ____
DOCKED: USER                              x       y       z     vdW  Elec       q    Type
DOCKED: USER                           _______ _______ _______ _____ _____    ______ ____
DOCKED: ROOT
DOCKED: ATOM      1  N   UNL     1      27.628 -15.670  -0.003 -0.30 -0.00    +0.000 N 
DOCKED: ATOM      2  C   UNL     1      27.097 -14.335   0.111 -0.30 -0.00    +0.000 C 
DOCKED: ATOM      3  C   UNL     1      28.006 -13.167   0.065 -0.14 -0.00    +0.000 A 
DOCKED: ATOM      4  C   UNL     1      27.494 -11.860   0.150 -0.14 -0.00    +0.000 A 
DOCKED: ATOM      5  C   UNL     1      28.351 -10.759   0.104 -0.07 -0.00    +0.000 A 
DOCKED: ATOM      6  C   UNL     1      29.727 -10.943  -0.027 -0.02 -0.00    +0.000 A 
DOCKED: ATOM      7  C   UNL     1      30.261 -12.236  -0.113 -0.02 -0.00    +0.000 A 
DOCKED: ATOM      8  C   UNL     1      31.645 -12.421  -0.243 -0.00 -0.00    +0.000 A 
DOCKED: ATOM      9  C   UNL     1      32.177 -13.707  -0.328 -0.01 -0.00    +0.000 A 
DOCKED: ATOM     10  C   UNL     1      31.336 -14.821  -0.283 -0.05 -0.00    +0.000 A 
DOCKED: ATOM     11  C   UNL     1      29.945 -14.662  -0.153 -0.10 -0.00    +0.000 A 
DOCKED: ATOM     12  C   UNL     1      29.398 -13.362  -0.067 -0.06 -0.00    +0.000 A 
DOCKED: ATOM     13  O   UNL     1      25.855 -14.159   0.254 -0.33 -0.00    +0.000 OA
DOCKED: ATOM     14  C   UNL     1      29.055 -15.845  -0.107 -0.20 -0.00    +0.000 C 
DOCKED: ATOM     15  O   UNL     1      29.550 -17.004  -0.157 -0.24 -0.00    +0.000 OA
DOCKED: ENDROOT
DOCKED: BRANCH   1  16
DOCKED: ATOM     16  C   UNL     1      26.717 -16.827  -0.047 -0.44 -0.00    +0.000 C 
DOCKED: BRANCH  16  17
DOCKED: ATOM     17  C   UNL     1      26.200 -17.083  -1.474 -0.54 -0.00    +0.000 C 
DOCKED: BRANCH  17  18
DOCKED: ATOM     18  C   UNL     1      24.688 -16.843  -1.650 -0.64 -0.00    +0.000 C 
DOCKED: BRANCH  18  19
DOCKED: ATOM     19  C   UNL     1      23.845 -18.126  -1.810 -0.63 -0.00    +0.000 C 
DOCKED: BRANCH  19  20
DOCKED: ATOM     20  C   UNL     1      22.916 -18.430  -0.624 -0.83 -0.00    +0.000 C 
DOCKED: BRANCH  20  22
DOCKED: ATOM     21  O   UNL     1      20.628 -17.745  -0.707 -2.26 -0.00    +0.000 OA
DOCKED: ATOM     22  C   UNL     1      21.488 -18.598  -1.055 -0.80 -0.00    +0.000 C 
DOCKED: ATOM     23  N   UNL     1      21.093 -19.735  -1.826 -0.62 -0.00    +0.000 N 
DOCKED: ATOM     24  H   UNL     1      21.766 -20.404  -2.089 -0.50 -0.00    +0.000 HD
DOCKED: BRANCH  23  25
DOCKED: ATOM     25  O   UNL     1      19.801 -19.900  -2.198 -1.76 -0.00    +0.000 OA
DOCKED: ATOM     26  H   UNL     1      19.262 -19.186  -1.822 -0.46 -0.00    +0.000 HD
DOCKED: ENDBRANCH  23  25
DOCKED: ENDBRANCH  20  22
DOCKED: ENDBRANCH  19  20
DOCKED: ENDBRANCH  18  19
DOCKED: ENDBRANCH  17  18
DOCKED: ENDBRANCH  16  17
DOCKED: ENDBRANCH   1  16
DOCKED: TORSDOF 7
DOCKED: TER
DOCKED: ENDMDL
________________________________________________________________________________


	BEGINNING GENETIC ALGORITHM DOCKING 93 of 100
Run: 93 Seed: 6008072 1546863518 [ Run 93 of 100 GA/GALS ]
Beginning LAMARCKIAN GENETIC ALGORITHM (LGA), with a maximum of 2500000 energy evaluations.

Final-Value: -14.717


	FINAL GENETIC ALGORITHM DOCKED STATE
	_______________________________________________


Detailed state:  trans 26.088 -16.235 -3.651 quatxyzw 0.195513 -0.691016 0.687443 -0.108138 center 0.154 0.112 -0.159 ntor 7 1.3596 173.9168 51.1057 169.7246 127.0632 49.9649 35.7527
State:	 26.088 -16.235  -3.651   0.197 -0.695  0.691 -167.584      1.36  173.92   51.11  169.72  127.06   49.96   35.75

DOCKED: MODEL       93
DOCKED: USER    Run = 93
DOCKED: USER    DPF = ligand_dock.biased.dpf
DOCKED: USER  
DOCKED: USER    Estimated Free Energy of Binding    =  -11.37 kcal/mol  [=(1)+(2)+(3)-(4)]
DOCKED: USER    Estimated Inhibition Constant, Ki   =    4.63 nM (nanomolar)  [Temperature = 298.15 K]
DOCKED: USER    
DOCKED: USER    (1) Final Intermolecular Energy     =  -13.46 kcal/mol
DOCKED: USER        vdW + Hbond + desolv Energy     =  -13.46 kcal/mol
DOCKED: USER        Electrostatic Energy            =   +0.00 kcal/mol
DOCKED: USER    (2) Final Total Internal Energy     =   -1.26 kcal/mol
DOCKED: USER    (3) Torsional Free Energy           =   +2.09 kcal/mol
DOCKED: USER    (4) Unbound System's Energy  [=(2)] =   -1.26 kcal/mol
DOCKED: USER    
DOCKED: USER    
DOCKED: USER    NEWDPF move ligand.pdbqt
DOCKED: USER    NEWDPF about 0.154000 0.112000 -0.159000
DOCKED: USER    NEWDPF tran0 26.087703 -16.234556 -3.650914
DOCKED: USER    NEWDPF quaternion0 0.195513 -0.691016 0.687443 -0.108138
DOCKED: USER    NEWDPF axisangle0 0.196666 -0.695092 0.691498 -167.584057
DOCKED: USER    NEWDPF quat0 0.196666 -0.695092 0.691498 -167.584057
DOCKED: USER    NEWDPF dihe0 1.36 173.92 51.11 169.72 127.06 49.96 35.75 
DOCKED: USER  keepresnum = 1 
DOCKED: USER  
DOCKED: REMARK  Name = 
DOCKED: REMARK  7 active torsions:
DOCKED: REMARK  status: ('A' for Active; 'I' for Inactive)
DOCKED: REMARK    1  A    between atoms: C_2  and  C_5
DOCKED: REMARK    2  A    between atoms: N_3  and  O_4
DOCKED: REMARK    3  A    between atoms: C_5  and  C_6
DOCKED: REMARK    4  A    between atoms: C_6  and  C_7
DOCKED: REMARK    5  A    between atoms: C_7  and  C_8
DOCKED: REMARK    6  A    between atoms: C_8  and  C_9
DOCKED: REMARK    7  A    between atoms: C_9  and  N_10
DOCKED: REMARK                            x       y       z     vdW  Elec       q    Type
DOCKED: REMARK                         _______ _______ _______ _____ _____    ______ ____
DOCKED: USER                              x       y       z     vdW  Elec       q    Type
DOCKED: USER                           _______ _______ _______ _____ _____    ______ ____
DOCKED: ROOT
DOCKED: ATOM      1  N   UNL     1      26.872 -15.091  -3.083 -0.32 -0.00    +0.000 N 
DOCKED: ATOM      2  C   UNL     1      27.006 -14.231  -4.231 -0.38 -0.00    +0.000 C 
DOCKED: ATOM      3  C   UNL     1      28.067 -14.489  -5.232 -0.33 -0.00    +0.000 A 
DOCKED: ATOM      4  C   UNL     1      28.190 -13.671  -6.369 -0.24 -0.00    +0.000 A 
DOCKED: ATOM      5  C   UNL     1      29.189 -13.916  -7.313 -0.28 -0.00    +0.000 A 
DOCKED: ATOM      6  C   UNL     1      30.077 -14.977  -7.139 -0.27 -0.00    +0.000 A 
DOCKED: ATOM      7  C   UNL     1      29.976 -15.806  -6.014 -0.29 -0.00    +0.000 A 
DOCKED: ATOM      8  C   UNL     1      30.870 -16.871  -5.838 -0.23 -0.00    +0.000 A 
DOCKED: ATOM      9  C   UNL     1      30.769 -17.695  -4.717 -0.23 -0.00    +0.000 A 
DOCKED: ATOM     10  C   UNL     1      29.777 -17.466  -3.762 -0.12 -0.00    +0.000 A 
DOCKED: ATOM     11  C   UNL     1      28.868 -16.405  -3.915 -0.17 -0.00    +0.000 A 
DOCKED: ATOM     12  C   UNL     1      28.963 -15.565  -5.048 -0.30 -0.00    +0.000 A 
DOCKED: ATOM     13  O   UNL     1      26.222 -13.255  -4.385 -0.39 -0.00    +0.000 OA
DOCKED: ATOM     14  C   UNL     1      27.817 -16.164  -2.900 -0.27 -0.00    +0.000 C 
DOCKED: ATOM     15  O   UNL     1      27.752 -16.900  -1.878 -0.39 -0.00    +0.000 OA
DOCKED: ENDROOT
DOCKED: BRANCH   1  16
DOCKED: ATOM     16  C   UNL     1      25.762 -14.889  -2.135 -0.41 -0.00    +0.000 C 
DOCKED: BRANCH  16  17
DOCKED: ATOM     17  C   UNL     1      24.753 -16.050  -2.192 -0.45 -0.00    +0.000 C 
DOCKED: BRANCH  17  18
DOCKED: ATOM     18  C   UNL     1      24.691 -16.896  -0.907 -0.63 -0.00    +0.000 C 
DOCKED: BRANCH  18  19
DOCKED: ATOM     19  C   UNL     1      23.998 -18.266  -1.067 -0.80 -0.00    +0.000 C 
DOCKED: BRANCH  19  20
DOCKED: ATOM     20  C   UNL     1      22.823 -18.502  -0.104 -0.79 -0.00    +0.000 C 
DOCKED: BRANCH  20  22
DOCKED: ATOM     21  O   UNL     1      20.684 -17.630  -0.718 -2.18 +0.00    +0.000 OA
DOCKED: ATOM     22  C   UNL     1      21.509 -18.577  -0.825 -0.84 -0.00    +0.000 C 
DOCKED: ATOM     23  N   UNL     1      21.174 -19.729  -1.602 -0.64 -0.00    +0.000 N 
DOCKED: ATOM     24  H   UNL     1      21.817 -20.471  -1.678 -0.36 -0.00    +0.000 HD
DOCKED: BRANCH  23  25
DOCKED: ATOM     25  O   UNL     1      19.980 -19.809  -2.237 -1.85 -0.00    +0.000 OA
DOCKED: ATOM     26  H   UNL     1      19.476 -18.994  -2.082 -0.30 -0.00    +0.000 HD
DOCKED: ENDBRANCH  23  25
DOCKED: ENDBRANCH  20  22
DOCKED: ENDBRANCH  19  20
DOCKED: ENDBRANCH  18  19
DOCKED: ENDBRANCH  17  18
DOCKED: ENDBRANCH  16  17
DOCKED: ENDBRANCH   1  16
DOCKED: TORSDOF 7
DOCKED: TER
DOCKED: ENDMDL
________________________________________________________________________________


	BEGINNING GENETIC ALGORITHM DOCKING 94 of 100
Run: 94 Seed: 839517143 439504909 [ Run 94 of 100 GA/GALS ]
Beginning LAMARCKIAN GENETIC ALGORITHM (LGA), with a maximum of 2500000 energy evaluations.

Final-Value: -14.730


	FINAL GENETIC ALGORITHM DOCKED STATE
	_______________________________________________


Detailed state:  trans 26.911 -17.170 -3.127 quatxyzw 0.300488 -0.619873 0.723877 -0.038312 center 0.154 0.112 -0.159 ntor 7 -8.8600 165.7370 72.9689 -178.0312 99.2478 59.3797 9.9096
State:	 26.911 -17.170  -3.127   0.301 -0.620  0.724 -175.609     -8.86  165.74   72.97 -178.03   99.25   59.38    9.91

DOCKED: MODEL       94
DOCKED: USER    Run = 94
DOCKED: USER    DPF = ligand_dock.biased.dpf
DOCKED: USER  
DOCKED: USER    Estimated Free Energy of Binding    =  -11.47 kcal/mol  [=(1)+(2)+(3)-(4)]
DOCKED: USER    Estimated Inhibition Constant, Ki   =    3.90 nM (nanomolar)  [Temperature = 298.15 K]
DOCKED: USER    
DOCKED: USER    (1) Final Intermolecular Energy     =  -13.56 kcal/mol
DOCKED: USER        vdW + Hbond + desolv Energy     =  -13.56 kcal/mol
DOCKED: USER        Electrostatic Energy            =   +0.00 kcal/mol
DOCKED: USER    (2) Final Total Internal Energy     =   -1.17 kcal/mol
DOCKED: USER    (3) Torsional Free Energy           =   +2.09 kcal/mol
DOCKED: USER    (4) Unbound System's Energy  [=(2)] =   -1.17 kcal/mol
DOCKED: USER    
DOCKED: USER    
DOCKED: USER    NEWDPF move ligand.pdbqt
DOCKED: USER    NEWDPF about 0.154000 0.112000 -0.159000
DOCKED: USER    NEWDPF tran0 26.911049 -17.170207 -3.127152
DOCKED: USER    NEWDPF quaternion0 0.300488 -0.619873 0.723877 -0.038312
DOCKED: USER    NEWDPF axisangle0 0.300708 -0.620328 0.724408 -175.608642
DOCKED: USER    NEWDPF quat0 0.300708 -0.620328 0.724408 -175.608642
DOCKED: USER    NEWDPF dihe0 -8.86 165.74 72.97 -178.03 99.25 59.38 9.91 
DOCKED: USER  keepresnum = 1 
DOCKED: USER  
DOCKED: REMARK  Name = 
DOCKED: REMARK  7 active torsions:
DOCKED: REMARK  status: ('A' for Active; 'I' for Inactive)
DOCKED: REMARK    1  A    between atoms: C_2  and  C_5
DOCKED: REMARK    2  A    between atoms: N_3  and  O_4
DOCKED: REMARK    3  A    between atoms: C_5  and  C_6
DOCKED: REMARK    4  A    between atoms: C_6  and  C_7
DOCKED: REMARK    5  A    between atoms: C_7  and  C_8
DOCKED: REMARK    6  A    between atoms: C_8  and  C_9
DOCKED: REMARK    7  A    between atoms: C_9  and  N_10
DOCKED: REMARK                            x       y       z     vdW  Elec       q    Type
DOCKED: REMARK                         _______ _______ _______ _____ _____    ______ ____
DOCKED: USER                              x       y       z     vdW  Elec       q    Type
DOCKED: USER                           _______ _______ _______ _____ _____    ______ ____
DOCKED: ROOT
DOCKED: ATOM      1  N   UNL     1      27.368 -15.804  -2.714 -0.30 -0.00    +0.000 N 
DOCKED: ATOM      2  C   UNL     1      27.220 -15.065  -3.942 -0.41 -0.00    +0.000 C 
DOCKED: ATOM      3  C   UNL     1      28.275 -15.127  -4.979 -0.34 -0.00    +0.000 A 
DOCKED: ATOM      4  C   UNL     1      28.128 -14.429  -6.190 -0.30 -0.00    +0.000 A 
DOCKED: ATOM      5  C   UNL     1      29.122 -14.491  -7.169 -0.25 -0.00    +0.000 A 
DOCKED: ATOM      6  C   UNL     1      30.274 -15.247  -6.955 -0.27 -0.00    +0.000 A 
DOCKED: ATOM      7  C   UNL     1      30.445 -15.951  -5.755 -0.23 -0.00    +0.000 A 
DOCKED: ATOM      8  C   UNL     1      31.604 -16.709  -5.540 -0.12 -0.00    +0.000 A 
DOCKED: ATOM      9  C   UNL     1      31.773 -17.409  -4.346 -0.10 -0.00    +0.000 A 
DOCKED: ATOM     10  C   UNL     1      30.791 -17.359  -3.355 -0.16 -0.00    +0.000 A 
DOCKED: ATOM     11  C   UNL     1      29.620 -16.606  -3.547 -0.22 -0.00    +0.000 A 
DOCKED: ATOM     12  C   UNL     1      29.440 -15.895  -4.754 -0.26 -0.00    +0.000 A 
DOCKED: ATOM     13  O   UNL     1      26.192 -14.359  -4.134 -0.49 -0.00    +0.000 OA
DOCKED: ATOM     14  C   UNL     1      28.578 -16.556  -2.495 -0.28 -0.00    +0.000 C 
DOCKED: ATOM     15  O   UNL     1      28.755 -17.171  -1.408 -0.35 -0.00    +0.000 OA
DOCKED: ENDROOT
DOCKED: BRANCH   1  16
DOCKED: ATOM     16  C   UNL     1      26.279 -15.813  -1.721 -0.46 -0.00    +0.000 C 
DOCKED: BRANCH  16  17
DOCKED: ATOM     17  C   UNL     1      25.244 -16.910  -2.030 -0.61 -0.00    +0.000 C 
DOCKED: BRANCH  17  18
DOCKED: ATOM     18  C   UNL     1      25.021 -17.909  -0.880 -0.71 -0.00    +0.000 C 
DOCKED: BRANCH  18  19
DOCKED: ATOM     19  C   UNL     1      23.798 -18.834  -1.054 -0.77 -0.00    +0.000 C 
DOCKED: BRANCH  19  20
DOCKED: ATOM     20  C   UNL     1      22.656 -18.575  -0.058 -0.78 -0.00    +0.000 C 
DOCKED: BRANCH  20  22
DOCKED: ATOM     21  O   UNL     1      20.631 -17.499  -0.730 -2.09 +0.00    +0.000 OA
DOCKED: ATOM     22  C   UNL     1      21.314 -18.559  -0.730 -0.85 -0.00    +0.000 C 
DOCKED: ATOM     23  N   UNL     1      20.794 -19.743  -1.337 -0.79 -0.00    +0.000 N 
DOCKED: ATOM     24  H   UNL     1      21.326 -20.571  -1.329 -0.19 -0.00    +0.000 HD
DOCKED: BRANCH  23  25
DOCKED: ATOM     25  O   UNL     1      19.573 -19.736  -1.926 -1.68 -0.00    +0.000 OA
DOCKED: ATOM     26  H   UNL     1      19.125 -18.899  -1.730 -0.55 -0.00    +0.000 HD
DOCKED: ENDBRANCH  23  25
DOCKED: ENDBRANCH  20  22
DOCKED: ENDBRANCH  19  20
DOCKED: ENDBRANCH  18  19
DOCKED: ENDBRANCH  17  18
DOCKED: ENDBRANCH  16  17
DOCKED: ENDBRANCH   1  16
DOCKED: TORSDOF 7
DOCKED: TER
DOCKED: ENDMDL
________________________________________________________________________________


	BEGINNING GENETIC ALGORITHM DOCKING 95 of 100
Run: 95 Seed: 595772936 273058525 [ Run 95 of 100 GA/GALS ]
Beginning LAMARCKIAN GENETIC ALGORITHM (LGA), with a maximum of 2500000 energy evaluations.

Final-Value: -14.403


	FINAL GENETIC ALGORITHM DOCKED STATE
	_______________________________________________


Detailed state:  trans 26.190 -16.747 -3.175 quatxyzw 0.312121 -0.722306 0.611852 -0.080570 center 0.154 0.112 -0.159 ntor 7 18.2424 -54.8553 -154.0062 -179.3209 157.3836 161.6165 46.8270
State:	 26.190 -16.747  -3.175   0.313 -0.725  0.614 -170.757     18.24  -54.86 -154.01 -179.32  157.38  161.62   46.83

DOCKED: MODEL       95
DOCKED: USER    Run = 95
DOCKED: USER    DPF = ligand_dock.biased.dpf
DOCKED: USER  
DOCKED: USER    Estimated Free Energy of Binding    =  -11.26 kcal/mol  [=(1)+(2)+(3)-(4)]
DOCKED: USER    Estimated Inhibition Constant, Ki   =    5.62 nM (nanomolar)  [Temperature = 298.15 K]
DOCKED: USER    
DOCKED: USER    (1) Final Intermolecular Energy     =  -13.34 kcal/mol
DOCKED: USER        vdW + Hbond + desolv Energy     =  -13.34 kcal/mol
DOCKED: USER        Electrostatic Energy            =   +0.00 kcal/mol
DOCKED: USER    (2) Final Total Internal Energy     =   -1.06 kcal/mol
DOCKED: USER    (3) Torsional Free Energy           =   +2.09 kcal/mol
DOCKED: USER    (4) Unbound System's Energy  [=(2)] =   -1.06 kcal/mol
DOCKED: USER    
DOCKED: USER    
DOCKED: USER    NEWDPF move ligand.pdbqt
DOCKED: USER    NEWDPF about 0.154000 0.112000 -0.159000
DOCKED: USER    NEWDPF tran0 26.190030 -16.746970 -3.174539
DOCKED: USER    NEWDPF quaternion0 0.312121 -0.722306 0.611852 -0.080570
DOCKED: USER    NEWDPF axisangle0 0.313139 -0.724662 0.613848 -170.757290
DOCKED: USER    NEWDPF quat0 0.313139 -0.724662 0.613848 -170.757290
DOCKED: USER    NEWDPF dihe0 18.24 -54.86 -154.01 -179.32 157.38 161.62 46.83 
DOCKED: USER  keepresnum = 1 
DOCKED: USER  
DOCKED: REMARK  Name = 
DOCKED: REMARK  7 active torsions:
DOCKED: REMARK  status: ('A' for Active; 'I' for Inactive)
DOCKED: REMARK    1  A    between atoms: C_2  and  C_5
DOCKED: REMARK    2  A    between atoms: N_3  and  O_4
DOCKED: REMARK    3  A    between atoms: C_5  and  C_6
DOCKED: REMARK    4  A    between atoms: C_6  and  C_7
DOCKED: REMARK    5  A    between atoms: C_7  and  C_8
DOCKED: REMARK    6  A    between atoms: C_8  and  C_9
DOCKED: REMARK    7  A    between atoms: C_9  and  N_10
DOCKED: REMARK                            x       y       z     vdW  Elec       q    Type
DOCKED: REMARK                         _______ _______ _______ _____ _____    ______ ____
DOCKED: USER                              x       y       z     vdW  Elec       q    Type
DOCKED: USER                           _______ _______ _______ _____ _____    ______ ____
DOCKED: ROOT
DOCKED: ATOM      1  N   UNL     1      26.867 -15.593  -2.500 -0.33 -0.00    +0.000 N 
DOCKED: ATOM      2  C   UNL     1      26.682 -14.541  -3.468 -0.40 -0.00    +0.000 C 
DOCKED: ATOM      3  C   UNL     1      27.597 -14.429  -4.627 -0.32 -0.00    +0.000 A 
DOCKED: ATOM      4  C   UNL     1      27.409 -13.422  -5.590 -0.21 -0.00    +0.000 A 
DOCKED: ATOM      5  C   UNL     1      28.271 -13.318  -6.683 -0.21 -0.00    +0.000 A 
DOCKED: ATOM      6  C   UNL     1      29.329 -14.213  -6.833 -0.30 -0.00    +0.000 A 
DOCKED: ATOM      7  C   UNL     1      29.538 -15.224  -5.887 -0.29 -0.00    +0.000 A 
DOCKED: ATOM      8  C   UNL     1      30.603 -16.123  -6.037 -0.24 -0.00    +0.000 A 
DOCKED: ATOM      9  C   UNL     1      30.811 -17.130  -5.094 -0.22 -0.00    +0.000 A 
DOCKED: ATOM     10  C   UNL     1      29.961 -17.250  -3.993 -0.21 -0.00    +0.000 A 
DOCKED: ATOM     11  C   UNL     1      28.885 -16.361  -3.820 -0.21 -0.00    +0.000 A 
DOCKED: ATOM     12  C   UNL     1      28.667 -15.339  -4.771 -0.29 -0.00    +0.000 A 
DOCKED: ATOM     13  O   UNL     1      25.741 -13.712  -3.328 -0.43 -0.00    +0.000 OA
DOCKED: ATOM     14  C   UNL     1      27.984 -16.491  -2.652 -0.24 -0.00    +0.000 C 
DOCKED: ATOM     15  O   UNL     1      28.198 -17.388  -1.792 -0.35 -0.00    +0.000 OA
DOCKED: ENDROOT
DOCKED: BRANCH   1  16
DOCKED: ATOM     16  C   UNL     1      25.904 -15.759  -1.397 -0.48 -0.00    +0.000 C 
DOCKED: BRANCH  16  17
DOCKED: ATOM     17  C   UNL     1      25.290 -17.171  -1.393 -0.64 -0.00    +0.000 C 
DOCKED: BRANCH  17  18
DOCKED: ATOM     18  C   UNL     1      23.763 -17.194  -1.193 -0.69 -0.00    +0.000 C 
DOCKED: BRANCH  18  19
DOCKED: ATOM     19  C   UNL     1      23.262 -18.223  -0.158 -0.79 -0.00    +0.000 C 
DOCKED: BRANCH  19  20
DOCKED: ATOM     20  C   UNL     1      22.426 -19.369  -0.753 -0.75 -0.00    +0.000 C 
DOCKED: BRANCH  20  22
DOCKED: ATOM     21  O   UNL     1      20.575 -17.858  -0.707 -2.33 -0.00    +0.000 OA
DOCKED: ATOM     22  C   UNL     1      20.958 -19.058  -0.745 -0.89 -0.00    +0.000 C 
DOCKED: ATOM     23  N   UNL     1      19.994 -20.115  -0.744 -0.75 -0.00    +0.000 N 
DOCKED: ATOM     24  H   UNL     1      20.297 -21.052  -0.765 -0.34 -0.00    +0.000 HD
DOCKED: BRANCH  23  25
DOCKED: ATOM     25  O   UNL     1      18.669 -19.837  -0.715 -0.85 -0.00    +0.000 OA
DOCKED: ATOM     26  H   UNL     1      18.525 -18.917  -0.983 -0.59 -0.00    +0.000 HD
DOCKED: ENDBRANCH  23  25
DOCKED: ENDBRANCH  20  22
DOCKED: ENDBRANCH  19  20
DOCKED: ENDBRANCH  18  19
DOCKED: ENDBRANCH  17  18
DOCKED: ENDBRANCH  16  17
DOCKED: ENDBRANCH   1  16
DOCKED: TORSDOF 7
DOCKED: TER
DOCKED: ENDMDL
________________________________________________________________________________


	BEGINNING GENETIC ALGORITHM DOCKING 96 of 100
Run: 96 Seed: 1829829384 2118726669 [ Run 96 of 100 GA/GALS ]
Beginning LAMARCKIAN GENETIC ALGORITHM (LGA), with a maximum of 2500000 energy evaluations.

Final-Value: -13.641


	FINAL GENETIC ALGORITHM DOCKED STATE
	_______________________________________________


Detailed state:  trans 26.582 -14.009 -3.337 quatxyzw 0.172740 0.946075 0.252813 0.105776 center 0.154 0.112 -0.159 ntor 7 2.3535 -178.4154 93.5297 177.3366 71.3378 50.7998 179.4226
State:	 26.582 -14.009  -3.337   0.174  0.951  0.254 167.856      2.35 -178.42   93.53  177.34   71.34   50.80  179.42

DOCKED: MODEL       96
DOCKED: USER    Run = 96
DOCKED: USER    DPF = ligand_dock.biased.dpf
DOCKED: USER  
DOCKED: USER    Estimated Free Energy of Binding    =  -10.39 kcal/mol  [=(1)+(2)+(3)-(4)]
DOCKED: USER    Estimated Inhibition Constant, Ki   =   24.17 nM (nanomolar)  [Temperature = 298.15 K]
DOCKED: USER    
DOCKED: USER    (1) Final Intermolecular Energy     =  -12.48 kcal/mol
DOCKED: USER        vdW + Hbond + desolv Energy     =  -12.48 kcal/mol
DOCKED: USER        Electrostatic Energy            =   +0.00 kcal/mol
DOCKED: USER    (2) Final Total Internal Energy     =   -1.16 kcal/mol
DOCKED: USER    (3) Torsional Free Energy           =   +2.09 kcal/mol
DOCKED: USER    (4) Unbound System's Energy  [=(2)] =   -1.16 kcal/mol
DOCKED: USER    
DOCKED: USER    
DOCKED: USER    NEWDPF move ligand.pdbqt
DOCKED: USER    NEWDPF about 0.154000 0.112000 -0.159000
DOCKED: USER    NEWDPF tran0 26.581749 -14.008920 -3.337231
DOCKED: USER    NEWDPF quaternion0 0.172740 0.946075 0.252813 0.105776
DOCKED: USER    NEWDPF axisangle0 0.173715 0.951412 0.254240 167.856209
DOCKED: USER    NEWDPF quat0 0.173715 0.951412 0.254240 167.856209
DOCKED: USER    NEWDPF dihe0 2.35 -178.42 93.53 177.34 71.34 50.80 179.42 
DOCKED: USER  keepresnum = 1 
DOCKED: USER  
DOCKED: REMARK  Name = 
DOCKED: REMARK  7 active torsions:
DOCKED: REMARK  status: ('A' for Active; 'I' for Inactive)
DOCKED: REMARK    1  A    between atoms: C_2  and  C_5
DOCKED: REMARK    2  A    between atoms: N_3  and  O_4
DOCKED: REMARK    3  A    between atoms: C_5  and  C_6
DOCKED: REMARK    4  A    between atoms: C_6  and  C_7
DOCKED: REMARK    5  A    between atoms: C_7  and  C_8
DOCKED: REMARK    6  A    between atoms: C_8  and  C_9
DOCKED: REMARK    7  A    between atoms: C_9  and  N_10
DOCKED: REMARK                            x       y       z     vdW  Elec       q    Type
DOCKED: REMARK                         _______ _______ _______ _____ _____    ______ ____
DOCKED: USER                              x       y       z     vdW  Elec       q    Type
DOCKED: USER                           _______ _______ _______ _____ _____    ______ ____
DOCKED: ROOT
DOCKED: ATOM      1  N   UNL     1      26.928 -15.426  -2.996 -0.33 -0.00    +0.000 N 
DOCKED: ATOM      2  C   UNL     1      28.034 -15.245  -2.090 -0.24 -0.00    +0.000 C 
DOCKED: ATOM      3  C   UNL     1      29.398 -15.018  -2.621 -0.11 -0.00    +0.000 A 
DOCKED: ATOM      4  C   UNL     1      30.480 -14.815  -1.746 -0.05 -0.00    +0.000 A 
DOCKED: ATOM      5  C   UNL     1      31.765 -14.598  -2.246 -0.01 -0.00    +0.000 A 
DOCKED: ATOM      6  C   UNL     1      31.991 -14.579  -3.622 -0.02 -0.00    +0.000 A 
DOCKED: ATOM      7  C   UNL     1      30.929 -14.780  -4.514 -0.06 -0.00    +0.000 A 
DOCKED: ATOM      8  C   UNL     1      31.157 -14.763  -5.897 -0.11 -0.00    +0.000 A 
DOCKED: ATOM      9  C   UNL     1      30.100 -14.964  -6.786 -0.27 -0.00    +0.000 A 
DOCKED: ATOM     10  C   UNL     1      28.808 -15.183  -6.305 -0.34 -0.00    +0.000 A 
DOCKED: ATOM     11  C   UNL     1      28.554 -15.204  -4.922 -0.31 -0.00    +0.000 A 
DOCKED: ATOM     12  C   UNL     1      29.619 -15.001  -4.016 -0.13 -0.00    +0.000 A 
DOCKED: ATOM     13  O   UNL     1      27.844 -15.284  -0.843 -0.25 -0.00    +0.000 OA
DOCKED: ATOM     14  C   UNL     1      27.182 -15.436  -4.415 -0.43 -0.00    +0.000 C 
DOCKED: ATOM     15  O   UNL     1      26.240 -15.642  -5.227 -1.19 +0.00    +0.000 OA
DOCKED: ENDROOT
DOCKED: BRANCH   1  16
DOCKED: ATOM     16  C   UNL     1      25.558 -15.563  -2.470 -0.53 -0.00    +0.000 C 
DOCKED: BRANCH  16  17
DOCKED: ATOM     17  C   UNL     1      25.073 -17.023  -2.533 -0.46 -0.00    +0.000 C 
DOCKED: BRANCH  17  18
DOCKED: ATOM     18  C   UNL     1      24.834 -17.669  -1.156 -0.71 -0.00    +0.000 C 
DOCKED: BRANCH  18  19
DOCKED: ATOM     19  C   UNL     1      23.587 -18.575  -1.075 -0.81 -0.00    +0.000 C 
DOCKED: BRANCH  19  20
DOCKED: ATOM     20  C   UNL     1      22.505 -18.085  -0.099 -0.79 -0.00    +0.000 C 
DOCKED: BRANCH  20  22
DOCKED: ATOM     21  O   UNL     1      20.333 -17.862  -1.071 -2.18 -0.00    +0.000 OA
DOCKED: ATOM     22  C   UNL     1      21.144 -18.607  -0.458 -0.78 -0.00    +0.000 C 
DOCKED: ATOM     23  N   UNL     1      20.753 -19.929  -0.079 -0.71 -0.00    +0.000 N 
DOCKED: ATOM     24  H   UNL     1      21.386 -20.506   0.407 -0.59 -0.00    +0.000 HD
DOCKED: BRANCH  23  25
DOCKED: ATOM     25  O   UNL     1      19.517 -20.395  -0.384 -0.87 -0.00    +0.000 OA
DOCKED: ATOM     26  H   UNL     1      19.034 -19.724  -0.891 -0.21 -0.00    +0.000 HD
DOCKED: ENDBRANCH  23  25
DOCKED: ENDBRANCH  20  22
DOCKED: ENDBRANCH  19  20
DOCKED: ENDBRANCH  18  19
DOCKED: ENDBRANCH  17  18
DOCKED: ENDBRANCH  16  17
DOCKED: ENDBRANCH   1  16
DOCKED: TORSDOF 7
DOCKED: TER
DOCKED: ENDMDL
________________________________________________________________________________


	BEGINNING GENETIC ALGORITHM DOCKING 97 of 100
Run: 97 Seed: 288392489 1205755108 [ Run 97 of 100 GA/GALS ]
Beginning LAMARCKIAN GENETIC ALGORITHM (LGA), with a maximum of 2500000 energy evaluations.

Final-Value: -14.205


	FINAL GENETIC ALGORITHM DOCKED STATE
	_______________________________________________


Detailed state:  trans 26.129 -17.421 -2.384 quatxyzw 0.288771 -0.591658 0.752678 -0.005381 center 0.154 0.112 -0.159 ntor 7 2.6846 136.3237 53.6692 90.8858 -178.4301 -171.7564 48.4964
State:	 26.129 -17.421  -2.384   0.289 -0.592  0.753 -179.383      2.68  136.32   53.67   90.89 -178.43 -171.76   48.50

DOCKED: MODEL       97
DOCKED: USER    Run = 97
DOCKED: USER    DPF = ligand_dock.biased.dpf
DOCKED: USER  
DOCKED: USER    Estimated Free Energy of Binding    =  -10.96 kcal/mol  [=(1)+(2)+(3)-(4)]
DOCKED: USER    Estimated Inhibition Constant, Ki   =    9.30 nM (nanomolar)  [Temperature = 298.15 K]
DOCKED: USER    
DOCKED: USER    (1) Final Intermolecular Energy     =  -13.04 kcal/mol
DOCKED: USER        vdW + Hbond + desolv Energy     =  -13.04 kcal/mol
DOCKED: USER        Electrostatic Energy            =   +0.00 kcal/mol
DOCKED: USER    (2) Final Total Internal Energy     =   -1.16 kcal/mol
DOCKED: USER    (3) Torsional Free Energy           =   +2.09 kcal/mol
DOCKED: USER    (4) Unbound System's Energy  [=(2)] =   -1.16 kcal/mol
DOCKED: USER    
DOCKED: USER    
DOCKED: USER    NEWDPF move ligand.pdbqt
DOCKED: USER    NEWDPF about 0.154000 0.112000 -0.159000
DOCKED: USER    NEWDPF tran0 26.129128 -17.421403 -2.384443
DOCKED: USER    NEWDPF quaternion0 0.288771 -0.591658 0.752678 -0.005381
DOCKED: USER    NEWDPF axisangle0 0.288775 -0.591666 0.752688 -179.383324
DOCKED: USER    NEWDPF quat0 0.288775 -0.591666 0.752688 -179.383324
DOCKED: USER    NEWDPF dihe0 2.68 136.32 53.67 90.89 -178.43 -171.76 48.50 
DOCKED: USER  keepresnum = 1 
DOCKED: USER  
DOCKED: REMARK  Name = 
DOCKED: REMARK  7 active torsions:
DOCKED: REMARK  status: ('A' for Active; 'I' for Inactive)
DOCKED: REMARK    1  A    between atoms: C_2  and  C_5
DOCKED: REMARK    2  A    between atoms: N_3  and  O_4
DOCKED: REMARK    3  A    between atoms: C_5  and  C_6
DOCKED: REMARK    4  A    between atoms: C_6  and  C_7
DOCKED: REMARK    5  A    between atoms: C_7  and  C_8
DOCKED: REMARK    6  A    between atoms: C_8  and  C_9
DOCKED: REMARK    7  A    between atoms: C_9  and  N_10
DOCKED: REMARK                            x       y       z     vdW  Elec       q    Type
DOCKED: REMARK                         _______ _______ _______ _____ _____    ______ ____
DOCKED: USER                              x       y       z     vdW  Elec       q    Type
DOCKED: USER                           _______ _______ _______ _____ _____    ______ ____
DOCKED: ROOT
DOCKED: ATOM      1  N   UNL     1      26.485 -16.012  -2.022 -0.39 -0.00    +0.000 N 
DOCKED: ATOM      2  C   UNL     1      26.392 -15.351  -3.299 -0.49 -0.00    +0.000 C 
DOCKED: ATOM      3  C   UNL     1      27.523 -15.414  -4.252 -0.34 -0.00    +0.000 A 
DOCKED: ATOM      4  C   UNL     1      27.432 -14.793  -5.511 -0.36 -0.00    +0.000 A 
DOCKED: ATOM      5  C   UNL     1      28.498 -14.855  -6.410 -0.33 -0.00    +0.000 A 
DOCKED: ATOM      6  C   UNL     1      29.667 -15.534  -6.070 -0.31 -0.00    +0.000 A 
DOCKED: ATOM      7  C   UNL     1      29.783 -16.160  -4.822 -0.25 -0.00    +0.000 A 
DOCKED: ATOM      8  C   UNL     1      30.959 -16.841  -4.480 -0.16 -0.00    +0.000 A 
DOCKED: ATOM      9  C   UNL     1      31.074 -17.463  -3.237 -0.14 -0.00    +0.000 A 
DOCKED: ATOM     10  C   UNL     1      30.020 -17.412  -2.324 -0.17 -0.00    +0.000 A 
DOCKED: ATOM     11  C   UNL     1      28.830 -16.735  -2.643 -0.23 -0.00    +0.000 A 
DOCKED: ATOM     12  C   UNL     1      28.704 -16.103  -3.900 -0.21 -0.00    +0.000 A 
DOCKED: ATOM     13  O   UNL     1      25.346 -14.714  -3.606 -0.74 -0.00    +0.000 OA
DOCKED: ATOM     14  C   UNL     1      27.712 -16.683  -1.672 -0.38 -0.00    +0.000 C 
DOCKED: ATOM     15  O   UNL     1      27.838 -17.226  -0.541 -0.45 -0.00    +0.000 OA
DOCKED: ENDROOT
DOCKED: BRANCH   1  16
DOCKED: ATOM     16  C   UNL     1      25.327 -16.025  -1.110 -0.52 -0.00    +0.000 C 
DOCKED: BRANCH  16  17
DOCKED: ATOM     17  C   UNL     1      24.937 -17.460  -0.715 -0.69 -0.00    +0.000 C 
DOCKED: BRANCH  17  18
DOCKED: ATOM     18  C   UNL     1      23.629 -17.958  -1.357 -0.76 -0.00    +0.000 C 
DOCKED: BRANCH  18  19
DOCKED: ATOM     19  C   UNL     1      22.444 -18.107  -0.379 -0.83 -0.00    +0.000 C 
DOCKED: BRANCH  19  20
DOCKED: ATOM     20  C   UNL     1      21.059 -18.052  -1.044 -0.54 -0.00    +0.000 C 
DOCKED: BRANCH  20  22
DOCKED: ATOM     21  O   UNL     1      19.553 -19.732  -1.832 -1.70 -0.00    +0.000 OA
DOCKED: ATOM     22  C   UNL     1      20.315 -19.349  -0.904 -0.90 -0.00    +0.000 C 
DOCKED: ATOM     23  N   UNL     1      20.440 -20.131   0.286 -0.70 -0.00    +0.000 N 
DOCKED: ATOM     24  H   UNL     1      21.030 -19.824   1.012 -0.46 -0.00    +0.000 HD
DOCKED: BRANCH  23  25
DOCKED: ATOM     25  O   UNL     1      19.753 -21.291   0.422 -0.69 -0.00    +0.000 OA
DOCKED: ATOM     26  H   UNL     1      19.256 -21.470  -0.391 -0.30 -0.00    +0.000 HD
DOCKED: ENDBRANCH  23  25
DOCKED: ENDBRANCH  20  22
DOCKED: ENDBRANCH  19  20
DOCKED: ENDBRANCH  18  19
DOCKED: ENDBRANCH  17  18
DOCKED: ENDBRANCH  16  17
DOCKED: ENDBRANCH   1  16
DOCKED: TORSDOF 7
DOCKED: TER
DOCKED: ENDMDL
________________________________________________________________________________


	BEGINNING GENETIC ALGORITHM DOCKING 98 of 100
Run: 98 Seed: 82409325 1488646709 [ Run 98 of 100 GA/GALS ]
Beginning LAMARCKIAN GENETIC ALGORITHM (LGA), with a maximum of 2500000 energy evaluations.

Final-Value: -13.876


	FINAL GENETIC ALGORITHM DOCKED STATE
	_______________________________________________


Detailed state:  trans 26.295 -16.272 -0.525 quatxyzw -0.246266 0.042885 0.941451 0.226239 center 0.154 0.112 -0.159 ntor 7 -18.8483 177.4862 69.2522 -152.5849 146.9930 -128.4451 45.1763
State:	 26.295 -16.272  -0.525  -0.253  0.044  0.967 153.849    -18.85  177.49   69.25 -152.58  146.99 -128.45   45.18

DOCKED: MODEL       98
DOCKED: USER    Run = 98
DOCKED: USER    DPF = ligand_dock.biased.dpf
DOCKED: USER  
DOCKED: USER    Estimated Free Energy of Binding    =  -10.50 kcal/mol  [=(1)+(2)+(3)-(4)]
DOCKED: USER    Estimated Inhibition Constant, Ki   =   20.11 nM (nanomolar)  [Temperature = 298.15 K]
DOCKED: USER    
DOCKED: USER    (1) Final Intermolecular Energy     =  -12.59 kcal/mol
DOCKED: USER        vdW + Hbond + desolv Energy     =  -12.59 kcal/mol
DOCKED: USER        Electrostatic Energy            =   +0.00 kcal/mol
DOCKED: USER    (2) Final Total Internal Energy     =   -1.29 kcal/mol
DOCKED: USER    (3) Torsional Free Energy           =   +2.09 kcal/mol
DOCKED: USER    (4) Unbound System's Energy  [=(2)] =   -1.29 kcal/mol
DOCKED: USER    
DOCKED: USER    
DOCKED: USER    NEWDPF move ligand.pdbqt
DOCKED: USER    NEWDPF about 0.154000 0.112000 -0.159000
DOCKED: USER    NEWDPF tran0 26.294814 -16.271903 -0.525247
DOCKED: USER    NEWDPF quaternion0 -0.246266 0.042885 0.941451 0.226239
DOCKED: USER    NEWDPF axisangle0 -0.252822 0.044027 0.966511 153.848562
DOCKED: USER    NEWDPF quat0 -0.252822 0.044027 0.966511 153.848562
DOCKED: USER    NEWDPF dihe0 -18.85 177.49 69.25 -152.58 146.99 -128.45 45.18 
DOCKED: USER  keepresnum = 1 
DOCKED: USER  
DOCKED: REMARK  Name = 
DOCKED: REMARK  7 active torsions:
DOCKED: REMARK  status: ('A' for Active; 'I' for Inactive)
DOCKED: REMARK    1  A    between atoms: C_2  and  C_5
DOCKED: REMARK    2  A    between atoms: N_3  and  O_4
DOCKED: REMARK    3  A    between atoms: C_5  and  C_6
DOCKED: REMARK    4  A    between atoms: C_6  and  C_7
DOCKED: REMARK    5  A    between atoms: C_7  and  C_8
DOCKED: REMARK    6  A    between atoms: C_8  and  C_9
DOCKED: REMARK    7  A    between atoms: C_9  and  N_10
DOCKED: REMARK                            x       y       z     vdW  Elec       q    Type
DOCKED: REMARK                         _______ _______ _______ _____ _____    ______ ____
DOCKED: USER                              x       y       z     vdW  Elec       q    Type
DOCKED: USER                           _______ _______ _______ _____ _____    ______ ____
DOCKED: ROOT
DOCKED: ATOM      1  N   UNL     1      26.926 -15.191  -1.349 -0.28 -0.00    +0.000 N 
DOCKED: ATOM      2  C   UNL     1      28.253 -15.716  -1.550 -0.26 -0.00    +0.000 C 
DOCKED: ATOM      3  C   UNL     1      29.285 -15.548  -0.502 -0.16 -0.00    +0.000 A 
DOCKED: ATOM      4  C   UNL     1      30.575 -16.079  -0.678 -0.13 -0.00    +0.000 A 
DOCKED: ATOM      5  C   UNL     1      31.546 -15.923   0.312 -0.10 -0.00    +0.000 A 
DOCKED: ATOM      6  C   UNL     1      31.248 -15.238   1.489 -0.12 -0.00    +0.000 A 
DOCKED: ATOM      7  C   UNL     1      29.970 -14.699   1.688 -0.05 -0.00    +0.000 A 
DOCKED: ATOM      8  C   UNL     1      29.671 -14.008   2.871 -0.20 -0.00    +0.000 A 
DOCKED: ATOM      9  C   UNL     1      28.399 -13.472   3.068 -0.27 -0.00    +0.000 A 
DOCKED: ATOM     10  C   UNL     1      27.414 -13.617   2.090 -0.29 -0.00    +0.000 A 
DOCKED: ATOM     11  C   UNL     1      27.689 -14.305   0.895 -0.24 -0.00    +0.000 A 
DOCKED: ATOM     12  C   UNL     1      28.975 -14.852   0.688 -0.16 -0.00    +0.000 A 
DOCKED: ATOM     13  O   UNL     1      28.539 -16.317  -2.623 -0.29 -0.00    +0.000 OA
DOCKED: ATOM     14  C   UNL     1      26.642 -14.458  -0.141 -0.32 -0.00    +0.000 C 
DOCKED: ATOM     15  O   UNL     1      25.504 -13.945   0.037 -0.39 -0.00    +0.000 OA
DOCKED: ENDROOT
DOCKED: BRANCH   1  16
DOCKED: ATOM     16  C   UNL     1      25.875 -15.435  -2.353 -0.49 -0.00    +0.000 C 
DOCKED: BRANCH  16  17
DOCKED: ATOM     17  C   UNL     1      24.672 -16.176  -1.741 -0.45 -0.00    +0.000 C 
DOCKED: BRANCH  17  18
DOCKED: ATOM     18  C   UNL     1      24.991 -17.599  -1.248 -0.69 -0.00    +0.000 C 
DOCKED: BRANCH  18  19
DOCKED: ATOM     19  C   UNL     1      23.856 -18.624  -1.452 -0.73 -0.00    +0.000 C 
DOCKED: BRANCH  19  20
DOCKED: ATOM     20  C   UNL     1      22.823 -18.666  -0.314 -0.82 -0.00    +0.000 C 
DOCKED: BRANCH  20  22
DOCKED: ATOM     21  O   UNL     1      20.753 -17.545  -0.726 -2.11 +0.00    +0.000 OA
DOCKED: ATOM     22  C   UNL     1      21.414 -18.614  -0.829 -0.85 -0.00    +0.000 C 
DOCKED: ATOM     23  N   UNL     1      20.808 -19.775  -1.402 -0.76 -0.00    +0.000 N 
DOCKED: ATOM     24  H   UNL     1      21.325 -20.610  -1.473 -0.20 -0.00    +0.000 HD
DOCKED: BRANCH  23  25
DOCKED: ATOM     25  O   UNL     1      19.530 -19.736  -1.848 -1.68 -0.00    +0.000 OA
DOCKED: ATOM     26  H   UNL     1      19.073 -18.977  -1.453 -0.57 -0.00    +0.000 HD
DOCKED: ENDBRANCH  23  25
DOCKED: ENDBRANCH  20  22
DOCKED: ENDBRANCH  19  20
DOCKED: ENDBRANCH  18  19
DOCKED: ENDBRANCH  17  18
DOCKED: ENDBRANCH  16  17
DOCKED: ENDBRANCH   1  16
DOCKED: TORSDOF 7
DOCKED: TER
DOCKED: ENDMDL
________________________________________________________________________________


	BEGINNING GENETIC ALGORITHM DOCKING 99 of 100
Run: 99 Seed: 339619298 59542336 [ Run 99 of 100 GA/GALS ]
Beginning LAMARCKIAN GENETIC ALGORITHM (LGA), with a maximum of 2500000 energy evaluations.

Final-Value: -13.744


	FINAL GENETIC ALGORITHM DOCKED STATE
	_______________________________________________


Detailed state:  trans 28.036 -14.826 -2.291 quatxyzw 0.059139 0.832984 -0.054650 -0.547407 center 0.154 0.112 -0.159 ntor 7 13.5130 -163.3878 152.1933 65.4547 38.0626 -8.3315 176.3954
State:	 28.036 -14.826  -2.291   0.071  0.995 -0.065 -113.621     13.51 -163.39  152.19   65.45   38.06   -8.33  176.40

DOCKED: MODEL       99
DOCKED: USER    Run = 99
DOCKED: USER    DPF = ligand_dock.biased.dpf
DOCKED: USER  
DOCKED: USER    Estimated Free Energy of Binding    =  -10.35 kcal/mol  [=(1)+(2)+(3)-(4)]
DOCKED: USER    Estimated Inhibition Constant, Ki   =   25.72 nM (nanomolar)  [Temperature = 298.15 K]
DOCKED: USER    
DOCKED: USER    (1) Final Intermolecular Energy     =  -12.44 kcal/mol
DOCKED: USER        vdW + Hbond + desolv Energy     =  -12.44 kcal/mol
DOCKED: USER        Electrostatic Energy            =   +0.00 kcal/mol
DOCKED: USER    (2) Final Total Internal Energy     =   -1.30 kcal/mol
DOCKED: USER    (3) Torsional Free Energy           =   +2.09 kcal/mol
DOCKED: USER    (4) Unbound System's Energy  [=(2)] =   -1.30 kcal/mol
DOCKED: USER    
DOCKED: USER    
DOCKED: USER    NEWDPF move ligand.pdbqt
DOCKED: USER    NEWDPF about 0.154000 0.112000 -0.159000
DOCKED: USER    NEWDPF tran0 28.036246 -14.825946 -2.290767
DOCKED: USER    NEWDPF quaternion0 0.059139 0.832984 -0.054650 -0.547407
DOCKED: USER    NEWDPF axisangle0 0.070668 0.995360 -0.065304 -113.621421
DOCKED: USER    NEWDPF quat0 0.070668 0.995360 -0.065304 -113.621421
DOCKED: USER    NEWDPF dihe0 13.51 -163.39 152.19 65.45 38.06 -8.33 176.40 
DOCKED: USER  keepresnum = 1 
DOCKED: USER  
DOCKED: REMARK  Name = 
DOCKED: REMARK  7 active torsions:
DOCKED: REMARK  status: ('A' for Active; 'I' for Inactive)
DOCKED: REMARK    1  A    between atoms: C_2  and  C_5
DOCKED: REMARK    2  A    between atoms: N_3  and  O_4
DOCKED: REMARK    3  A    between atoms: C_5  and  C_6
DOCKED: REMARK    4  A    between atoms: C_6  and  C_7
DOCKED: REMARK    5  A    between atoms: C_7  and  C_8
DOCKED: REMARK    6  A    between atoms: C_8  and  C_9
DOCKED: REMARK    7  A    between atoms: C_9  and  N_10
DOCKED: REMARK                            x       y       z     vdW  Elec       q    Type
DOCKED: REMARK                         _______ _______ _______ _____ _____    ______ ____
DOCKED: USER                              x       y       z     vdW  Elec       q    Type
DOCKED: USER                           _______ _______ _______ _____ _____    ______ ____
DOCKED: ROOT
DOCKED: ATOM      1  N   UNL     1      27.179 -15.542  -1.292 -0.28 -0.00    +0.000 N 
DOCKED: ATOM      2  C   UNL     1      26.885 -14.489  -0.353 -0.31 -0.00    +0.000 C 
DOCKED: ATOM      3  C   UNL     1      27.862 -14.143   0.703 -0.22 -0.00    +0.000 A 
DOCKED: ATOM      4  C   UNL     1      27.596 -13.100   1.609 -0.23 -0.00    +0.000 A 
DOCKED: ATOM      5  C   UNL     1      28.518 -12.772   2.603 -0.18 -0.00    +0.000 A 
DOCKED: ATOM      6  C   UNL     1      29.718 -13.475   2.710 -0.15 -0.00    +0.000 A 
DOCKED: ATOM      7  C   UNL     1      30.006 -14.519   1.821 -0.11 -0.00    +0.000 A 
DOCKED: ATOM      8  C   UNL     1      31.211 -15.227   1.930 -0.13 -0.00    +0.000 A 
DOCKED: ATOM      9  C   UNL     1      31.498 -16.266   1.045 -0.12 -0.00    +0.000 A 
DOCKED: ATOM     10  C   UNL     1      30.587 -16.610   0.044 -0.13 -0.00    +0.000 A 
DOCKED: ATOM     11  C   UNL     1      29.372 -15.915  -0.086 -0.15 -0.00    +0.000 A 
DOCKED: ATOM     12  C   UNL     1      29.074 -14.860   0.806 -0.15 -0.00    +0.000 A 
DOCKED: ATOM     13  O   UNL     1      25.791 -13.863  -0.428 -0.35 -0.00    +0.000 OA
DOCKED: ATOM     14  C   UNL     1      28.408 -16.281  -1.149 -0.31 -0.00    +0.000 C 
DOCKED: ATOM     15  O   UNL     1      28.667 -17.239  -1.927 -0.33 -0.00    +0.000 OA
DOCKED: ENDROOT
DOCKED: BRANCH   1  16
DOCKED: ATOM     16  C   UNL     1      26.247 -15.827  -2.398 -0.48 -0.00    +0.000 C 
DOCKED: BRANCH  16  17
DOCKED: ATOM     17  C   UNL     1      25.486 -17.146  -2.168 -0.53 -0.00    +0.000 C 
DOCKED: BRANCH  17  18
DOCKED: ATOM     18  C   UNL     1      24.727 -17.211  -0.830 -0.67 -0.00    +0.000 C 
DOCKED: BRANCH  18  19
DOCKED: ATOM     19  C   UNL     1      23.192 -17.095  -0.951 -0.66 -0.00    +0.000 C 
DOCKED: BRANCH  19  20
DOCKED: ATOM     20  C   UNL     1      22.409 -18.163  -0.172 -0.81 -0.00    +0.000 C 
DOCKED: BRANCH  20  22
DOCKED: ATOM     21  O   UNL     1      20.095 -17.890  -0.706 -2.06 -0.00    +0.000 OA
DOCKED: ATOM     22  C   UNL     1      21.146 -18.564  -0.878 -0.82 -0.00    +0.000 C 
DOCKED: ATOM     23  N   UNL     1      21.122 -19.722  -1.716 -0.64 -0.00    +0.000 N 
DOCKED: ATOM     24  H   UNL     1      21.943 -20.251  -1.842 -0.45 -0.00    +0.000 HD
DOCKED: BRANCH  23  25
DOCKED: ATOM     25  O   UNL     1      19.978 -20.098  -2.337 -1.75 -0.00    +0.000 OA
DOCKED: ATOM     26  H   UNL     1      19.332 -19.376  -2.291 -0.44 -0.00    +0.000 HD
DOCKED: ENDBRANCH  23  25
DOCKED: ENDBRANCH  20  22
DOCKED: ENDBRANCH  19  20
DOCKED: ENDBRANCH  18  19
DOCKED: ENDBRANCH  17  18
DOCKED: ENDBRANCH  16  17
DOCKED: ENDBRANCH   1  16
DOCKED: TORSDOF 7
DOCKED: TER
DOCKED: ENDMDL
________________________________________________________________________________


	BEGINNING GENETIC ALGORITHM DOCKING 100 of 100
Run: 100 Seed: 1175750284 239126336 [ Run 100 of 100 GA/GALS ]
Beginning LAMARCKIAN GENETIC ALGORITHM (LGA), with a maximum of 2500000 energy evaluations.

Final-Value: -14.089


	FINAL GENETIC ALGORITHM DOCKED STATE
	_______________________________________________


Detailed state:  trans 27.589 -14.511 -2.925 quatxyzw 0.358625 0.841108 0.390151 0.108206 center 0.154 0.112 -0.159 ntor 7 -11.1772 -105.5162 -133.7948 -168.8859 160.7300 133.4982 -141.2489
State:	 27.589 -14.511  -2.925   0.361  0.846  0.392 167.576    -11.18 -105.52 -133.79 -168.89  160.73  133.50 -141.25

DOCKED: MODEL      100
DOCKED: USER    Run = 100
DOCKED: USER    DPF = ligand_dock.biased.dpf
DOCKED: USER  
DOCKED: USER    Estimated Free Energy of Binding    =  -10.89 kcal/mol  [=(1)+(2)+(3)-(4)]
DOCKED: USER    Estimated Inhibition Constant, Ki   =   10.47 nM (nanomolar)  [Temperature = 298.15 K]
DOCKED: USER    
DOCKED: USER    (1) Final Intermolecular Energy     =  -12.97 kcal/mol
DOCKED: USER        vdW + Hbond + desolv Energy     =  -12.97 kcal/mol
DOCKED: USER        Electrostatic Energy            =   +0.00 kcal/mol
DOCKED: USER    (2) Final Total Internal Energy     =   -1.11 kcal/mol
DOCKED: USER    (3) Torsional Free Energy           =   +2.09 kcal/mol
DOCKED: USER    (4) Unbound System's Energy  [=(2)] =   -1.11 kcal/mol
DOCKED: USER    
DOCKED: USER    
DOCKED: USER    NEWDPF move ligand.pdbqt
DOCKED: USER    NEWDPF about 0.154000 0.112000 -0.159000
DOCKED: USER    NEWDPF tran0 27.588525 -14.510995 -2.924770
DOCKED: USER    NEWDPF quaternion0 0.358625 0.841108 0.390151 0.108206
DOCKED: USER    NEWDPF axisangle0 0.360743 0.846075 0.392455 167.576236
DOCKED: USER    NEWDPF quat0 0.360743 0.846075 0.392455 167.576236
DOCKED: USER    NEWDPF dihe0 -11.18 -105.52 -133.79 -168.89 160.73 133.50 -141.25 
DOCKED: USER  keepresnum = 1 
DOCKED: USER  
DOCKED: REMARK  Name = 
DOCKED: REMARK  7 active torsions:
DOCKED: REMARK  status: ('A' for Active; 'I' for Inactive)
DOCKED: REMARK    1  A    between atoms: C_2  and  C_5
DOCKED: REMARK    2  A    between atoms: N_3  and  O_4
DOCKED: REMARK    3  A    between atoms: C_5  and  C_6
DOCKED: REMARK    4  A    between atoms: C_6  and  C_7
DOCKED: REMARK    5  A    between atoms: C_7  and  C_8
DOCKED: REMARK    6  A    between atoms: C_8  and  C_9
DOCKED: REMARK    7  A    between atoms: C_9  and  N_10
DOCKED: REMARK                            x       y       z     vdW  Elec       q    Type
DOCKED: REMARK                         _______ _______ _______ _____ _____    ______ ____
DOCKED: USER                              x       y       z     vdW  Elec       q    Type
DOCKED: USER                           _______ _______ _______ _____ _____    ______ ____
DOCKED: ROOT
DOCKED: ATOM      1  N   UNL     1      27.324 -15.984  -2.996 -0.33 -0.00    +0.000 N 
DOCKED: ATOM      2  C   UNL     1      28.419 -16.514  -2.224 -0.30 -0.00    +0.000 C 
DOCKED: ATOM      3  C   UNL     1      29.748 -16.701  -2.850 -0.19 -0.00    +0.000 A 
DOCKED: ATOM      4  C   UNL     1      30.829 -17.193  -2.098 -0.14 -0.00    +0.000 A 
DOCKED: ATOM      5  C   UNL     1      32.082 -17.367  -2.689 -0.07 -0.00    +0.000 A 
DOCKED: ATOM      6  C   UNL     1      32.276 -17.053  -4.033 -0.05 -0.00    +0.000 A 
DOCKED: ATOM      7  C   UNL     1      31.214 -16.561  -4.804 -0.13 -0.00    +0.000 A 
DOCKED: ATOM      8  C   UNL     1      31.409 -16.248  -6.156 -0.16 -0.00    +0.000 A 
DOCKED: ATOM      9  C   UNL     1      30.352 -15.759  -6.923 -0.28 -0.00    +0.000 A 
DOCKED: ATOM     10  C   UNL     1      29.091 -15.580  -6.351 -0.27 -0.00    +0.000 A 
DOCKED: ATOM     11  C   UNL     1      28.870 -15.887  -4.997 -0.30 -0.00    +0.000 A 
DOCKED: ATOM     12  C   UNL     1      29.936 -16.381  -4.213 -0.21 -0.00    +0.000 A 
DOCKED: ATOM     13  O   UNL     1      28.247 -16.823  -1.012 -0.37 -0.00    +0.000 OA
DOCKED: ATOM     14  C   UNL     1      27.532 -15.694  -4.393 -0.27 -0.00    +0.000 C 
DOCKED: ATOM     15  O   UNL     1      26.577 -15.277  -5.103 -0.98 -0.00    +0.000 OA
DOCKED: ENDROOT
DOCKED: BRANCH   1  16
DOCKED: ATOM     16  C   UNL     1      26.027 -15.714  -2.350 -0.49 -0.00    +0.000 C 
DOCKED: BRANCH  16  17
DOCKED: ATOM     17  C   UNL     1      25.362 -17.012  -1.858 -0.61 -0.00    +0.000 C 
DOCKED: BRANCH  17  18
DOCKED: ATOM     18  C   UNL     1      23.857 -16.876  -1.561 -0.46 -0.00    +0.000 C 
DOCKED: BRANCH  18  19
DOCKED: ATOM     19  C   UNL     1      23.417 -17.424  -0.187 -0.53 -0.00    +0.000 C 
DOCKED: BRANCH  19  20
DOCKED: ATOM     20  C   UNL     1      22.721 -18.794  -0.240 -0.76 -0.00    +0.000 C 
DOCKED: BRANCH  20  22
DOCKED: ATOM     21  O   UNL     1      20.692 -17.630  -0.728 -2.17 -0.00    +0.000 OA
DOCKED: ATOM     22  C   UNL     1      21.344 -18.704  -0.829 -0.85 -0.00    +0.000 C 
DOCKED: ATOM     23  N   UNL     1      20.756 -19.838  -1.471 -0.72 -0.00    +0.000 N 
DOCKED: ATOM     24  H   UNL     1      21.264 -20.678  -1.541 -0.18 -0.00    +0.000 HD
DOCKED: BRANCH  23  25
DOCKED: ATOM     25  O   UNL     1      19.504 -19.766  -1.985 -1.58 -0.00    +0.000 OA
DOCKED: ATOM     26  H   UNL     1      19.078 -18.948  -1.685 -0.56 -0.00    +0.000 HD
DOCKED: ENDBRANCH  23  25
DOCKED: ENDBRANCH  20  22
DOCKED: ENDBRANCH  19  20
DOCKED: ENDBRANCH  18  19
DOCKED: ENDBRANCH  17  18
DOCKED: ENDBRANCH  16  17
DOCKED: ENDBRANCH   1  16
DOCKED: TORSDOF 7
DOCKED: TER
DOCKED: ENDMDL
________________________________________________________________________________

DPF>                           # do this many hybrid GA-LS runs

DPF> analysis                             # perform a ranked cluster analysis


		CLUSTER ANALYSIS OF CONFORMATIONS
		_________________________________

Number of conformations = 100

RMSD cluster analysis will be performed using the ligand atoms only (26 / 26 total atoms).

Outputting structurally similar clusters, ranked in order of increasing energy.


________________________________________________________________________________

Number of distinct conformational clusters found = 7,  out of 100 runs,
Using an rmsd-tolerance of 2.0 A


	CLUSTERING HISTOGRAM
	____________________

________________________________________________________________________________
     |           |     |           |     |                                    
Clus | Lowest    | Run | Mean      | Num | Histogram                          
-ter | Binding   |     | Binding   | in  |                                    
Rank | Energy    |     | Energy    | Clus|    5    10   15   20   25   30   35
_____|___________|_____|___________|_____|____:____|____:____|____:____|____:___
   1 |    -11.86 |  18 |    -11.10 |  54 |######################################################
   2 |    -11.56 |  60 |    -10.80 |  30 |##############################
   3 |    -10.91 |  15 |    -10.39 |   5 |#####
   4 |    -10.50 |  98 |     -9.77 |   4 |####
   5 |    -10.36 |   8 |    -10.22 |   4 |####
   6 |     -7.43 |  17 |     -7.36 |   2 |##
   7 |     -6.95 |  63 |     -6.95 |   1 |#
_____|___________|_____|___________|_____|______________________________________


Number of multi-member conformational clusters found = 6, out of 100 runs.

	RMSD TABLE
	__________

_____________________________________________________________________
     |      |      |           |         |                 |
Rank | Sub- | Run  | Binding   | Cluster | Reference       | Grep
     | Rank |      | Energy    | RMSD    | RMSD            | Pattern
_____|______|______|___________|_________|_________________|___________
   1      1     18      -11.86      0.00     30.32           RANKING
   1      2     48      -11.76      0.38     30.32           RANKING
   1      3     81      -11.70      0.65     30.12           RANKING
   1      4     58      -11.66      1.36     29.77           RANKING
   1      5     70      -11.65      1.37     29.57           RANKING
   1      6     37      -11.55      0.88     30.26           RANKING
   1      7     47      -11.55      1.69     29.36           RANKING
   1      8     35      -11.54      0.70     30.12           RANKING
   1      9     61      -11.53      0.85     30.17           RANKING
   1     10     45      -11.50      1.63     29.32           RANKING
   1     11     94      -11.47      0.80     30.52           RANKING
   1     12     75      -11.44      1.33     29.79           RANKING
   1     13     93      -11.37      1.00     30.13           RANKING
   1     14     86      -11.36      1.02     30.22           RANKING
   1     15     77      -11.35      1.02     30.29           RANKING
   1     16     38      -11.31      1.35     29.97           RANKING
   1     17     62      -11.30      0.64     30.05           RANKING
   1     18     90      -11.29      1.06     30.14           RANKING
   1     19     78      -11.26      1.57     29.52           RANKING
   1     20     95      -11.26      1.18     29.86           RANKING
   1     21     10      -11.25      1.10     30.26           RANKING
   1     22     87      -11.15      1.33     29.81           RANKING
   1     23     53      -11.14      1.11     30.05           RANKING
   1     24     52      -11.13      0.90     30.23           RANKING
   1     25     74      -11.11      1.13     30.51           RANKING
   1     26     27      -11.11      0.91     30.41           RANKING
   1     27     79      -11.09      0.89     30.06           RANKING
   1     28     21      -11.08      1.23     29.87           RANKING
   1     29     33      -11.08      0.89     30.24           RANKING
   1     30     28      -11.07      1.06     30.07           RANKING
   1     31      1      -11.00      1.20     30.18           RANKING
   1     32     43      -10.98      1.21     29.95           RANKING
   1     33     97      -10.96      1.20     30.07           RANKING
   1     34     25      -10.95      0.73     30.43           RANKING
   1     35      2      -10.94      1.21     29.90           RANKING
   1     36     39      -10.92      1.55     29.59           RANKING
   1     37     65      -10.91      1.12     30.12           RANKING
   1     38     57      -10.91      1.17     30.21           RANKING
   1     39     72      -10.89      1.75     29.58           RANKING
   1     40    100      -10.89      0.84     30.80           RANKING
   1     41     91      -10.86      1.56     29.67           RANKING
   1     42     26      -10.83      1.18     30.29           RANKING
   1     43     30      -10.80      1.89     29.54           RANKING
   1     44     12      -10.79      1.41     30.49           RANKING
   1     45     82      -10.70      1.44     29.93           RANKING
   1     46     64      -10.69      1.58     29.68           RANKING
   1     47     22      -10.68      1.49     30.15           RANKING
   1     48     31      -10.67      1.41     30.16           RANKING
   1     49      6      -10.66      1.15     30.19           RANKING
   1     50     51      -10.56      1.50     30.04           RANKING
   1     51     83      -10.55      1.68     29.80           RANKING
   1     52     34      -10.43      1.65     29.40           RANKING
   1     53     96      -10.39      1.52     30.29           RANKING
   1     54     32      -10.33      1.72     30.10           RANKING
   2      1     60      -11.56      0.00     28.56           RANKING
   2      2     56      -11.36      1.17     28.51           RANKING
   2      3     67      -11.27      1.58     29.02           RANKING
   2      4     16      -11.26      1.64     29.12           RANKING
   2      5      4      -11.25      1.66     28.48           RANKING
   2      6     54      -11.20      0.59     28.71           RANKING
   2      7      9      -11.13      1.82     28.33           RANKING
   2      8     20      -11.12      1.57     28.72           RANKING
   2      9     59      -11.09      1.75     28.72           RANKING
   2     10     11      -11.03      1.65     28.40           RANKING
   2     11     80      -10.96      1.67     28.91           RANKING
   2     12     69      -10.93      0.58     28.40           RANKING
   2     13     49      -10.82      1.76     28.34           RANKING
   2     14     29      -10.80      1.66     29.18           RANKING
   2     15     44      -10.77      1.80     28.34           RANKING
   2     16     55      -10.74      1.97     28.50           RANKING
   2     17     84      -10.71      1.57     29.27           RANKING
   2     18     85      -10.68      1.73     28.70           RANKING
   2     19     13      -10.66      1.67     28.77           RANKING
   2     20     36      -10.62      1.94     28.26           RANKING
   2     21     19      -10.61      1.86     28.38           RANKING
   2     22     73      -10.58      0.81     28.63           RANKING
   2     23     23      -10.57      1.49     28.19           RANKING
   2     24     50      -10.50      0.69     28.43           RANKING
   2     25      7      -10.44      1.48     29.29           RANKING
   2     26     66      -10.37      1.72     28.98           RANKING
   2     27     88      -10.37      1.58     28.31           RANKING
   2     28     42      -10.34      1.16     28.85           RANKING
   2     29      3      -10.23      1.27     28.89           RANKING
   2     30     68       -9.95      1.88     29.50           RANKING
   3      1     15      -10.91      0.00     28.33           RANKING
   3      2     46      -10.59      0.58     28.44           RANKING
   3      3     99      -10.35      1.99     29.80           RANKING
   3      4      5      -10.29      1.78     29.52           RANKING
   3      5     76       -9.84      1.82     29.39           RANKING
   4      1     98      -10.50      0.00     29.71           RANKING
   4      2     24       -9.74      0.71     29.80           RANKING
   4      3     41       -9.45      1.65     29.28           RANKING
   4      4     92       -9.38      1.89     29.73           RANKING
   5      1      8      -10.36      0.00     28.30           RANKING
   5      2     71      -10.35      1.16     28.68           RANKING
   5      3     14      -10.29      0.99     28.38           RANKING
   5      4     89       -9.89      1.22     28.28           RANKING
   6      1     17       -7.43      0.00     29.47           RANKING
   6      2     40       -7.29      1.25     28.93           RANKING
   7      1     63       -6.95      0.00     29.82           RANKING
_______________________________________________________________________



	INFORMATION ENTROPY ANALYSIS FOR THIS CLUSTERING
	________________________________________________


Information entropy for this clustering = 0.27  (rmstol = 2.00 Angstrom)

_______________________________________________________________________


	STATISTICAL MECHANICAL ANALYSIS
	_______________________________


Partition function, Q =   101.83            at Temperature, T = 298.15 K
Free energy,        A ~ -2739.24 kcal/mol   at Temperature, T = 298.15 K
Internal energy,    U =   -10.77 kcal/mol   at Temperature, T = 298.15 K
Entropy,            S =     9.15 kcal/mol/K at Temperature, T = 298.15 K

_______________________________________________________________________


	LOWEST ENERGY DOCKED CONFORMATION from EACH CLUSTER
	___________________________________________________



Keeping original residue number (specified in the input PDBQ file) for outputting.

MODEL       18
USER    Run = 18
USER    Cluster Rank = 1
USER    Number of conformations in this cluster = 54
USER  
USER    RMSD from reference structure       = 30.318 A
USER  
USER    Estimated Free Energy of Binding    =  -11.86 kcal/mol  [=(1)+(2)+(3)-(4)]
USER    Estimated Inhibition Constant, Ki   =    2.03 nM (nanomolar)  [Temperature = 298.15 K]
USER    
USER    (1) Final Intermolecular Energy     =  -13.95 kcal/mol
USER        vdW + Hbond + desolv Energy     =  -13.95 kcal/mol
USER        Electrostatic Energy            =   +0.00 kcal/mol
USER    (2) Final Total Internal Energy     =   -1.36 kcal/mol
USER    (3) Torsional Free Energy           =   +2.09 kcal/mol
USER    (4) Unbound System's Energy  [=(2)] =   -1.36 kcal/mol
USER    
USER    
USER  
USER    DPF = ligand_dock.biased.dpf
USER    NEWDPF move	ligand.pdbqt
USER    NEWDPF about	0.154000 0.112000 -0.159000
USER    NEWDPF tran0	26.290509 -17.278236 -2.514054
USER    NEWDPF axisangle0	0.224653 -0.543963 0.808477 -178.861736
USER    NEWDPF quaternion0	0.224642 -0.543937 0.808437 -0.009933
USER    NEWDPF dihe0	-10.65 126.10 59.53 -100.10 75.96 11.98 9.74 
USER  
USER                              x       y       z    vdW   Elec        q     RMS 
ATOM      1  N   UNL     1      26.689 -15.849  -2.306 -0.36 -0.00    +0.000    30.318
ATOM      2  C   UNL     1      26.789 -15.375  -3.663 -0.45 -0.00    +0.000    30.318
ATOM      3  C   UNL     1      28.020 -15.626  -4.449 -0.31 -0.00    +0.000    30.318
ATOM      4  C   UNL     1      28.117 -15.189  -5.782 -0.35 -0.00    +0.000    30.318
ATOM      5  C   UNL     1      29.276 -15.428  -6.522 -0.27 -0.00    +0.000    30.318
ATOM      6  C   UNL     1      30.352 -16.104  -5.948 -0.26 -0.00    +0.000    30.318
ATOM      7  C   UNL     1      30.279 -16.548  -4.621 -0.21 -0.00    +0.000    30.318
ATOM      8  C   UNL     1      31.361 -17.226  -4.043 -0.12 -0.00    +0.000    30.318
ATOM      9  C   UNL     1      31.289 -17.668  -2.722 -0.12 -0.00    +0.000    30.318
ATOM     10  C   UNL     1      30.140 -17.437  -1.965 -0.19 -0.00    +0.000    30.318
ATOM     11  C   UNL     1      29.041 -16.760  -2.522 -0.22 -0.00    +0.000    30.318
ATOM     12  C   UNL     1      29.105 -16.310  -3.859 -0.23 -0.00    +0.000    30.318
ATOM     13  O   UNL     1      25.830 -14.741  -4.184 -0.65 -0.00    +0.000    30.318
ATOM     14  C   UNL     1      27.821 -16.518  -1.716 -0.36 -0.00    +0.000    30.318
ATOM     15  O   UNL     1      27.778 -16.898  -0.515 -0.43 -0.00    +0.000    30.318
ATOM     16  C   UNL     1      25.433 -15.678  -1.555 -0.48 -0.00    +0.000    30.318
ATOM     17  C   UNL     1      24.451 -16.830  -1.829 -0.60 -0.00    +0.000    30.318
ATOM     18  C   UNL     1      24.806 -18.147  -1.113 -0.70 -0.00    +0.000    30.318
ATOM     19  C   UNL     1      23.592 -18.976  -0.642 -0.76 -0.00    +0.000    30.318
ATOM     20  C   UNL     1      22.385 -18.137  -0.192 -0.81 -0.00    +0.000    30.318
ATOM     21  O   UNL     1      20.234 -17.595  -1.080 -2.03 -0.00    +0.000    30.318
ATOM     22  C   UNL     1      21.151 -18.454  -0.987 -0.76 -0.00    +0.000    30.318
ATOM     23  N   UNL     1      20.998 -19.732  -1.608 -0.72 -0.00    +0.000    30.318
ATOM     24  H   UNL     1      21.714 -20.404  -1.526 -0.32 -0.00    +0.000    30.318
ATOM     25  O   UNL     1      19.877 -20.027  -2.308 -1.76 -0.00    +0.000    30.318
ATOM     26  H   UNL     1      19.210 -19.340  -2.156 -0.47 -0.00    +0.000    30.318
TER
ENDMDL
MODEL       60
USER    Run = 60
USER    Cluster Rank = 2
USER    Number of conformations in this cluster = 30
USER  
USER    RMSD from reference structure       = 28.563 A
USER  
USER    Estimated Free Energy of Binding    =  -11.56 kcal/mol  [=(1)+(2)+(3)-(4)]
USER    Estimated Inhibition Constant, Ki   =    3.34 nM (nanomolar)  [Temperature = 298.15 K]
USER    
USER    (1) Final Intermolecular Energy     =  -13.65 kcal/mol
USER        vdW + Hbond + desolv Energy     =  -13.65 kcal/mol
USER        Electrostatic Energy            =   +0.00 kcal/mol
USER    (2) Final Total Internal Energy     =   -1.23 kcal/mol
USER    (3) Torsional Free Energy           =   +2.09 kcal/mol
USER    (4) Unbound System's Energy  [=(2)] =   -1.23 kcal/mol
USER    
USER    
USER  
USER    DPF = ligand_dock.biased.dpf
USER    NEWDPF move	ligand.pdbqt
USER    NEWDPF about	0.154000 0.112000 -0.159000
USER    NEWDPF tran0	25.589354 -14.337977 -2.082685
USER    NEWDPF axisangle0	-0.004144 0.736611 0.676304 117.619127
USER    NEWDPF quaternion0	-0.003545 0.630135 0.578544 0.517884
USER    NEWDPF dihe0	-3.03 166.09 95.44 -172.28 -117.27 131.59 -10.17 
USER  
USER                              x       y       z    vdW   Elec        q     RMS 
ATOM      1  N   UNL     1      26.049 -15.027  -3.331 -0.45 -0.00    +0.000    28.563
ATOM      2  C   UNL     1      27.479 -14.862  -3.245 -0.30 -0.00    +0.000    28.563
ATOM      3  C   UNL     1      28.108 -13.596  -3.686 -0.15 -0.00    +0.000    28.563
ATOM      4  C   UNL     1      29.498 -13.416  -3.582 -0.06 -0.00    +0.000    28.563
ATOM      5  C   UNL     1      30.091 -12.222  -3.996 -0.03 -0.00    +0.000    28.563
ATOM      6  C   UNL     1      29.309 -11.192  -4.518 -0.04 -0.00    +0.000    28.563
ATOM      7  C   UNL     1      27.921 -11.348  -4.632 -0.10 -0.00    +0.000    28.563
ATOM      8  C   UNL     1      27.136 -10.313  -5.159 -0.11 -0.00    +0.000    28.563
ATOM      9  C   UNL     1      25.754 -10.468  -5.273 -0.25 -0.00    +0.000    28.563
ATOM     10  C   UNL     1      25.144 -11.655  -4.866 -0.33 -0.00    +0.000    28.563
ATOM     11  C   UNL     1      25.909 -12.708  -4.335 -0.32 -0.00    +0.000    28.563
ATOM     12  C   UNL     1      27.309 -12.558  -4.214 -0.19 -0.00    +0.000    28.563
ATOM     13  O   UNL     1      28.197 -15.797  -2.796 -0.27 -0.00    +0.000    28.563
ATOM     14  C   UNL     1      25.258 -13.966  -3.902 -0.49 -0.00    +0.000    28.563
ATOM     15  O   UNL     1      24.012 -14.105  -4.035 -0.94 -0.00    +0.000    28.563
ATOM     16  C   UNL     1      25.414 -16.250  -2.810 -0.51 -0.00    +0.000    28.563
ATOM     17  C   UNL     1      25.562 -16.354  -1.281 -0.56 -0.00    +0.000    28.563
ATOM     18  C   UNL     1      25.263 -17.754  -0.712 -0.69 -0.00    +0.000    28.563
ATOM     19  C   UNL     1      23.953 -18.393  -1.220 -0.78 -0.00    +0.000    28.563
ATOM     20  C   UNL     1      22.813 -18.414  -0.188 -0.80 -0.00    +0.000    28.563
ATOM     21  O   UNL     1      20.638 -17.579  -0.719 -2.15 +0.00    +0.000    28.563
ATOM     22  C   UNL     1      21.465 -18.523  -0.839 -0.83 -0.00    +0.000    28.563
ATOM     23  N   UNL     1      21.103 -19.702  -1.562 -0.69 -0.00    +0.000    28.563
ATOM     24  H   UNL     1      21.748 -20.440  -1.647 -0.35 -0.00    +0.000    28.563
ATOM     25  O   UNL     1      19.879 -19.810  -2.132 -1.87 -0.00    +0.000    28.563
ATOM     26  H   UNL     1      19.351 -19.025  -1.918 -0.40 -0.00    +0.000    28.563
TER
ENDMDL
MODEL       15
USER    Run = 15
USER    Cluster Rank = 3
USER    Number of conformations in this cluster = 5
USER  
USER    RMSD from reference structure       = 28.332 A
USER  
USER    Estimated Free Energy of Binding    =  -10.91 kcal/mol  [=(1)+(2)+(3)-(4)]
USER    Estimated Inhibition Constant, Ki   =   10.12 nM (nanomolar)  [Temperature = 298.15 K]
USER    
USER    (1) Final Intermolecular Energy     =  -13.00 kcal/mol
USER        vdW + Hbond + desolv Energy     =  -13.00 kcal/mol
USER        Electrostatic Energy            =   +0.00 kcal/mol
USER    (2) Final Total Internal Energy     =   -1.32 kcal/mol
USER    (3) Torsional Free Energy           =   +2.09 kcal/mol
USER    (4) Unbound System's Energy  [=(2)] =   -1.32 kcal/mol
USER    
USER    
USER  
USER    DPF = ligand_dock.biased.dpf
USER    NEWDPF move	ligand.pdbqt
USER    NEWDPF about	0.154000 0.112000 -0.159000
USER    NEWDPF tran0	25.573715 -14.549988 -0.995755
USER    NEWDPF axisangle0	-0.515117 0.586207 0.625313 177.830756
USER    NEWDPF quaternion0	-0.515024 0.586102 0.625201 0.018929
USER    NEWDPF dihe0	-3.37 -180.00 62.22 132.30 159.81 -125.19 19.91 
USER  
USER                              x       y       z    vdW   Elec        q     RMS 
ATOM      1  N   UNL     1      27.068 -14.653  -1.042 -0.25 -0.00    +0.000    28.332
ATOM      2  C   UNL     1      27.371 -15.084   0.300 -0.31 -0.00    +0.000    28.332
ATOM      3  C   UNL     1      27.452 -14.093   1.397 -0.26 -0.00    +0.000    28.332
ATOM      4  C   UNL     1      27.722 -14.506   2.714 -0.20 -0.00    +0.000    28.332
ATOM      5  C   UNL     1      27.796 -13.572   3.748 -0.41 -0.00    +0.000    28.332
ATOM      6  C   UNL     1      27.602 -12.216   3.488 -0.26 +0.00    +0.000    28.332
ATOM      7  C   UNL     1      27.333 -11.779   2.184 -0.24 +0.00    +0.000    28.332
ATOM      8  C   UNL     1      27.140 -10.416   1.922 -0.24 +0.00    +0.000    28.332
ATOM      9  C   UNL     1      26.872  -9.981   0.624 -0.21 +0.00    +0.000    28.332
ATOM     10  C   UNL     1      26.795 -10.900  -0.424 -0.09 +0.00    +0.000    28.332
ATOM     11  C   UNL     1      26.984 -12.272  -0.187 -0.16 -0.00    +0.000    28.332
ATOM     12  C   UNL     1      27.255 -12.721   1.125 -0.23 -0.00    +0.000    28.332
ATOM     13  O   UNL     1      27.571 -16.306   0.541 -0.36 -0.00    +0.000    28.332
ATOM     14  C   UNL     1      26.901 -13.245  -1.301 -0.17 -0.00    +0.000    28.332
ATOM     15  O   UNL     1      26.685 -12.837  -2.475 -0.21 -0.00    +0.000    28.332
ATOM     16  C   UNL     1      26.899 -15.647  -2.116 -0.38 -0.00    +0.000    28.332
ATOM     17  C   UNL     1      25.416 -15.997  -2.333 -0.55 -0.00    +0.000    28.332
ATOM     18  C   UNL     1      24.729 -16.624  -1.105 -0.61 -0.00    +0.000    28.332
ATOM     19  C   UNL     1      23.926 -17.909  -1.399 -0.76 -0.00    +0.000    28.332
ATOM     20  C   UNL     1      22.901 -18.281  -0.315 -0.83 -0.00    +0.000    28.332
ATOM     21  O   UNL     1      20.679 -17.497  -0.713 -2.09 +0.00    +0.000    28.332
ATOM     22  C   UNL     1      21.516 -18.426  -0.875 -0.81 -0.00    +0.000    28.332
ATOM     23  N   UNL     1      21.132 -19.621  -1.559 -0.70 -0.00    +0.000    28.332
ATOM     24  H   UNL     1      21.786 -20.348  -1.677 -0.39 -0.00    +0.000    28.332
ATOM     25  O   UNL     1      19.876 -19.762  -2.047 -1.88 -0.00    +0.000    28.332
ATOM     26  H   UNL     1      19.346 -18.987  -1.803 -0.43 -0.00    +0.000    28.332
TER
ENDMDL
MODEL       98
USER    Run = 98
USER    Cluster Rank = 4
USER    Number of conformations in this cluster = 4
USER  
USER    RMSD from reference structure       = 29.710 A
USER  
USER    Estimated Free Energy of Binding    =  -10.50 kcal/mol  [=(1)+(2)+(3)-(4)]
USER    Estimated Inhibition Constant, Ki   =   20.11 nM (nanomolar)  [Temperature = 298.15 K]
USER    
USER    (1) Final Intermolecular Energy     =  -12.59 kcal/mol
USER        vdW + Hbond + desolv Energy     =  -12.59 kcal/mol
USER        Electrostatic Energy            =   +0.00 kcal/mol
USER    (2) Final Total Internal Energy     =   -1.29 kcal/mol
USER    (3) Torsional Free Energy           =   +2.09 kcal/mol
USER    (4) Unbound System's Energy  [=(2)] =   -1.29 kcal/mol
USER    
USER    
USER  
USER    DPF = ligand_dock.biased.dpf
USER    NEWDPF move	ligand.pdbqt
USER    NEWDPF about	0.154000 0.112000 -0.159000
USER    NEWDPF tran0	26.294814 -16.271903 -0.525247
USER    NEWDPF axisangle0	-0.252822 0.044027 0.966511 153.848562
USER    NEWDPF quaternion0	-0.246266 0.042885 0.941451 0.226239
USER    NEWDPF dihe0	-18.85 177.49 69.25 -152.58 146.99 -128.45 45.18 
USER  
USER                              x       y       z    vdW   Elec        q     RMS 
ATOM      1  N   UNL     1      26.926 -15.191  -1.349 -0.28 -0.00    +0.000    29.710
ATOM      2  C   UNL     1      28.253 -15.716  -1.550 -0.26 -0.00    +0.000    29.710
ATOM      3  C   UNL     1      29.285 -15.548  -0.502 -0.16 -0.00    +0.000    29.710
ATOM      4  C   UNL     1      30.575 -16.079  -0.678 -0.13 -0.00    +0.000    29.710
ATOM      5  C   UNL     1      31.546 -15.923   0.312 -0.10 -0.00    +0.000    29.710
ATOM      6  C   UNL     1      31.248 -15.238   1.489 -0.12 -0.00    +0.000    29.710
ATOM      7  C   UNL     1      29.970 -14.699   1.688 -0.05 -0.00    +0.000    29.710
ATOM      8  C   UNL     1      29.671 -14.008   2.871 -0.20 -0.00    +0.000    29.710
ATOM      9  C   UNL     1      28.399 -13.472   3.068 -0.27 -0.00    +0.000    29.710
ATOM     10  C   UNL     1      27.414 -13.617   2.090 -0.29 -0.00    +0.000    29.710
ATOM     11  C   UNL     1      27.689 -14.305   0.895 -0.24 -0.00    +0.000    29.710
ATOM     12  C   UNL     1      28.975 -14.852   0.688 -0.16 -0.00    +0.000    29.710
ATOM     13  O   UNL     1      28.539 -16.317  -2.623 -0.29 -0.00    +0.000    29.710
ATOM     14  C   UNL     1      26.642 -14.458  -0.141 -0.32 -0.00    +0.000    29.710
ATOM     15  O   UNL     1      25.504 -13.945   0.037 -0.39 -0.00    +0.000    29.710
ATOM     16  C   UNL     1      25.875 -15.435  -2.353 -0.49 -0.00    +0.000    29.710
ATOM     17  C   UNL     1      24.672 -16.176  -1.741 -0.45 -0.00    +0.000    29.710
ATOM     18  C   UNL     1      24.991 -17.599  -1.248 -0.69 -0.00    +0.000    29.710
ATOM     19  C   UNL     1      23.856 -18.624  -1.452 -0.73 -0.00    +0.000    29.710
ATOM     20  C   UNL     1      22.823 -18.666  -0.314 -0.82 -0.00    +0.000    29.710
ATOM     21  O   UNL     1      20.753 -17.545  -0.726 -2.11 +0.00    +0.000    29.710
ATOM     22  C   UNL     1      21.414 -18.614  -0.829 -0.85 -0.00    +0.000    29.710
ATOM     23  N   UNL     1      20.808 -19.775  -1.402 -0.76 -0.00    +0.000    29.710
ATOM     24  H   UNL     1      21.325 -20.610  -1.473 -0.20 -0.00    +0.000    29.710
ATOM     25  O   UNL     1      19.530 -19.736  -1.848 -1.68 -0.00    +0.000    29.710
ATOM     26  H   UNL     1      19.073 -18.977  -1.453 -0.57 -0.00    +0.000    29.710
TER
ENDMDL
MODEL        8
USER    Run = 8
USER    Cluster Rank = 5
USER    Number of conformations in this cluster = 4
USER  
USER    RMSD from reference structure       = 28.298 A
USER  
USER    Estimated Free Energy of Binding    =  -10.36 kcal/mol  [=(1)+(2)+(3)-(4)]
USER    Estimated Inhibition Constant, Ki   =   25.67 nM (nanomolar)  [Temperature = 298.15 K]
USER    
USER    (1) Final Intermolecular Energy     =  -12.44 kcal/mol
USER        vdW + Hbond + desolv Energy     =  -12.44 kcal/mol
USER        Electrostatic Energy            =   +0.00 kcal/mol
USER    (2) Final Total Internal Energy     =   -1.26 kcal/mol
USER    (3) Torsional Free Energy           =   +2.09 kcal/mol
USER    (4) Unbound System's Energy  [=(2)] =   -1.26 kcal/mol
USER    
USER    
USER  
USER    DPF = ligand_dock.biased.dpf
USER    NEWDPF move	ligand.pdbqt
USER    NEWDPF about	0.154000 0.112000 -0.159000
USER    NEWDPF tran0	27.704387 -16.569691 -1.698584
USER    NEWDPF axisangle0	0.534281 -0.398103 0.745692 96.969079
USER    NEWDPF quaternion0	0.400058 -0.298090 0.558357 0.662822
USER    NEWDPF dihe0	-1.57 -103.96 -173.52 -161.88 -158.72 71.56 171.95 
USER  
USER                              x       y       z    vdW   Elec        q     RMS 
ATOM      1  N   UNL     1      26.256 -16.234  -1.512 -0.42 -0.00    +0.000    28.298
ATOM      2  C   UNL     1      25.927 -15.646  -2.786 -0.52 -0.00    +0.000    28.298
ATOM      3  C   UNL     1      26.244 -14.225  -3.052 -0.35 -0.00    +0.000    28.298
ATOM      4  C   UNL     1      25.950 -13.649  -4.301 -0.38 -0.00    +0.000    28.298
ATOM      5  C   UNL     1      26.252 -12.310  -4.552 -0.28 -0.00    +0.000    28.298
ATOM      6  C   UNL     1      26.849 -11.526  -3.567 -0.14 -0.00    +0.000    28.298
ATOM      7  C   UNL     1      27.152 -12.076  -2.314 -0.08 -0.00    +0.000    28.298
ATOM      8  C   UNL     1      27.750 -11.287  -1.322 -0.09 -0.00    +0.000    28.298
ATOM      9  C   UNL     1      28.051 -11.834  -0.075 -0.09 -0.00    +0.000    28.298
ATOM     10  C   UNL     1      27.756 -13.171   0.196 -0.16 -0.00    +0.000    28.298
ATOM     11  C   UNL     1      27.155 -13.983  -0.782 -0.22 -0.00    +0.000    28.298
ATOM     12  C   UNL     1      26.849 -13.437  -2.048 -0.16 -0.00    +0.000    28.298
ATOM     13  O   UNL     1      25.365 -16.342  -3.676 -0.54 -0.00    +0.000    28.298
ATOM     14  C   UNL     1      26.845 -15.402  -0.492 -0.36 -0.00    +0.000    28.298
ATOM     15  O   UNL     1      27.096 -15.879   0.648 -0.34 -0.00    +0.000    28.298
ATOM     16  C   UNL     1      26.022 -17.670  -1.278 -0.52 -0.00    +0.000    28.298
ATOM     17  C   UNL     1      24.903 -17.898  -0.247 -0.69 -0.00    +0.000    28.298
ATOM     18  C   UNL     1      23.891 -18.990  -0.645 -0.68 -0.00    +0.000    28.298
ATOM     19  C   UNL     1      22.682 -18.484  -1.461 -0.67 -0.00    +0.000    28.298
ATOM     20  C   UNL     1      21.428 -18.186  -0.622 -0.77 -0.00    +0.000    28.298
ATOM     21  O   UNL     1      20.267 -19.740  -2.018 -1.85 -0.00    +0.000    28.298
ATOM     22  C   UNL     1      20.320 -19.160  -0.900 -0.89 -0.00    +0.000    28.298
ATOM     23  N   UNL     1      19.309 -19.405   0.080 -0.75 -0.00    +0.000    28.298
ATOM     24  H   UNL     1      19.349 -18.944   0.949 -0.27 -0.00    +0.000    28.298
ATOM     25  O   UNL     1      18.296 -20.267  -0.177 -0.82 -0.00    +0.000    28.298
ATOM     26  H   UNL     1      18.388 -20.615  -1.078 -0.39 -0.00    +0.000    28.298
TER
ENDMDL
MODEL       17
USER    Run = 17
USER    Cluster Rank = 6
USER    Number of conformations in this cluster = 2
USER  
USER    RMSD from reference structure       = 29.465 A
USER  
USER    Estimated Free Energy of Binding    =   -7.43 kcal/mol  [=(1)+(2)+(3)-(4)]
USER    Estimated Inhibition Constant, Ki   =    3.58 uM (micromolar)  [Temperature = 298.15 K]
USER    
USER    (1) Final Intermolecular Energy     =   -9.52 kcal/mol
USER        vdW + Hbond + desolv Energy     =   -9.52 kcal/mol
USER        Electrostatic Energy            =   +0.00 kcal/mol
USER    (2) Final Total Internal Energy     =   -2.54 kcal/mol
USER    (3) Torsional Free Energy           =   +2.09 kcal/mol
USER    (4) Unbound System's Energy  [=(2)] =   -2.54 kcal/mol
USER    
USER    
USER  
USER    DPF = ligand_dock.biased.dpf
USER    NEWDPF move	ligand.pdbqt
USER    NEWDPF about	0.154000 0.112000 -0.159000
USER    NEWDPF tran0	29.602281 -14.015931 -1.001442
USER    NEWDPF axisangle0	-0.968563 -0.178079 -0.173704 -176.179714
USER    NEWDPF quaternion0	-0.968025 -0.177980 -0.173607 -0.033332
USER    NEWDPF dihe0	0.72 36.17 -81.43 88.25 -154.89 32.22 -168.22 
USER  
USER                              x       y       z    vdW   Elec        q     RMS 
ATOM      1  N   UNL     1      28.417 -13.540  -0.217 -0.11 -0.00    +0.000    29.465
ATOM      2  C   UNL     1      27.884 -14.781   0.285 -0.27 -0.00    +0.000    29.465
ATOM      3  C   UNL     1      27.009 -15.613  -0.571 -0.32 -0.00    +0.000    29.465
ATOM      4  C   UNL     1      26.504 -16.838  -0.099 -0.37 -0.00    +0.000    29.465
ATOM      5  C   UNL     1      25.682 -17.624  -0.908 -0.57 -0.00    +0.000    29.465
ATOM      6  C   UNL     1      25.351 -17.204  -2.195 -0.45 -0.00    +0.000    29.465
ATOM      7  C   UNL     1      25.841 -15.987  -2.689 -0.47 -0.00    +0.000    29.465
ATOM      8  C   UNL     1      25.507 -15.564  -3.982 -0.46 -0.00    +0.000    29.465
ATOM      9  C   UNL     1      25.994 -14.353  -4.473 -0.43 -0.00    +0.000    29.465
ATOM     10  C   UNL     1      26.817 -13.552  -3.679 -0.27 -0.00    +0.000    29.465
ATOM     11  C   UNL     1      27.167 -13.955  -2.378 -0.20 -0.00    +0.000    29.465
ATOM     12  C   UNL     1      26.678 -15.180  -1.874 -0.32 -0.00    +0.000    29.465
ATOM     13  O   UNL     1      28.158 -15.158   1.458 -0.21 -0.00    +0.000    29.465
ATOM     14  C   UNL     1      28.041 -13.104  -1.539 -0.13 -0.00    +0.000    29.465
ATOM     15  O   UNL     1      28.454 -11.998  -1.983 -0.08 -0.00    +0.000    29.465
ATOM     16  C   UNL     1      29.359 -12.755   0.601 -0.07 -0.00    +0.000    29.465
ATOM     17  C   UNL     1      28.624 -11.708   1.457 -0.11 -0.00    +0.000    29.465
ATOM     18  C   UNL     1      28.328 -12.165   2.897 -0.22 -0.00    +0.000    29.465
ATOM     19  C   UNL     1      27.019 -12.965   3.065 -0.33 -0.00    +0.000    29.465
ATOM     20  C   UNL     1      27.007 -13.922   4.269 -0.47 -0.00    +0.000    29.465
ATOM     21  O   UNL     1      28.754 -13.840   5.898 -0.51 -0.00    +0.000    29.465
ATOM     22  C   UNL     1      28.393 -14.232   4.756 -0.55 -0.00    +0.000    29.465
ATOM     23  N   UNL     1      29.313 -14.937   3.920 -0.29 -0.00    +0.000    29.465
ATOM     24  H   UNL     1      29.030 -15.235   3.025 -1.87 -0.00    +0.000    29.465
ATOM     25  O   UNL     1      30.571 -15.200   4.349 -0.39 -0.00    +0.000    29.465
ATOM     26  H   UNL     1      30.685 -14.853   5.247 -0.03 -0.00    +0.000    29.465
TER
ENDMDL
MODEL       63
USER    Run = 63
USER    Cluster Rank = 7
USER    Number of conformations in this cluster = 1
USER  
USER    RMSD from reference structure       = 29.821 A
USER  
USER    Estimated Free Energy of Binding    =   -6.95 kcal/mol  [=(1)+(2)+(3)-(4)]
USER    Estimated Inhibition Constant, Ki   =    8.02 uM (micromolar)  [Temperature = 298.15 K]
USER    
USER    (1) Final Intermolecular Energy     =   -9.04 kcal/mol
USER        vdW + Hbond + desolv Energy     =   -9.04 kcal/mol
USER        Electrostatic Energy            =   +0.00 kcal/mol
USER    (2) Final Total Internal Energy     =   -2.86 kcal/mol
USER    (3) Torsional Free Energy           =   +2.09 kcal/mol
USER    (4) Unbound System's Energy  [=(2)] =   -2.86 kcal/mol
USER    
USER    
USER  
USER    DPF = ligand_dock.biased.dpf
USER    NEWDPF move	ligand.pdbqt
USER    NEWDPF about	0.154000 0.112000 -0.159000
USER    NEWDPF tran0	28.608722 -12.662623 2.957629
USER    NEWDPF axisangle0	-0.243031 -0.757829 0.605500 94.468016
USER    NEWDPF quaternion0	-0.178417 -0.556348 0.444518 0.679006
USER    NEWDPF dihe0	118.78 89.30 31.75 -119.52 38.40 179.92 63.41 
USER  
USER                              x       y       z    vdW   Elec        q     RMS 
ATOM      1  N   UNL     1      27.288 -12.107   3.396 -0.29 +0.00    +0.000    29.821
ATOM      2  C   UNL     1      27.597 -10.706   3.543 -0.29 +0.00    +0.000    29.821
ATOM      3  C   UNL     1      28.239 -10.214   4.783 -0.27 +0.00    +0.000    29.821
ATOM      4  C   UNL     1      28.567  -8.854   4.925 -0.19 +0.00    +0.000    29.821
ATOM      5  C   UNL     1      29.175  -8.391   6.093 -0.17 +0.00    +0.000    29.821
ATOM      6  C   UNL     1      29.465  -9.272   7.133 -0.21 +0.00    +0.000    29.821
ATOM      7  C   UNL     1      29.148 -10.632   7.016 -0.27 +0.00    +0.000    29.821
ATOM      8  C   UNL     1      29.437 -11.518   8.062 -0.30 -0.00    +0.000    29.821
ATOM      9  C   UNL     1      29.121 -12.872   7.945 -0.37 -0.00    +0.000    29.821
ATOM     10  C   UNL     1      28.511 -13.354   6.786 -0.18 -0.00    +0.000    29.821
ATOM     11  C   UNL     1      28.211 -12.486   5.722 -0.39 -0.00    +0.000    29.821
ATOM     12  C   UNL     1      28.529 -11.114   5.832 -0.31 +0.00    +0.000    29.821
ATOM     13  O   UNL     1      27.316  -9.897   2.616 -0.54 +0.00    +0.000    29.821
ATOM     14  C   UNL     1      27.565 -13.000   4.492 -0.40 -0.00    +0.000    29.821
ATOM     15  O   UNL     1      27.259 -14.221   4.409 -0.67 -0.00    +0.000    29.821
ATOM     16  C   UNL     1      26.731 -12.611   2.128 -0.35 -0.00    +0.000    29.821
ATOM     17  C   UNL     1      27.350 -13.965   1.740 -0.29 -0.00    +0.000    29.821
ATOM     18  C   UNL     1      28.160 -13.937   0.430 -0.20 -0.00    +0.000    29.821
ATOM     19  C   UNL     1      29.690 -14.025   0.613 -0.12 -0.00    +0.000    29.821
ATOM     20  C   UNL     1      30.278 -12.981   1.575 -0.07 -0.00    +0.000    29.821
ATOM     21  O   UNL     1      31.081 -12.873   3.823 -0.12 -0.00    +0.000    29.821
ATOM     22  C   UNL     1      30.401 -13.510   2.975 -0.16 -0.00    +0.000    29.821
ATOM     23  N   UNL     1      29.780 -14.745   3.339 -0.23 -0.00    +0.000    29.821
ATOM     24  H   UNL     1      29.256 -15.244   2.671 -2.03 -0.00    +0.000    29.821
ATOM     25  O   UNL     1      29.908 -15.235   4.596 -0.40 -0.00    +0.000    29.821
ATOM     26  H   UNL     1      29.032 -15.303   5.007 -0.22 -0.00    +0.000    29.821
TER
ENDMDL


AVSFLD: # AVS field file
AVSFLD: #
AVSFLD: # Created by AutoDock
AVSFLD: #
AVSFLD: ndim=2           # number of dimensions in the field
AVSFLD: nspace=1         # number of physical coordinates
AVSFLD: veclen=7         # vector size
AVSFLD: dim1=26          # atoms
AVSFLD: dim2=7           # conformations
AVSFLD: data=Real       # data type (byte,integer,Real,double)
AVSFLD: field=uniform    # field coordinate layout
AVSFLD: label= x y z vdW Elec q RMS
AVSFLD: variable 1 file = ligand_dock.biased.dlg.pdb filetype = ascii offset = 5 stride = 12
AVSFLD: variable 2 file = ligand_dock.biased.dlg.pdb filetype = ascii offset = 6 stride = 12
AVSFLD: variable 3 file = ligand_dock.biased.dlg.pdb filetype = ascii offset = 7 stride = 12
AVSFLD: variable 4 file = ligand_dock.biased.dlg.pdb filetype = ascii offset = 8 stride = 12
AVSFLD: variable 5 file = ligand_dock.biased.dlg.pdb filetype = ascii offset = 9 stride = 12
AVSFLD: variable 6 file = ligand_dock.biased.dlg.pdb filetype = ascii offset = 10 stride = 12
AVSFLD: variable 7 file = ligand_dock.biased.dlg.pdb filetype = ascii offset = 11 stride = 12
AVSFLD: # end of file

>>> Closing the docking parameter file (DPF)...
This docking finished at:			10:14 53" a.m., 11/08/2024


________________________________________________________________________________

autodock4: Successful Completion on "ThinkStation-P620"

Real= 11m 37.54s,  CPU= 11m 37.32s,  System= 0.17s
________________________________________________________________________________

