REMARK  Name = 
REMARK  10 active torsions:
REMARK  status: ('A' for Active; 'I' for Inactive)
REMARK    1  A    between atoms: C_1  and  N_2
REMARK    2  A    between atoms: N_2  and  C_3
REMARK    3  A    between atoms: N_2  and  C_22
REMARK    4  A    between atoms: C_6  and  C_9
REMARK    5  A    between atoms: C_9  and  C_10
REMARK    6  A    between atoms: C_10  and  C_11
REMARK    7  A    between atoms: C_10  and  C_20
REMARK    8  A    between atoms: C_12  and  C_13
REMARK    9  A    between atoms: C_12  and  C_19
REMARK   10  A    between atoms: C_14  and  C_15
REMARK                            x       y       z     vdW  Elec       q    Type
REMARK                         _______ _______ _______ _____ _____    ______ ____
ROOT
ATOM      1  C   UNL     1      -0.966   0.719   1.386  0.00  0.00    +0.000 C 
ATOM      2  C   UNL     1      -1.025   1.722   2.542  0.00  0.00    +0.000 C 
ENDROOT
BRANCH   1   3
ATOM      3  C   UNL     1      -2.323   0.072   1.189  0.00  0.00    +0.000 C 
ATOM      4  C   UNL     1      -3.281   0.527   0.353  0.00  0.00    +0.000 C 
ATOM      5  C   UNL     1      -3.076   1.758  -0.502  0.00  0.00    +0.000 C 
BRANCH   4   6
ATOM      6  C   UNL     1      -4.544  -0.249   0.258  0.00  0.00    +0.000 C 
ATOM      7  C   UNL     1      -5.324  -0.245  -0.832  0.00  0.00    +0.000 C 
BRANCH   7   8
ATOM      8  C   UNL     1      -6.581  -1.015  -0.939  0.00  0.00    +0.000 C 
ATOM      9  N   UNL     1      -6.891  -2.103  -0.060  0.00  0.00    +0.000 N 
ATOM     10  O   UNL     1      -8.098  -2.710  -0.131  0.00  0.00    +0.000 OA
ATOM     11  O   UNL     1      -7.393  -0.714  -1.854  0.00  0.00    +0.000 OA
ATOM     12  H   UNL     1      -6.224  -2.410   0.597  0.00  0.00    +0.000 HD
ENDBRANCH   7   8
ENDBRANCH   4   6
ENDBRANCH   1   3
BRANCH   1  13
ATOM     13  C   UNL     1       0.092  -0.329   1.669  0.00  0.00    +0.000 C 
ATOM     14  O   UNL     1      -0.153  -1.236   2.513  0.00  0.00    +0.000 OA
BRANCH  13  18
ATOM     15  C   UNL     1       3.981  -0.307  -0.219  0.00  0.00    +0.000 A 
ATOM     16  C   UNL     1       3.402  -1.503   0.249  0.00  0.00    +0.000 A 
ATOM     17  C   UNL     1       2.146  -1.501   0.859  0.00  0.00    +0.000 A 
ATOM     18  C   UNL     1       1.425  -0.306   1.012  0.00  0.00    +0.000 A 
ATOM     19  C   UNL     1       2.001   0.892   0.558  0.00  0.00    +0.000 A 
ATOM     20  C   UNL     1       3.259   0.892  -0.051  0.00  0.00    +0.000 A 
BRANCH  15  22
ATOM     21  C   UNL     1       6.080   0.925  -0.934  0.00  0.00    +0.000 C 
ATOM     22  N   UNL     1       5.287  -0.308  -0.854  0.00  0.00    +0.000 N 
ATOM     23  C   UNL     1       5.838  -1.543  -1.427  0.00  0.00    +0.000 C 
ENDBRANCH  15  22
ENDBRANCH  13  18
ENDBRANCH   1  13
TORSDOF 6
