          AutoDock 4.2 Release 4.2.6   
         (C) 1989-2012 The Scripps Research Institute
        AutoDock comes with ABSOLUTELY NO WARRANTY.
        AutoDock is free software, and you are welcome
        to redistribute it under certain conditions;
        for details type 'autodock4 -C'

                     main.cc  $Revision: 1.213 $

                   Compiled on Feb 20 2022 at 09:48:33


This file was created at:			11:05 18" a.m., 11/08/2024
                   on host:		"ThinkStation-P620"
Current Working Directory = "/home/antonio/Documenti/buccheri/IDROSSAMICO HDAC/HDAC 2/DP/Ligand_2"

      ________________________________________________________________

                   SETTING UP DEFAULT PARAMETER LIBRARY
      ________________________________________________________________


Random number generator was seeded with values 333837, 1731060318.
Docking parameter file (DPF) used for this docking:		ligand_dock.biased.dpf
DPF> autodock_parameter_version 4.2       # used by autodock to validate parameter set

	Autodock parameter version 4.2.
DPF> outlev 1                             # diagnostic output level

Output Level = 1  ADT-COMPATIBLE OUTPUT DURING DOCKING.
DPF> intelec                              # calculate internal electrostatics

Electrostatic energies will be calculated for all non-bonds between moving atoms.
DPF> seed pid time                        # seeds for random generator

Random number generator was seeded with values 333837, 1731060318.
DPF> ligand_types A C HD OA N             # atoms types in ligand

DPF> fld receptor.maps.fld                # grid_data_file

Opening Grid Map Dimensions file:		receptor.maps.fld
Grid Point Spacing =				0.375 Angstroms

Even Number of User-specified Grid Points =	70 x-points
						70 y-points
						70 z-points

Coordinates of Central Grid Point of Maps =	(24.757, -16.735, 0.794)
Macromolecule file used to create Grid Maps =	receptor.pdbqt
Grid Parameter file used to create Grid Maps =	receptor.gpf
Minimum coordinates in grid = (11.632, -29.860, -12.331)
Maximum coordinates in grid = (37.882, -3.610, 13.919)

DPF> map receptor.A.map                   # atom-specific affinity map

DPF> map receptor.C.map                   # atom-specific affinity map

DPF> map receptor.HD.biased.map

DPF> map receptor.OA.biased.map

DPF> map receptor.N.map                   # atom-specific affinity map

DPF> elecmap receptor.e.map               # electrostatics map

DPF> desolvmap receptor.d.map             # desolvation map

DPF> move ligand.pdbqt                    # small molecule

1,4-interactions will be _ignored_ in the non-bonded internal energy calculation.

Ligand PDBQT file = "ligand.pdbqt"

INPUT LIGAND PDBQT FILE:
________________________

INPUT-LIGAND-PDBQT: REMARK  Name = 
INPUT-LIGAND-PDBQT: REMARK  10 active torsions:
INPUT-LIGAND-PDBQT: REMARK  status: ('A' for Active; 'I' for Inactive)
INPUT-LIGAND-PDBQT: REMARK    1  A    between atoms: C_1  and  N_2
INPUT-LIGAND-PDBQT: REMARK    2  A    between atoms: N_2  and  C_3
INPUT-LIGAND-PDBQT: REMARK    3  A    between atoms: N_2  and  C_22
INPUT-LIGAND-PDBQT: REMARK    4  A    between atoms: C_6  and  C_9
INPUT-LIGAND-PDBQT: REMARK    5  A    between atoms: C_9  and  C_10
INPUT-LIGAND-PDBQT: REMARK    6  A    between atoms: C_10  and  C_11
INPUT-LIGAND-PDBQT: REMARK    7  A    between atoms: C_10  and  C_20
INPUT-LIGAND-PDBQT: REMARK    8  A    between atoms: C_12  and  C_13
INPUT-LIGAND-PDBQT: REMARK    9  A    between atoms: C_12  and  C_19
INPUT-LIGAND-PDBQT: REMARK   10  A    between atoms: C_14  and  C_15
INPUT-LIGAND-PDBQT: REMARK                            x       y       z     vdW  Elec       q    Type
INPUT-LIGAND-PDBQT: REMARK                         _______ _______ _______ _____ _____    ______ ____
INPUT-LIGAND-PDBQT: ROOT
INPUT-LIGAND-PDBQT: ATOM      1  C   UNL     1      -0.966   0.719   1.386  0.00  0.00    +0.000 C 
INPUT-LIGAND-PDBQT: ATOM      2  C   UNL     1      -1.025   1.722   2.542  0.00  0.00    +0.000 C 
INPUT-LIGAND-PDBQT: ENDROOT
INPUT-LIGAND-PDBQT: BRANCH   1   3
INPUT-LIGAND-PDBQT: ATOM      3  C   UNL     1      -2.323   0.072   1.189  0.00  0.00    +0.000 C 
INPUT-LIGAND-PDBQT: ATOM      4  C   UNL     1      -3.281   0.527   0.353  0.00  0.00    +0.000 C 
INPUT-LIGAND-PDBQT: ATOM      5  C   UNL     1      -3.076   1.758  -0.502  0.00  0.00    +0.000 C 
INPUT-LIGAND-PDBQT: BRANCH   4   6
INPUT-LIGAND-PDBQT: ATOM      6  C   UNL     1      -4.544  -0.249   0.258  0.00  0.00    +0.000 C 
INPUT-LIGAND-PDBQT: ATOM      7  C   UNL     1      -5.324  -0.245  -0.832  0.00  0.00    +0.000 C 
INPUT-LIGAND-PDBQT: BRANCH   7   8
INPUT-LIGAND-PDBQT: ATOM      8  C   UNL     1      -6.581  -1.015  -0.939  0.00  0.00    +0.000 C 
INPUT-LIGAND-PDBQT: ATOM      9  N   UNL     1      -6.891  -2.103  -0.060  0.00  0.00    +0.000 N 
INPUT-LIGAND-PDBQT: ATOM     10  O   UNL     1      -8.098  -2.710  -0.131  0.00  0.00    +0.000 OA
INPUT-LIGAND-PDBQT: ATOM     11  O   UNL     1      -7.393  -0.714  -1.854  0.00  0.00    +0.000 OA
INPUT-LIGAND-PDBQT: ATOM     12  H   UNL     1      -6.224  -2.410   0.597  0.00  0.00    +0.000 HD
INPUT-LIGAND-PDBQT: ENDBRANCH   7   8
INPUT-LIGAND-PDBQT: ENDBRANCH   4   6
INPUT-LIGAND-PDBQT: ENDBRANCH   1   3
INPUT-LIGAND-PDBQT: BRANCH   1  13
INPUT-LIGAND-PDBQT: ATOM     13  C   UNL     1       0.092  -0.329   1.669  0.00  0.00    +0.000 C 
INPUT-LIGAND-PDBQT: ATOM     14  O   UNL     1      -0.153  -1.236   2.513  0.00  0.00    +0.000 OA
INPUT-LIGAND-PDBQT: BRANCH  13  18
INPUT-LIGAND-PDBQT: ATOM     15  C   UNL     1       3.981  -0.307  -0.219  0.00  0.00    +0.000 A 
INPUT-LIGAND-PDBQT: ATOM     16  C   UNL     1       3.402  -1.503   0.249  0.00  0.00    +0.000 A 
INPUT-LIGAND-PDBQT: ATOM     17  C   UNL     1       2.146  -1.501   0.859  0.00  0.00    +0.000 A 
INPUT-LIGAND-PDBQT: ATOM     18  C   UNL     1       1.425  -0.306   1.012  0.00  0.00    +0.000 A 
INPUT-LIGAND-PDBQT: ATOM     19  C   UNL     1       2.001   0.892   0.558  0.00  0.00    +0.000 A 
INPUT-LIGAND-PDBQT: ATOM     20  C   UNL     1       3.259   0.892  -0.051  0.00  0.00    +0.000 A 
INPUT-LIGAND-PDBQT: BRANCH  15  22
INPUT-LIGAND-PDBQT: ATOM     21  C   UNL     1       6.080   0.925  -0.934  0.00  0.00    +0.000 C 
INPUT-LIGAND-PDBQT: ATOM     22  N   UNL     1       5.287  -0.308  -0.854  0.00  0.00    +0.000 N 
INPUT-LIGAND-PDBQT: ATOM     23  C   UNL     1       5.838  -1.543  -1.427  0.00  0.00    +0.000 C 
INPUT-LIGAND-PDBQT: ENDBRANCH  15  22
INPUT-LIGAND-PDBQT: ENDBRANCH  13  18
INPUT-LIGAND-PDBQT: ENDBRANCH   1  13
INPUT-LIGAND-PDBQT: TORSDOF 6
________________________________________________________________________________

Total charge on ligand                               =	+0.000 e
REMARK  Name = 
REMARK  10 active torsions:
REMARK  status: ('A' for Active; 'I' for Inactive)
REMARK    1  A    between atoms: C_1  and  N_2
REMARK    2  A    between atoms: N_2  and  C_3
REMARK    3  A    between atoms: N_2  and  C_22
REMARK    4  A    between atoms: C_6  and  C_9
REMARK    5  A    between atoms: C_9  and  C_10
REMARK    6  A    between atoms: C_10  and  C_11
REMARK    7  A    between atoms: C_10  and  C_20
REMARK    8  A    between atoms: C_12  and  C_13
REMARK    9  A    between atoms: C_12  and  C_19
REMARK   10  A    between atoms: C_14  and  C_15
REMARK                            x       y       z     vdW  Elec       q    Type
REMARK                         _______ _______ _______ _____ _____    ______ ____


Number of Rotatable Bonds in Small Molecule =	6 torsions
Number of atoms in ligand:  23

Number of non-hydrogen atoms in ligand:  22

Number of vibrational degrees of freedom of ligand:  63


Number of torsional degrees of freedom = 6
Estimated loss of torsional free energy upon binding = +1.7898 kcal/mol


DPF> about -0.973 -0.390 0.234            # small molecule center

Small molecule center of rotation =	(-0.973, -0.390, +0.234)

DPF> tran0 random                         # initial coordinates/A or random

Initial translation =			(35.068, -6.424, 13.311) Angstroms
DPF> quaternion0 random                   # initial orientation

Each run will begin with a new, random initial orientation.
Initial quaternion,  (x,y,z,w) =	( -0.381, -0.073, -0.699, 0.601 ),
DPF> dihe0 random                         # initial dihedrals (relative) or random

DPF> torsdof 6                            # torsional degrees of freedom

Number of torsional degrees of freedom = 6
Free energy coefficient for torsional degrees of freedom = 0.2983, the factory default value.

Estimated loss of torsional free energy upon binding = +1.7898 kcal/mol

DPF> rmstol 2.0                           # cluster_tolerance/A

Maximum RMS tolerance for conformational cluster analysis = 2.00 Angstroms
DPF> extnrg 1000.0                        # external grid energy

External grid energy (beyond grid map walls) = 1000.00

DPF> e0max 0.0 10000                      # max initial energy; max number of retries

Using user-specified maximum number of retries for simanneal initialization, 10000 retries.
If the simanneal initial energy is greater than e0max, 0.000,
then a new, random initial state will be created.

DPF> ga_pop_size 150                      # number of individuals in population

A population of 150 individuals will be used
DPF> ga_num_evals 2500000                 # maximum number of energy evaluations

There will be at most 2500000 function evaluations used.
DPF> ga_num_generations 27000             # maximum number of generations

The GA will run for at most 27000 generations.
DPF> ga_elitism 1                         # number of top individuals to survive to next generation

The 1 best will be preserved each GA generation.
DPF> ga_mutation_rate 0.02                # rate of gene mutation

The mutation rate is 0.020000.
DPF> ga_crossover_rate 0.8                # rate of crossover

The crossover rate is 0.800000.
DPF> ga_window_size 10                    # 

The GA's selection window is 10 generations.
DPF> ga_cauchy_alpha 0.0                  # Alpha parameter of Cauchy distribution

The alpha parameter (for the Cauchy distribution) is being set to 0.000000.
DPF> ga_cauchy_beta 1.0                   # Beta parameter Cauchy distribution

The beta parameter (for the Cauchy distribution) is being set to 1.000000.
DPF> set_ga                               # set the above parameters for GA or LGA

DPF> sw_max_its 300                       # iterations of Solis & Wets local search

Solis & Wets algorithms will perform at most 300 iterations.
DPF> sw_max_succ 4                        # consecutive successes before changing rho

Solis & Wets algorithms expand rho every 4 in a row successes.
DPF> sw_max_fail 4                        # consecutive failures before changing rho

Solis & Wets algorithms contract rho every 4 in a row failures.
DPF> sw_rho 1.0                           # size of local search space to sample

rho is set to 1.000000.
DPF> sw_lb_rho 0.01                       # lower bound on rho

rho will never get smaller than 0.010000.
DPF> ls_search_freq 0.06                  # probability of performing local search on individual

Local search will be performed with frequency 0.060000.
DPF> set_psw1                             # set the above pseudo-Solis & Wets parameters

Creating a new Local Search object using the pseudo-Solis-Wets algorithm (pSW1) with the current settings.

DPF> unbound_model bound                  # state of unbound ligand

DPF> ga_run 100

centering ligand on specified point: -0.973 -0.390 0.234
Furthest true ligand atom from "about" center is 7.502 Angstroms (maxrad).
Number of requested GA dockings = 100 runs
Unbound model to be used is 'same as bound' [AutoDock 4.2 default].

	BEGINNING GENETIC ALGORITHM DOCKING 1 of 100
Run: 1 Seed: 730182251 2124795405 [ Run 1 of 100 GA/GALS ]
Beginning LAMARCKIAN GENETIC ALGORITHM (LGA), with a maximum of 2500000 energy evaluations.

Final-Value: -14.552


	FINAL GENETIC ALGORITHM DOCKED STATE
	_______________________________________________


Detailed state:  trans 26.269 -15.777 0.358 quatxyzw 0.885793 0.394686 0.013605 0.243741 center -0.973 -0.390 0.234 ntor 6 -36.4224 -54.6048 -178.2644 174.9365 11.2688 -42.7942
State:	 26.269 -15.777   0.358   0.913  0.407  0.014 151.785    -36.42  -54.60 -178.26  174.94   11.27  -42.79

DOCKED: MODEL        1
DOCKED: USER    Run = 1
DOCKED: USER    DPF = ligand_dock.biased.dpf
DOCKED: USER  
DOCKED: USER    Estimated Free Energy of Binding    =  -11.59 kcal/mol  [=(1)+(2)+(3)-(4)]
DOCKED: USER    Estimated Inhibition Constant, Ki   =    3.20 nM (nanomolar)  [Temperature = 298.15 K]
DOCKED: USER    
DOCKED: USER    (1) Final Intermolecular Energy     =  -13.38 kcal/mol
DOCKED: USER        vdW + Hbond + desolv Energy     =  -13.38 kcal/mol
DOCKED: USER        Electrostatic Energy            =   +0.00 kcal/mol
DOCKED: USER    (2) Final Total Internal Energy     =   -1.17 kcal/mol
DOCKED: USER    (3) Torsional Free Energy           =   +1.79 kcal/mol
DOCKED: USER    (4) Unbound System's Energy  [=(2)] =   -1.17 kcal/mol
DOCKED: USER    
DOCKED: USER    
DOCKED: USER    NEWDPF move ligand.pdbqt
DOCKED: USER    NEWDPF about -0.973000 -0.390000 0.234000
DOCKED: USER    NEWDPF tran0 26.268845 -15.777043 0.357841
DOCKED: USER    NEWDPF quaternion0 0.885793 0.394686 0.013605 0.243741
DOCKED: USER    NEWDPF axisangle0 0.913338 0.406960 0.014028 151.785143
DOCKED: USER    NEWDPF quat0 0.913338 0.406960 0.014028 151.785143
DOCKED: USER    NEWDPF dihe0 -36.42 -54.60 -178.26 174.94 11.27 -42.79 
DOCKED: USER  keepresnum = 1 
DOCKED: USER  
DOCKED: REMARK  Name = 
DOCKED: REMARK  10 active torsions:
DOCKED: REMARK  status: ('A' for Active; 'I' for Inactive)
DOCKED: REMARK    1  A    between atoms: C_1  and  N_2
DOCKED: REMARK    2  A    between atoms: N_2  and  C_3
DOCKED: REMARK    3  A    between atoms: N_2  and  C_22
DOCKED: REMARK    4  A    between atoms: C_6  and  C_9
DOCKED: REMARK    5  A    between atoms: C_9  and  C_10
DOCKED: REMARK    6  A    between atoms: C_10  and  C_11
DOCKED: REMARK    7  A    between atoms: C_10  and  C_20
DOCKED: REMARK    8  A    between atoms: C_12  and  C_13
DOCKED: REMARK    9  A    between atoms: C_12  and  C_19
DOCKED: REMARK   10  A    between atoms: C_14  and  C_15
DOCKED: REMARK                            x       y       z     vdW  Elec       q    Type
DOCKED: REMARK                         _______ _______ _______ _____ _____    ______ ____
DOCKED: USER                              x       y       z     vdW  Elec       q    Type
DOCKED: USER                           _______ _______ _______ _____ _____    ______ ____
DOCKED: ROOT
DOCKED: ATOM      1  C   UNL     1      26.863 -15.894  -1.122 -0.40 -0.00    +0.000 C 
DOCKED: ATOM      2  C   UNL     1      27.335 -15.995  -2.576 -0.35 -0.00    +0.000 C 
DOCKED: ENDROOT
DOCKED: BRANCH   1   3
DOCKED: ATOM      3  C   UNL     1      25.505 -16.553  -0.970 -0.56 -0.00    +0.000 C 
DOCKED: ATOM      4  C   UNL     1      25.295 -17.772  -0.428 -0.68 -0.00    +0.000 C 
DOCKED: ATOM      5  C   UNL     1      26.432 -18.615   0.106 -0.53 -0.00    +0.000 C 
DOCKED: BRANCH   4   6
DOCKED: ATOM      6  C   UNL     1      23.894 -18.253  -0.327 -0.78 -0.00    +0.000 C 
DOCKED: ATOM      7  C   UNL     1      22.927 -17.872  -1.174 -0.72 -0.00    +0.000 C 
DOCKED: BRANCH   7   8
DOCKED: ATOM      8  C   UNL     1      21.530 -18.346  -1.084 -0.72 -0.00    +0.000 C 
DOCKED: ATOM      9  N   UNL     1      21.150 -19.682  -1.436 -0.71 -0.00    +0.000 N 
DOCKED: ATOM     10  O   UNL     1      19.878 -20.099  -1.240 -1.98 -0.00    +0.000 OA
DOCKED: ATOM     11  O   UNL     1      20.643 -17.534  -0.708 -2.12 +0.00    +0.000 OA
DOCKED: ATOM     12  H   UNL     1      21.815 -20.297  -1.822 -0.45 -0.00    +0.000 HD
DOCKED: ENDBRANCH   7   8
DOCKED: ENDBRANCH   4   6
DOCKED: ENDBRANCH   1   3
DOCKED: BRANCH   1  13
DOCKED: ATOM     13  C   UNL     1      26.803 -14.439  -0.701 -0.31 -0.00    +0.000 C 
DOCKED: ATOM     14  O   UNL     1      26.505 -13.563  -1.561 -0.25 -0.00    +0.000 OA
DOCKED: BRANCH  13  18
DOCKED: ATOM     15  C   UNL     1      27.729 -13.217   3.341 -0.33 -0.00    +0.000 A 
DOCKED: ATOM     16  C   UNL     1      28.189 -14.445   2.824 -0.27 -0.00    +0.000 A 
DOCKED: ATOM     17  C   UNL     1      27.884 -14.833   1.518 -0.15 -0.00    +0.000 A 
DOCKED: ATOM     18  C   UNL     1      27.119 -14.002   0.684 -0.26 -0.00    +0.000 A 
DOCKED: ATOM     19  C   UNL     1      26.648 -12.782   1.196 -0.30 -0.00    +0.000 A 
DOCKED: ATOM     20  C   UNL     1      26.950 -12.393   2.504 -0.27 +0.00    +0.000 A 
DOCKED: BRANCH  15  22
DOCKED: ATOM     21  C   UNL     1      27.876 -11.418   5.123 -0.40 +0.00    +0.000 C 
DOCKED: ATOM     22  N   UNL     1      28.046 -12.813   4.699 -0.38 -0.00    +0.000 N 
DOCKED: ATOM     23  C   UNL     1      28.543 -13.793   5.674 -0.47 -0.00    +0.000 C 
DOCKED: ENDBRANCH  15  22
DOCKED: ENDBRANCH  13  18
DOCKED: ENDBRANCH   1  13
DOCKED: TORSDOF 6
DOCKED: TER
DOCKED: ENDMDL
________________________________________________________________________________


	BEGINNING GENETIC ALGORITHM DOCKING 2 of 100
Run: 2 Seed: 1917246445 1917282214 [ Run 2 of 100 GA/GALS ]
Beginning LAMARCKIAN GENETIC ALGORITHM (LGA), with a maximum of 2500000 energy evaluations.

Final-Value: -14.224


	FINAL GENETIC ALGORITHM DOCKED STATE
	_______________________________________________


Detailed state:  trans 25.728 -15.513 0.639 quatxyzw 0.883313 0.404421 0.163856 0.171325 center -0.973 -0.390 0.234 ntor 6 -28.2347 135.2624 52.2613 -13.3438 -8.8153 -19.5552
State:	 25.728 -15.513   0.639   0.897  0.410  0.166 160.270    -28.23  135.26   52.26  -13.34   -8.82  -19.56

DOCKED: MODEL        2
DOCKED: USER    Run = 2
DOCKED: USER    DPF = ligand_dock.biased.dpf
DOCKED: USER  
DOCKED: USER    Estimated Free Energy of Binding    =  -11.41 kcal/mol  [=(1)+(2)+(3)-(4)]
DOCKED: USER    Estimated Inhibition Constant, Ki   =    4.34 nM (nanomolar)  [Temperature = 298.15 K]
DOCKED: USER    
DOCKED: USER    (1) Final Intermolecular Energy     =  -13.20 kcal/mol
DOCKED: USER        vdW + Hbond + desolv Energy     =  -13.20 kcal/mol
DOCKED: USER        Electrostatic Energy            =   +0.00 kcal/mol
DOCKED: USER    (2) Final Total Internal Energy     =   -1.03 kcal/mol
DOCKED: USER    (3) Torsional Free Energy           =   +1.79 kcal/mol
DOCKED: USER    (4) Unbound System's Energy  [=(2)] =   -1.03 kcal/mol
DOCKED: USER    
DOCKED: USER    
DOCKED: USER    NEWDPF move ligand.pdbqt
DOCKED: USER    NEWDPF about -0.973000 -0.390000 0.234000
DOCKED: USER    NEWDPF tran0 25.728470 -15.513136 0.638899
DOCKED: USER    NEWDPF quaternion0 0.883313 0.404421 0.163856 0.171325
DOCKED: USER    NEWDPF axisangle0 0.896570 0.410490 0.166315 160.270240
DOCKED: USER    NEWDPF quat0 0.896570 0.410490 0.166315 160.270240
DOCKED: USER    NEWDPF dihe0 -28.23 135.26 52.26 -13.34 -8.82 -19.56 
DOCKED: USER  keepresnum = 1 
DOCKED: USER  
DOCKED: REMARK  Name = 
DOCKED: REMARK  10 active torsions:
DOCKED: REMARK  status: ('A' for Active; 'I' for Inactive)
DOCKED: REMARK    1  A    between atoms: C_1  and  N_2
DOCKED: REMARK    2  A    between atoms: N_2  and  C_3
DOCKED: REMARK    3  A    between atoms: N_2  and  C_22
DOCKED: REMARK    4  A    between atoms: C_6  and  C_9
DOCKED: REMARK    5  A    between atoms: C_9  and  C_10
DOCKED: REMARK    6  A    between atoms: C_10  and  C_11
DOCKED: REMARK    7  A    between atoms: C_10  and  C_20
DOCKED: REMARK    8  A    between atoms: C_12  and  C_13
DOCKED: REMARK    9  A    between atoms: C_12  and  C_19
DOCKED: REMARK   10  A    between atoms: C_14  and  C_15
DOCKED: REMARK                            x       y       z     vdW  Elec       q    Type
DOCKED: REMARK                         _______ _______ _______ _____ _____    ______ ____
DOCKED: USER                              x       y       z     vdW  Elec       q    Type
DOCKED: USER                           _______ _______ _______ _____ _____    ______ ____
DOCKED: ROOT
DOCKED: ATOM      1  C   UNL     1      26.761 -15.688  -0.569 -0.39 -0.00    +0.000 C 
DOCKED: ATOM      2  C   UNL     1      27.672 -15.840  -1.791 -0.31 -0.00    +0.000 C 
DOCKED: ENDROOT
DOCKED: BRANCH   1   3
DOCKED: ATOM      3  C   UNL     1      25.393 -16.270  -0.865 -0.51 -0.00    +0.000 C 
DOCKED: ATOM      4  C   UNL     1      25.073 -17.579  -0.770 -0.69 -0.00    +0.000 C 
DOCKED: ATOM      5  C   UNL     1      26.082 -18.617  -0.332 -0.60 -0.00    +0.000 C 
DOCKED: BRANCH   4   6
DOCKED: ATOM      6  C   UNL     1      23.672 -17.974  -1.067 -0.79 -0.00    +0.000 C 
DOCKED: ATOM      7  C   UNL     1      22.768 -18.233  -0.112 -0.80 -0.00    +0.000 C 
DOCKED: BRANCH   7   8
DOCKED: ATOM      8  C   UNL     1      21.371 -18.624  -0.395 -0.82 -0.00    +0.000 C 
DOCKED: ATOM      9  N   UNL     1      20.835 -19.892   0.002 -0.70 -0.00    +0.000 N 
DOCKED: ATOM     10  O   UNL     1      19.523 -20.163  -0.188 -1.29 -0.00    +0.000 OA
DOCKED: ATOM     11  O   UNL     1      20.640 -17.819  -1.030 -2.22 -0.00    +0.000 OA
DOCKED: ATOM     12  H   UNL     1      21.422 -20.568   0.414 -0.60 -0.00    +0.000 HD
DOCKED: ENDBRANCH   7   8
DOCKED: ENDBRANCH   4   6
DOCKED: ENDBRANCH   1   3
DOCKED: BRANCH   1  13
DOCKED: ATOM     13  C   UNL     1      26.651 -14.225  -0.189 -0.32 -0.00    +0.000 C 
DOCKED: ATOM     14  O   UNL     1      26.257 -13.394  -1.055 -0.22 -0.00    +0.000 OA
DOCKED: BRANCH  13  18
DOCKED: ATOM     15  C   UNL     1      27.736 -12.728   3.719 -0.32 -0.00    +0.000 A 
DOCKED: ATOM     16  C   UNL     1      27.012 -11.935   2.807 -0.25 +0.00    +0.000 A 
DOCKED: ATOM     17  C   UNL     1      26.667 -12.426   1.546 -0.31 -0.00    +0.000 A 
DOCKED: ATOM     18  C   UNL     1      27.026 -13.727   1.160 -0.27 -0.00    +0.000 A 
DOCKED: ATOM     19  C   UNL     1      27.758 -14.519   2.060 -0.21 -0.00    +0.000 A 
DOCKED: ATOM     20  C   UNL     1      28.106 -14.029   3.321 -0.37 -0.00    +0.000 A 
DOCKED: BRANCH  15  22
DOCKED: ATOM     21  C   UNL     1      28.700 -13.102   6.035 -0.44 -0.00    +0.000 C 
DOCKED: ATOM     22  N   UNL     1      28.095 -12.219   5.030 -0.36 +0.00    +0.000 N 
DOCKED: ATOM     23  C   UNL     1      27.860 -10.810   5.375 -0.39 +0.00    +0.000 C 
DOCKED: ENDBRANCH  15  22
DOCKED: ENDBRANCH  13  18
DOCKED: ENDBRANCH   1  13
DOCKED: TORSDOF 6
DOCKED: TER
DOCKED: ENDMDL
________________________________________________________________________________


	BEGINNING GENETIC ALGORITHM DOCKING 3 of 100
Run: 3 Seed: 2097757510 1546160045 [ Run 3 of 100 GA/GALS ]
Beginning LAMARCKIAN GENETIC ALGORITHM (LGA), with a maximum of 2500000 energy evaluations.

Final-Value: -14.717


	FINAL GENETIC ALGORITHM DOCKED STATE
	_______________________________________________


Detailed state:  trans 25.963 -15.282 0.380 quatxyzw 0.885531 0.383175 0.197929 0.172732 center -0.973 -0.390 0.234 ntor 6 148.2205 101.5870 28.1489 174.6128 0.1573 -22.7621
State:	 25.963 -15.282   0.380   0.899  0.389  0.201 160.107    148.22  101.59   28.15  174.61    0.16  -22.76

DOCKED: MODEL        3
DOCKED: USER    Run = 3
DOCKED: USER    DPF = ligand_dock.biased.dpf
DOCKED: USER  
DOCKED: USER    Estimated Free Energy of Binding    =  -11.88 kcal/mol  [=(1)+(2)+(3)-(4)]
DOCKED: USER    Estimated Inhibition Constant, Ki   =    1.96 nM (nanomolar)  [Temperature = 298.15 K]
DOCKED: USER    
DOCKED: USER    (1) Final Intermolecular Energy     =  -13.67 kcal/mol
DOCKED: USER        vdW + Hbond + desolv Energy     =  -13.67 kcal/mol
DOCKED: USER        Electrostatic Energy            =   +0.00 kcal/mol
DOCKED: USER    (2) Final Total Internal Energy     =   -1.05 kcal/mol
DOCKED: USER    (3) Torsional Free Energy           =   +1.79 kcal/mol
DOCKED: USER    (4) Unbound System's Energy  [=(2)] =   -1.05 kcal/mol
DOCKED: USER    
DOCKED: USER    
DOCKED: USER    NEWDPF move ligand.pdbqt
DOCKED: USER    NEWDPF about -0.973000 -0.390000 0.234000
DOCKED: USER    NEWDPF tran0 25.963122 -15.281974 0.379589
DOCKED: USER    NEWDPF quaternion0 0.885531 0.383175 0.197929 0.172732
DOCKED: USER    NEWDPF axisangle0 0.899044 0.389022 0.200949 160.106593
DOCKED: USER    NEWDPF quat0 0.899044 0.389022 0.200949 160.106593
DOCKED: USER    NEWDPF dihe0 148.22 101.59 28.15 174.61 0.16 -22.76 
DOCKED: USER  keepresnum = 1 
DOCKED: USER  
DOCKED: REMARK  Name = 
DOCKED: REMARK  10 active torsions:
DOCKED: REMARK  status: ('A' for Active; 'I' for Inactive)
DOCKED: REMARK    1  A    between atoms: C_1  and  N_2
DOCKED: REMARK    2  A    between atoms: N_2  and  C_3
DOCKED: REMARK    3  A    between atoms: N_2  and  C_22
DOCKED: REMARK    4  A    between atoms: C_6  and  C_9
DOCKED: REMARK    5  A    between atoms: C_9  and  C_10
DOCKED: REMARK    6  A    between atoms: C_10  and  C_11
DOCKED: REMARK    7  A    between atoms: C_10  and  C_20
DOCKED: REMARK    8  A    between atoms: C_12  and  C_13
DOCKED: REMARK    9  A    between atoms: C_12  and  C_19
DOCKED: REMARK   10  A    between atoms: C_14  and  C_15
DOCKED: REMARK                            x       y       z     vdW  Elec       q    Type
DOCKED: REMARK                         _______ _______ _______ _____ _____    ______ ____
DOCKED: USER                              x       y       z     vdW  Elec       q    Type
DOCKED: USER                           _______ _______ _______ _____ _____    ______ ____
DOCKED: ROOT
DOCKED: ATOM      1  C   UNL     1      27.047 -15.468  -0.781 -0.35 -0.00    +0.000 C 
DOCKED: ATOM      2  C   UNL     1      28.012 -15.623  -1.961 -0.27 -0.00    +0.000 C 
DOCKED: ENDROOT
DOCKED: BRANCH   1   3
DOCKED: ATOM      3  C   UNL     1      25.669 -15.968  -1.167 -0.51 -0.00    +0.000 C 
DOCKED: ATOM      4  C   UNL     1      25.224 -17.228  -0.976 -0.65 -0.00    +0.000 C 
DOCKED: ATOM      5  C   UNL     1      26.084 -18.289  -0.327 -0.65 -0.00    +0.000 C 
DOCKED: BRANCH   4   6
DOCKED: ATOM      6  C   UNL     1      23.830 -17.541  -1.385 -0.71 -0.00    +0.000 C 
DOCKED: ATOM      7  C   UNL     1      22.926 -18.075  -0.552 -0.82 -0.00    +0.000 C 
DOCKED: BRANCH   7   8
DOCKED: ATOM      8  C   UNL     1      21.537 -18.388  -0.947 -0.78 -0.00    +0.000 C 
DOCKED: ATOM      9  N   UNL     1      21.183 -19.610  -1.605 -0.67 -0.00    +0.000 N 
DOCKED: ATOM     10  O   UNL     1      19.884 -19.895  -1.854 -2.25 -0.00    +0.000 OA
DOCKED: ATOM     11  O   UNL     1      20.641 -17.533  -0.714 -2.12 +0.00    +0.000 OA
DOCKED: ATOM     12  H   UNL     1      21.887 -20.243  -1.878 -0.47 -0.00    +0.000 HD
DOCKED: ENDBRANCH   7   8
DOCKED: ENDBRANCH   4   6
DOCKED: ENDBRANCH   1   3
DOCKED: BRANCH   1  13
DOCKED: ATOM     13  C   UNL     1      26.991 -14.015  -0.352 -0.28 -0.00    +0.000 C 
DOCKED: ATOM     14  O   UNL     1      26.744 -13.129  -1.218 -0.22 -0.00    +0.000 OA
DOCKED: BRANCH  13  18
DOCKED: ATOM     15  C   UNL     1      27.755 -12.834   3.735 -0.33 -0.00    +0.000 A 
DOCKED: ATOM     16  C   UNL     1      28.213 -14.068   3.233 -0.35 -0.00    +0.000 A 
DOCKED: ATOM     17  C   UNL     1      27.961 -14.442   1.911 -0.24 -0.00    +0.000 A 
DOCKED: ATOM     18  C   UNL     1      27.251 -13.592   1.048 -0.26 -0.00    +0.000 A 
DOCKED: ATOM     19  C   UNL     1      26.781 -12.365   1.546 -0.29 -0.00    +0.000 A 
DOCKED: ATOM     20  C   UNL     1      27.031 -11.990   2.869 -0.24 +0.00    +0.000 A 
DOCKED: BRANCH  15  22
DOCKED: ATOM     21  C   UNL     1      28.546 -13.415   6.074 -0.43 -0.00    +0.000 C 
DOCKED: ATOM     22  N   UNL     1      28.017 -12.443   5.109 -0.39 +0.00    +0.000 N 
DOCKED: ATOM     23  C   UNL     1      27.759 -11.069   5.557 -0.39 +0.00    +0.000 C 
DOCKED: ENDBRANCH  15  22
DOCKED: ENDBRANCH  13  18
DOCKED: ENDBRANCH   1  13
DOCKED: TORSDOF 6
DOCKED: TER
DOCKED: ENDMDL
________________________________________________________________________________


	BEGINNING GENETIC ALGORITHM DOCKING 4 of 100
Run: 4 Seed: 1824609278 1853241988 [ Run 4 of 100 GA/GALS ]
Beginning LAMARCKIAN GENETIC ALGORITHM (LGA), with a maximum of 2500000 energy evaluations.

Final-Value: -13.732


	FINAL GENETIC ALGORITHM DOCKED STATE
	_______________________________________________


Detailed state:  trans 24.485 -14.909 -1.835 quatxyzw -0.815714 -0.418974 -0.042306 0.396587 center -0.973 -0.390 0.234 ntor 6 131.1950 -110.8778 -51.1141 -85.0142 -40.6209 81.1088
State:	 24.485 -14.909  -1.835  -0.889 -0.456 -0.046 133.270    131.20 -110.88  -51.11  -85.01  -40.62   81.11

DOCKED: MODEL        4
DOCKED: USER    Run = 4
DOCKED: USER    DPF = ligand_dock.biased.dpf
DOCKED: USER  
DOCKED: USER    Estimated Free Energy of Binding    =  -11.16 kcal/mol  [=(1)+(2)+(3)-(4)]
DOCKED: USER    Estimated Inhibition Constant, Ki   =    6.65 nM (nanomolar)  [Temperature = 298.15 K]
DOCKED: USER    
DOCKED: USER    (1) Final Intermolecular Energy     =  -12.95 kcal/mol
DOCKED: USER        vdW + Hbond + desolv Energy     =  -12.95 kcal/mol
DOCKED: USER        Electrostatic Energy            =   +0.00 kcal/mol
DOCKED: USER    (2) Final Total Internal Energy     =   -0.79 kcal/mol
DOCKED: USER    (3) Torsional Free Energy           =   +1.79 kcal/mol
DOCKED: USER    (4) Unbound System's Energy  [=(2)] =   -0.79 kcal/mol
DOCKED: USER    
DOCKED: USER    
DOCKED: USER    NEWDPF move ligand.pdbqt
DOCKED: USER    NEWDPF about -0.973000 -0.390000 0.234000
DOCKED: USER    NEWDPF tran0 24.484977 -14.908670 -1.834942
DOCKED: USER    NEWDPF quaternion0 -0.815714 -0.418974 -0.042306 0.396587
DOCKED: USER    NEWDPF axisangle0 -0.888581 -0.456400 -0.046085 133.269996
DOCKED: USER    NEWDPF quat0 -0.888581 -0.456400 -0.046085 133.269996
DOCKED: USER    NEWDPF dihe0 131.20 -110.88 -51.11 -85.01 -40.62 81.11 
DOCKED: USER  keepresnum = 1 
DOCKED: USER  
DOCKED: REMARK  Name = 
DOCKED: REMARK  10 active torsions:
DOCKED: REMARK  status: ('A' for Active; 'I' for Inactive)
DOCKED: REMARK    1  A    between atoms: C_1  and  N_2
DOCKED: REMARK    2  A    between atoms: N_2  and  C_3
DOCKED: REMARK    3  A    between atoms: N_2  and  C_22
DOCKED: REMARK    4  A    between atoms: C_6  and  C_9
DOCKED: REMARK    5  A    between atoms: C_9  and  C_10
DOCKED: REMARK    6  A    between atoms: C_10  and  C_11
DOCKED: REMARK    7  A    between atoms: C_10  and  C_20
DOCKED: REMARK    8  A    between atoms: C_12  and  C_13
DOCKED: REMARK    9  A    between atoms: C_12  and  C_19
DOCKED: REMARK   10  A    between atoms: C_14  and  C_15
DOCKED: REMARK                            x       y       z     vdW  Elec       q    Type
DOCKED: REMARK                         _______ _______ _______ _____ _____    ______ ____
DOCKED: USER                              x       y       z     vdW  Elec       q    Type
DOCKED: USER                           _______ _______ _______ _____ _____    ______ ____
DOCKED: ROOT
DOCKED: ATOM      1  C   UNL     1      25.673 -15.979  -1.865 -0.53 -0.00    +0.000 C 
DOCKED: ATOM      2  C   UNL     1      26.750 -17.064  -1.954 -0.31 -0.00    +0.000 C 
DOCKED: ENDROOT
DOCKED: BRANCH   1   3
DOCKED: ATOM      3  C   UNL     1      24.297 -16.615  -1.815 -0.48 -0.00    +0.000 C 
DOCKED: ATOM      4  C   UNL     1      23.932 -17.597  -0.963 -0.75 -0.00    +0.000 C 
DOCKED: ATOM      5  C   UNL     1      24.889 -18.162   0.063 -0.64 -0.00    +0.000 C 
DOCKED: BRANCH   4   6
DOCKED: ATOM      6  C   UNL     1      22.530 -18.085  -1.028 -0.78 -0.00    +0.000 C 
DOCKED: ATOM      7  C   UNL     1      22.163 -19.308  -0.622 -0.76 -0.00    +0.000 C 
DOCKED: BRANCH   7   8
DOCKED: ATOM      8  C   UNL     1      20.771 -19.804  -0.679 -0.77 -0.00    +0.000 C 
DOCKED: ATOM      9  N   UNL     1      20.116 -20.383   0.456 -0.71 -0.00    +0.000 N 
DOCKED: ATOM     10  O   UNL     1      18.810 -20.727   0.383 -0.90 -0.00    +0.000 OA
DOCKED: ATOM     11  O   UNL     1      20.154 -19.734  -1.775 -2.36 -0.00    +0.000 OA
DOCKED: ATOM     12  H   UNL     1      20.618 -20.531   1.291 -0.50 -0.00    +0.000 HD
DOCKED: ENDBRANCH   7   8
DOCKED: ENDBRANCH   4   6
DOCKED: ENDBRANCH   1   3
DOCKED: BRANCH   1  13
DOCKED: ATOM     13  C   UNL     1      25.788 -15.043  -3.052 -0.51 -0.00    +0.000 C 
DOCKED: ATOM     14  O   UNL     1      24.774 -14.382  -3.413 -0.84 -0.00    +0.000 OA
DOCKED: BRANCH  13  18
DOCKED: ATOM     15  C   UNL     1      29.429 -14.666  -5.352 -0.21 -0.00    +0.000 A 
DOCKED: ATOM     16  C   UNL     1      28.222 -15.072  -5.955 -0.35 -0.00    +0.000 A 
DOCKED: ATOM     17  C   UNL     1      27.051 -15.192  -5.204 -0.43 +0.00    +0.000 A 
DOCKED: ATOM     18  C   UNL     1      27.046 -14.902  -3.831 -0.36 -0.00    +0.000 A 
DOCKED: ATOM     19  C   UNL     1      28.249 -14.508  -3.221 -0.17 -0.00    +0.000 A 
DOCKED: ATOM     20  C   UNL     1      29.422 -14.389  -3.970 -0.11 -0.00    +0.000 A 
DOCKED: BRANCH  15  22
DOCKED: ATOM     21  C   UNL     1      30.856 -15.362  -7.330 -0.27 -0.00    +0.000 C 
DOCKED: ATOM     22  N   UNL     1      30.647 -14.540  -6.132 -0.14 -0.00    +0.000 N 
DOCKED: ATOM     23  C   UNL     1      31.692 -13.587  -5.736 -0.05 -0.00    +0.000 C 
DOCKED: ENDBRANCH  15  22
DOCKED: ENDBRANCH  13  18
DOCKED: ENDBRANCH   1  13
DOCKED: TORSDOF 6
DOCKED: TER
DOCKED: ENDMDL
________________________________________________________________________________


	BEGINNING GENETIC ALGORITHM DOCKING 5 of 100
Run: 5 Seed: 211458310 781532472 [ Run 5 of 100 GA/GALS ]
Beginning LAMARCKIAN GENETIC ALGORITHM (LGA), with a maximum of 2500000 energy evaluations.

Final-Value: -14.282


	FINAL GENETIC ALGORITHM DOCKED STATE
	_______________________________________________


Detailed state:  trans 26.390 -15.449 -0.630 quatxyzw -0.910252 -0.281464 -0.034702 -0.301687 center -0.973 -0.390 0.234 ntor 6 -65.6557 -174.6679 -66.8400 -145.4419 30.9965 -57.5220
State:	 26.390 -15.449  -0.630  -0.955 -0.295 -0.036 -144.882    -65.66 -174.67  -66.84 -145.44   31.00  -57.52

DOCKED: MODEL        5
DOCKED: USER    Run = 5
DOCKED: USER    DPF = ligand_dock.biased.dpf
DOCKED: USER  
DOCKED: USER    Estimated Free Energy of Binding    =  -11.29 kcal/mol  [=(1)+(2)+(3)-(4)]
DOCKED: USER    Estimated Inhibition Constant, Ki   =    5.34 nM (nanomolar)  [Temperature = 298.15 K]
DOCKED: USER    
DOCKED: USER    (1) Final Intermolecular Energy     =  -13.08 kcal/mol
DOCKED: USER        vdW + Hbond + desolv Energy     =  -13.08 kcal/mol
DOCKED: USER        Electrostatic Energy            =   +0.00 kcal/mol
DOCKED: USER    (2) Final Total Internal Energy     =   -1.21 kcal/mol
DOCKED: USER    (3) Torsional Free Energy           =   +1.79 kcal/mol
DOCKED: USER    (4) Unbound System's Energy  [=(2)] =   -1.21 kcal/mol
DOCKED: USER    
DOCKED: USER    
DOCKED: USER    NEWDPF move ligand.pdbqt
DOCKED: USER    NEWDPF about -0.973000 -0.390000 0.234000
DOCKED: USER    NEWDPF tran0 26.389662 -15.448538 -0.630187
DOCKED: USER    NEWDPF quaternion0 -0.910252 -0.281464 -0.034702 -0.301687
DOCKED: USER    NEWDPF axisangle0 -0.954736 -0.295220 -0.036398 -144.882044
DOCKED: USER    NEWDPF quat0 -0.954736 -0.295220 -0.036398 -144.882044
DOCKED: USER    NEWDPF dihe0 -65.66 -174.67 -66.84 -145.44 31.00 -57.52 
DOCKED: USER  keepresnum = 1 
DOCKED: USER  
DOCKED: REMARK  Name = 
DOCKED: REMARK  10 active torsions:
DOCKED: REMARK  status: ('A' for Active; 'I' for Inactive)
DOCKED: REMARK    1  A    between atoms: C_1  and  N_2
DOCKED: REMARK    2  A    between atoms: N_2  and  C_3
DOCKED: REMARK    3  A    between atoms: N_2  and  C_22
DOCKED: REMARK    4  A    between atoms: C_6  and  C_9
DOCKED: REMARK    5  A    between atoms: C_9  and  C_10
DOCKED: REMARK    6  A    between atoms: C_10  and  C_11
DOCKED: REMARK    7  A    between atoms: C_10  and  C_20
DOCKED: REMARK    8  A    between atoms: C_12  and  C_13
DOCKED: REMARK    9  A    between atoms: C_12  and  C_19
DOCKED: REMARK   10  A    between atoms: C_14  and  C_15
DOCKED: REMARK                            x       y       z     vdW  Elec       q    Type
DOCKED: REMARK                         _______ _______ _______ _____ _____    ______ ____
DOCKED: USER                              x       y       z     vdW  Elec       q    Type
DOCKED: USER                           _______ _______ _______ _____ _____    ______ ____
DOCKED: ROOT
DOCKED: ATOM      1  C   UNL     1      26.864 -15.521  -2.156 -0.37 -0.00    +0.000 C 
DOCKED: ATOM      2  C   UNL     1      27.226 -15.554  -3.643 -0.39 -0.00    +0.000 C 
DOCKED: ENDROOT
DOCKED: BRANCH   1   3
DOCKED: ATOM      3  C   UNL     1      25.401 -15.874  -1.968 -0.53 -0.00    +0.000 C 
DOCKED: ATOM      4  C   UNL     1      24.944 -16.889  -1.205 -0.64 -0.00    +0.000 C 
DOCKED: ATOM      5  C   UNL     1      25.879 -17.791  -0.431 -0.65 -0.00    +0.000 C 
DOCKED: BRANCH   4   6
DOCKED: ATOM      6  C   UNL     1      23.473 -17.075  -1.107 -0.65 -0.00    +0.000 C 
DOCKED: ATOM      7  C   UNL     1      22.886 -18.279  -1.117 -0.80 -0.00    +0.000 C 
DOCKED: BRANCH   7   8
DOCKED: ATOM      8  C   UNL     1      21.424 -18.476  -1.017 -0.77 -0.00    +0.000 C 
DOCKED: ATOM      9  N   UNL     1      20.800 -19.737  -1.287 -0.79 -0.00    +0.000 N 
DOCKED: ATOM     10  O   UNL     1      19.472 -19.894  -1.082 -1.78 -0.00    +0.000 OA
DOCKED: ATOM     11  O   UNL     1      20.706 -17.489  -0.707 -2.08 +0.00    +0.000 OA
DOCKED: ATOM     12  H   UNL     1      21.339 -20.491  -1.622 -0.34 -0.00    +0.000 HD
DOCKED: ENDBRANCH   7   8
DOCKED: ENDBRANCH   4   6
DOCKED: ENDBRANCH   1   3
DOCKED: BRANCH   1  13
DOCKED: ATOM     13  C   UNL     1      27.163 -14.149  -1.585 -0.25 -0.00    +0.000 C 
DOCKED: ATOM     14  O   UNL     1      27.307 -13.174  -2.374 -0.19 -0.00    +0.000 OA
DOCKED: BRANCH  13  18
DOCKED: ATOM     15  C   UNL     1      27.667 -13.519   2.662 -0.30 -0.00    +0.000 A 
DOCKED: ATOM     16  C   UNL     1      28.514 -14.388   1.946 -0.18 -0.00    +0.000 A 
DOCKED: ATOM     17  C   UNL     1      28.344 -14.586   0.575 -0.20 -0.00    +0.000 A 
DOCKED: ATOM     18  C   UNL     1      27.328 -13.917  -0.126 -0.22 -0.00    +0.000 A 
DOCKED: ATOM     19  C   UNL     1      26.472 -13.059   0.584 -0.28 -0.00    +0.000 A 
DOCKED: ATOM     20  C   UNL     1      26.640 -12.860   1.957 -0.31 -0.00    +0.000 A 
DOCKED: BRANCH  15  22
DOCKED: ATOM     21  C   UNL     1      27.801 -11.959   4.658 -0.37 +0.00    +0.000 C 
DOCKED: ATOM     22  N   UNL     1      27.844 -13.311   4.089 -0.41 -0.00    +0.000 N 
DOCKED: ATOM     23  C   UNL     1      28.069 -14.451   4.988 -0.56 -0.00    +0.000 C 
DOCKED: ENDBRANCH  15  22
DOCKED: ENDBRANCH  13  18
DOCKED: ENDBRANCH   1  13
DOCKED: TORSDOF 6
DOCKED: TER
DOCKED: ENDMDL
________________________________________________________________________________


	BEGINNING GENETIC ALGORITHM DOCKING 6 of 100
Run: 6 Seed: 571259282 1105378862 [ Run 6 of 100 GA/GALS ]
Beginning LAMARCKIAN GENETIC ALGORITHM (LGA), with a maximum of 2500000 energy evaluations.

Final-Value: -14.177


	FINAL GENETIC ALGORITHM DOCKED STATE
	_______________________________________________


Detailed state:  trans 26.240 -15.912 -0.880 quatxyzw -0.838043 -0.382047 0.114926 -0.372178 center -0.973 -0.390 0.234 ntor 6 116.8204 10.6223 144.2464 -171.5487 40.4072 -62.1566
State:	 26.240 -15.912  -0.880  -0.903 -0.412  0.124 -136.300    116.82   10.62  144.25 -171.55   40.41  -62.16

DOCKED: MODEL        6
DOCKED: USER    Run = 6
DOCKED: USER    DPF = ligand_dock.biased.dpf
DOCKED: USER  
DOCKED: USER    Estimated Free Energy of Binding    =  -11.04 kcal/mol  [=(1)+(2)+(3)-(4)]
DOCKED: USER    Estimated Inhibition Constant, Ki   =    8.02 nM (nanomolar)  [Temperature = 298.15 K]
DOCKED: USER    
DOCKED: USER    (1) Final Intermolecular Energy     =  -12.83 kcal/mol
DOCKED: USER        vdW + Hbond + desolv Energy     =  -12.83 kcal/mol
DOCKED: USER        Electrostatic Energy            =   +0.00 kcal/mol
DOCKED: USER    (2) Final Total Internal Energy     =   -1.34 kcal/mol
DOCKED: USER    (3) Torsional Free Energy           =   +1.79 kcal/mol
DOCKED: USER    (4) Unbound System's Energy  [=(2)] =   -1.34 kcal/mol
DOCKED: USER    
DOCKED: USER    
DOCKED: USER    NEWDPF move ligand.pdbqt
DOCKED: USER    NEWDPF about -0.973000 -0.390000 0.234000
DOCKED: USER    NEWDPF tran0 26.239548 -15.912460 -0.880001
DOCKED: USER    NEWDPF quaternion0 -0.838043 -0.382047 0.114926 -0.372178
DOCKED: USER    NEWDPF axisangle0 -0.902906 -0.411617 0.123821 -136.300015
DOCKED: USER    NEWDPF quat0 -0.902906 -0.411617 0.123821 -136.300015
DOCKED: USER    NEWDPF dihe0 116.82 10.62 144.25 -171.55 40.41 -62.16 
DOCKED: USER  keepresnum = 1 
DOCKED: USER  
DOCKED: REMARK  Name = 
DOCKED: REMARK  10 active torsions:
DOCKED: REMARK  status: ('A' for Active; 'I' for Inactive)
DOCKED: REMARK    1  A    between atoms: C_1  and  N_2
DOCKED: REMARK    2  A    between atoms: N_2  and  C_3
DOCKED: REMARK    3  A    between atoms: N_2  and  C_22
DOCKED: REMARK    4  A    between atoms: C_6  and  C_9
DOCKED: REMARK    5  A    between atoms: C_9  and  C_10
DOCKED: REMARK    6  A    between atoms: C_10  and  C_11
DOCKED: REMARK    7  A    between atoms: C_10  and  C_20
DOCKED: REMARK    8  A    between atoms: C_12  and  C_13
DOCKED: REMARK    9  A    between atoms: C_12  and  C_19
DOCKED: REMARK   10  A    between atoms: C_14  and  C_15
DOCKED: REMARK                            x       y       z     vdW  Elec       q    Type
DOCKED: REMARK                         _______ _______ _______ _____ _____    ______ ____
DOCKED: USER                              x       y       z     vdW  Elec       q    Type
DOCKED: USER                           _______ _______ _______ _____ _____    ______ ____
DOCKED: ROOT
DOCKED: ATOM      1  C   UNL     1      26.310 -15.768  -2.471 -0.47 -0.00    +0.000 C 
DOCKED: ATOM      2  C   UNL     1      26.275 -15.624  -3.995 -0.51 -0.00    +0.000 C 
DOCKED: ENDROOT
DOCKED: BRANCH   1   3
DOCKED: ATOM      3  C   UNL     1      25.120 -16.580  -1.998 -0.60 -0.00    +0.000 C 
DOCKED: ATOM      4  C   UNL     1      25.186 -17.612  -1.130 -0.68 -0.00    +0.000 C 
DOCKED: ATOM      5  C   UNL     1      26.496 -18.059  -0.519 -0.59 -0.00    +0.000 C 
DOCKED: BRANCH   4   6
DOCKED: ATOM      6  C   UNL     1      23.915 -18.279  -0.748 -0.80 -0.00    +0.000 C 
DOCKED: ATOM      7  C   UNL     1      22.709 -17.797  -1.079 -0.73 -0.00    +0.000 C 
DOCKED: BRANCH   7   8
DOCKED: ATOM      8  C   UNL     1      21.438 -18.453  -0.707 -0.85 -0.00    +0.000 C 
DOCKED: ATOM      9  N   UNL     1      21.394 -19.743  -0.084 -0.64 -0.00    +0.000 N 
DOCKED: ATOM     10  O   UNL     1      20.213 -20.256   0.331 -0.94 -0.00    +0.000 OA
DOCKED: ATOM     11  O   UNL     1      20.357 -17.863  -0.973 -2.20 -0.00    +0.000 OA
DOCKED: ATOM     12  H   UNL     1      22.225 -20.257   0.042 -0.55 -0.00    +0.000 HD
DOCKED: ENDBRANCH   7   8
DOCKED: ENDBRANCH   4   6
DOCKED: ENDBRANCH   1   3
DOCKED: BRANCH   1  13
DOCKED: ATOM     13  C   UNL     1      26.315 -14.397  -1.825 -0.33 -0.00    +0.000 C 
DOCKED: ATOM     14  O   UNL     1      26.037 -13.386  -2.530 -0.13 -0.00    +0.000 OA
DOCKED: BRANCH  13  18
DOCKED: ATOM     15  C   UNL     1      27.367 -13.860   2.334 -0.27 -0.00    +0.000 A 
DOCKED: ATOM     16  C   UNL     1      27.988 -14.847   1.543 -0.12 -0.00    +0.000 A 
DOCKED: ATOM     17  C   UNL     1      27.641 -15.015   0.201 -0.25 -0.00    +0.000 A 
DOCKED: ATOM     18  C   UNL     1      26.670 -14.195  -0.396 -0.27 -0.00    +0.000 A 
DOCKED: ATOM     19  C   UNL     1      26.038 -13.217   0.388 -0.24 -0.00    +0.000 A 
DOCKED: ATOM     20  C   UNL     1      26.383 -13.049   1.733 -0.25 -0.00    +0.000 A 
DOCKED: BRANCH  15  22
DOCKED: ATOM     21  C   UNL     1      27.924 -14.849   4.602 -0.61 -0.00    +0.000 C 
DOCKED: ATOM     22  N   UNL     1      27.727 -13.685   3.729 -0.43 -0.00    +0.000 N 
DOCKED: ATOM     23  C   UNL     1      27.901 -12.339   4.292 -0.36 +0.00    +0.000 C 
DOCKED: ENDBRANCH  15  22
DOCKED: ENDBRANCH  13  18
DOCKED: ENDBRANCH   1  13
DOCKED: TORSDOF 6
DOCKED: TER
DOCKED: ENDMDL
________________________________________________________________________________


	BEGINNING GENETIC ALGORITHM DOCKING 7 of 100
Run: 7 Seed: 607658195 752870408 [ Run 7 of 100 GA/GALS ]
Beginning LAMARCKIAN GENETIC ALGORITHM (LGA), with a maximum of 2500000 energy evaluations.

Final-Value: -14.247


	FINAL GENETIC ALGORITHM DOCKED STATE
	_______________________________________________


Detailed state:  trans 26.620 -15.305 -0.879 quatxyzw 0.886614 0.280460 -0.004455 0.367746 center -0.973 -0.390 0.234 ntor 6 114.6212 -166.6518 -74.5235 -148.4991 34.9724 -66.9871
State:	 26.620 -15.305  -0.879   0.953  0.302 -0.005 136.847    114.62 -166.65  -74.52 -148.50   34.97  -66.99

DOCKED: MODEL        7
DOCKED: USER    Run = 7
DOCKED: USER    DPF = ligand_dock.biased.dpf
DOCKED: USER  
DOCKED: USER    Estimated Free Energy of Binding    =  -11.20 kcal/mol  [=(1)+(2)+(3)-(4)]
DOCKED: USER    Estimated Inhibition Constant, Ki   =    6.21 nM (nanomolar)  [Temperature = 298.15 K]
DOCKED: USER    
DOCKED: USER    (1) Final Intermolecular Energy     =  -12.99 kcal/mol
DOCKED: USER        vdW + Hbond + desolv Energy     =  -12.99 kcal/mol
DOCKED: USER        Electrostatic Energy            =   +0.00 kcal/mol
DOCKED: USER    (2) Final Total Internal Energy     =   -1.26 kcal/mol
DOCKED: USER    (3) Torsional Free Energy           =   +1.79 kcal/mol
DOCKED: USER    (4) Unbound System's Energy  [=(2)] =   -1.26 kcal/mol
DOCKED: USER    
DOCKED: USER    
DOCKED: USER    NEWDPF move ligand.pdbqt
DOCKED: USER    NEWDPF about -0.973000 -0.390000 0.234000
DOCKED: USER    NEWDPF tran0 26.619518 -15.304617 -0.878674
DOCKED: USER    NEWDPF quaternion0 0.886614 0.280460 -0.004455 0.367746
DOCKED: USER    NEWDPF axisangle0 0.953425 0.301593 -0.004790 136.846616
DOCKED: USER    NEWDPF quat0 0.953425 0.301593 -0.004790 136.846616
DOCKED: USER    NEWDPF dihe0 114.62 -166.65 -74.52 -148.50 34.97 -66.99 
DOCKED: USER  keepresnum = 1 
DOCKED: USER  
DOCKED: REMARK  Name = 
DOCKED: REMARK  10 active torsions:
DOCKED: REMARK  status: ('A' for Active; 'I' for Inactive)
DOCKED: REMARK    1  A    between atoms: C_1  and  N_2
DOCKED: REMARK    2  A    between atoms: N_2  and  C_3
DOCKED: REMARK    3  A    between atoms: N_2  and  C_22
DOCKED: REMARK    4  A    between atoms: C_6  and  C_9
DOCKED: REMARK    5  A    between atoms: C_9  and  C_10
DOCKED: REMARK    6  A    between atoms: C_10  and  C_11
DOCKED: REMARK    7  A    between atoms: C_10  and  C_20
DOCKED: REMARK    8  A    between atoms: C_12  and  C_13
DOCKED: REMARK    9  A    between atoms: C_12  and  C_19
DOCKED: REMARK   10  A    between atoms: C_14  and  C_15
DOCKED: REMARK                            x       y       z     vdW  Elec       q    Type
DOCKED: REMARK                         _______ _______ _______ _____ _____    ______ ____
DOCKED: USER                              x       y       z     vdW  Elec       q    Type
DOCKED: USER                           _______ _______ _______ _____ _____    ______ ____
DOCKED: ROOT
DOCKED: ATOM      1  C   UNL     1      26.927 -15.187  -2.444 -0.35 -0.00    +0.000 C 
DOCKED: ATOM      2  C   UNL     1      27.125 -15.040  -3.955 -0.42 -0.00    +0.000 C 
DOCKED: ENDROOT
DOCKED: BRANCH   1   3
DOCKED: ATOM      3  C   UNL     1      25.506 -15.624  -2.146 -0.52 -0.00    +0.000 C 
DOCKED: ATOM      4  C   UNL     1      25.169 -16.696  -1.396 -0.62 -0.00    +0.000 C 
DOCKED: ATOM      5  C   UNL     1      26.214 -17.580  -0.752 -0.60 -0.00    +0.000 C 
DOCKED: BRANCH   4   6
DOCKED: ATOM      6  C   UNL     1      23.724 -16.963  -1.177 -0.62 -0.00    +0.000 C 
DOCKED: ATOM      7  C   UNL     1      23.171 -18.173  -1.341 -0.75 -0.00    +0.000 C 
DOCKED: BRANCH   7   8
DOCKED: ATOM      8  C   UNL     1      21.736 -18.451  -1.124 -0.71 -0.00    +0.000 C 
DOCKED: ATOM      9  N   UNL     1      21.154 -19.732  -1.392 -0.70 -0.00    +0.000 N 
DOCKED: ATOM     10  O   UNL     1      19.859 -19.967  -1.081 -1.96 -0.00    +0.000 OA
DOCKED: ATOM     11  O   UNL     1      21.000 -17.516  -0.711 -2.08 -0.00    +0.000 OA
DOCKED: ATOM     12  H   UNL     1      21.698 -20.442  -1.805 -0.42 -0.00    +0.000 HD
DOCKED: ENDBRANCH   7   8
DOCKED: ENDBRANCH   4   6
DOCKED: ENDBRANCH   1   3
DOCKED: BRANCH   1  13
DOCKED: ATOM     13  C   UNL     1      27.240 -13.874  -1.754 -0.22 -0.00    +0.000 C 
DOCKED: ATOM     14  O   UNL     1      27.442 -12.845  -2.457 -0.16 -0.00    +0.000 OA
DOCKED: BRANCH  13  18
DOCKED: ATOM     15  C   UNL     1      27.588 -13.598   2.546 -0.30 -0.00    +0.000 A 
DOCKED: ATOM     16  C   UNL     1      28.397 -14.479   1.802 -0.19 -0.00    +0.000 A 
DOCKED: ATOM     17  C   UNL     1      28.277 -14.563   0.413 -0.20 -0.00    +0.000 A 
DOCKED: ATOM     18  C   UNL     1      27.352 -13.763  -0.276 -0.20 -0.00    +0.000 A 
DOCKED: ATOM     19  C   UNL     1      26.535 -12.890   0.460 -0.27 -0.00    +0.000 A 
DOCKED: ATOM     20  C   UNL     1      26.652 -12.806   1.850 -0.31 -0.00    +0.000 A 
DOCKED: BRANCH  15  22
DOCKED: ATOM     21  C   UNL     1      27.809 -14.724   4.808 -0.58 -0.00    +0.000 C 
DOCKED: ATOM     22  N   UNL     1      27.712 -13.509   3.990 -0.44 -0.00    +0.000 N 
DOCKED: ATOM     23  C   UNL     1      27.744 -12.201   4.658 -0.37 +0.00    +0.000 C 
DOCKED: ENDBRANCH  15  22
DOCKED: ENDBRANCH  13  18
DOCKED: ENDBRANCH   1  13
DOCKED: TORSDOF 6
DOCKED: TER
DOCKED: ENDMDL
________________________________________________________________________________


	BEGINNING GENETIC ALGORITHM DOCKING 8 of 100
Run: 8 Seed: 800707177 82478143 [ Run 8 of 100 GA/GALS ]
Beginning LAMARCKIAN GENETIC ALGORITHM (LGA), with a maximum of 2500000 energy evaluations.

Final-Value: -13.968


	FINAL GENETIC ALGORITHM DOCKED STATE
	_______________________________________________


Detailed state:  trans 26.492 -15.760 -0.797 quatxyzw -0.866645 -0.315098 0.086511 -0.377036 center -0.973 -0.390 0.234 ntor 6 -166.3288 -82.5355 -169.7820 -144.1501 51.3783 -61.5853
State:	 26.492 -15.760  -0.797  -0.936 -0.340  0.093 -135.700   -166.33  -82.54 -169.78 -144.15   51.38  -61.59

DOCKED: MODEL        8
DOCKED: USER    Run = 8
DOCKED: USER    DPF = ligand_dock.biased.dpf
DOCKED: USER  
DOCKED: USER    Estimated Free Energy of Binding    =  -10.82 kcal/mol  [=(1)+(2)+(3)-(4)]
DOCKED: USER    Estimated Inhibition Constant, Ki   =   11.78 nM (nanomolar)  [Temperature = 298.15 K]
DOCKED: USER    
DOCKED: USER    (1) Final Intermolecular Energy     =  -12.61 kcal/mol
DOCKED: USER        vdW + Hbond + desolv Energy     =  -12.61 kcal/mol
DOCKED: USER        Electrostatic Energy            =   +0.00 kcal/mol
DOCKED: USER    (2) Final Total Internal Energy     =   -1.36 kcal/mol
DOCKED: USER    (3) Torsional Free Energy           =   +1.79 kcal/mol
DOCKED: USER    (4) Unbound System's Energy  [=(2)] =   -1.36 kcal/mol
DOCKED: USER    
DOCKED: USER    
DOCKED: USER    NEWDPF move ligand.pdbqt
DOCKED: USER    NEWDPF about -0.973000 -0.390000 0.234000
DOCKED: USER    NEWDPF tran0 26.491709 -15.760204 -0.796761
DOCKED: USER    NEWDPF quaternion0 -0.866645 -0.315098 0.086511 -0.377036
DOCKED: USER    NEWDPF axisangle0 -0.935701 -0.340206 0.093404 -135.699612
DOCKED: USER    NEWDPF quat0 -0.935701 -0.340206 0.093404 -135.699612
DOCKED: USER    NEWDPF dihe0 -166.33 -82.54 -169.78 -144.15 51.38 -61.59 
DOCKED: USER  keepresnum = 1 
DOCKED: USER  
DOCKED: REMARK  Name = 
DOCKED: REMARK  10 active torsions:
DOCKED: REMARK  status: ('A' for Active; 'I' for Inactive)
DOCKED: REMARK    1  A    between atoms: C_1  and  N_2
DOCKED: REMARK    2  A    between atoms: N_2  and  C_3
DOCKED: REMARK    3  A    between atoms: N_2  and  C_22
DOCKED: REMARK    4  A    between atoms: C_6  and  C_9
DOCKED: REMARK    5  A    between atoms: C_9  and  C_10
DOCKED: REMARK    6  A    between atoms: C_10  and  C_11
DOCKED: REMARK    7  A    between atoms: C_10  and  C_20
DOCKED: REMARK    8  A    between atoms: C_12  and  C_13
DOCKED: REMARK    9  A    between atoms: C_12  and  C_19
DOCKED: REMARK   10  A    between atoms: C_14  and  C_15
DOCKED: REMARK                            x       y       z     vdW  Elec       q    Type
DOCKED: REMARK                         _______ _______ _______ _____ _____    ______ ____
DOCKED: USER                              x       y       z     vdW  Elec       q    Type
DOCKED: USER                           _______ _______ _______ _____ _____    ______ ____
DOCKED: ROOT
DOCKED: ATOM      1  C   UNL     1      26.584 -15.639  -2.389 -0.42 -0.00    +0.000 C 
DOCKED: ATOM      2  C   UNL     1      26.572 -15.502  -3.914 -0.48 -0.00    +0.000 C 
DOCKED: ENDROOT
DOCKED: BRANCH   1   3
DOCKED: ATOM      3  C   UNL     1      25.282 -16.252  -1.911 -0.58 -0.00    +0.000 C 
DOCKED: ATOM      4  C   UNL     1      25.170 -17.126  -0.888 -0.64 -0.00    +0.000 C 
DOCKED: ATOM      5  C   UNL     1      26.372 -17.578  -0.088 -0.57 -0.00    +0.000 C 
DOCKED: BRANCH   4   6
DOCKED: ATOM      6  C   UNL     1      23.810 -17.605  -0.531 -0.73 -0.00    +0.000 C 
DOCKED: ATOM      7  C   UNL     1      22.858 -17.849  -1.443 -0.52 -0.00    +0.000 C 
DOCKED: BRANCH   7   8
DOCKED: ATOM      8  C   UNL     1      21.503 -18.329  -1.100 -0.68 -0.00    +0.000 C 
DOCKED: ATOM      9  N   UNL     1      21.123 -19.705  -1.221 -0.73 -0.00    +0.000 N 
DOCKED: ATOM     10  O   UNL     1      19.904 -20.112  -0.797 -1.73 -0.00    +0.000 OA
DOCKED: ATOM     11  O   UNL     1      20.649 -17.487  -0.713 -2.08 +0.00    +0.000 OA
DOCKED: ATOM     12  H   UNL     1      21.750 -20.356  -1.613 -0.37 -0.00    +0.000 HD
DOCKED: ENDBRANCH   7   8
DOCKED: ENDBRANCH   4   6
DOCKED: ENDBRANCH   1   3
DOCKED: BRANCH   1  13
DOCKED: ATOM     13  C   UNL     1      26.802 -14.281  -1.752 -0.28 -0.00    +0.000 C 
DOCKED: ATOM     14  O   UNL     1      26.675 -13.244  -2.461 -0.24 -0.00    +0.000 OA
DOCKED: BRANCH  13  18
DOCKED: ATOM     15  C   UNL     1      27.981 -13.878   2.388 -0.28 -0.00    +0.000 A 
DOCKED: ATOM     16  C   UNL     1      28.802 -14.542   1.455 -0.13 -0.00    +0.000 A 
DOCKED: ATOM     17  C   UNL     1      28.413 -14.669   0.120 -0.19 -0.00    +0.000 A 
DOCKED: ATOM     18  C   UNL     1      27.197 -14.128  -0.327 -0.23 -0.00    +0.000 A 
DOCKED: ATOM     19  C   UNL     1      26.368 -13.475   0.600 -0.26 -0.00    +0.000 A 
DOCKED: ATOM     20  C   UNL     1      26.755 -13.348   1.937 -0.26 -0.00    +0.000 A 
DOCKED: BRANCH  15  22
DOCKED: ATOM     21  C   UNL     1      29.800 -13.579   4.130 -0.28 -0.00    +0.000 C 
DOCKED: ATOM     22  N   UNL     1      28.385 -13.744   3.776 -0.36 -0.00    +0.000 N 
DOCKED: ATOM     23  C   UNL     1      27.384 -13.772   4.851 -0.54 -0.00    +0.000 C 
DOCKED: ENDBRANCH  15  22
DOCKED: ENDBRANCH  13  18
DOCKED: ENDBRANCH   1  13
DOCKED: TORSDOF 6
DOCKED: TER
DOCKED: ENDMDL
________________________________________________________________________________


	BEGINNING GENETIC ALGORITHM DOCKING 9 of 100
Run: 9 Seed: 1712191832 299716222 [ Run 9 of 100 GA/GALS ]
Beginning LAMARCKIAN GENETIC ALGORITHM (LGA), with a maximum of 2500000 energy evaluations.

Final-Value: -13.565


	FINAL GENETIC ALGORITHM DOCKED STATE
	_______________________________________________


Detailed state:  trans 25.947 -15.920 0.900 quatxyzw 0.903575 0.407424 0.129902 0.026157 center -0.973 -0.390 0.234 ntor 6 123.8221 116.3398 176.3663 -168.7307 -144.2336 -25.6447
State:	 25.947 -15.920   0.900   0.904  0.408  0.130 177.002    123.82  116.34  176.37 -168.73 -144.23  -25.64

DOCKED: MODEL        9
DOCKED: USER    Run = 9
DOCKED: USER    DPF = ligand_dock.biased.dpf
DOCKED: USER  
DOCKED: USER    Estimated Free Energy of Binding    =  -10.93 kcal/mol  [=(1)+(2)+(3)-(4)]
DOCKED: USER    Estimated Inhibition Constant, Ki   =    9.69 nM (nanomolar)  [Temperature = 298.15 K]
DOCKED: USER    
DOCKED: USER    (1) Final Intermolecular Energy     =  -12.72 kcal/mol
DOCKED: USER        vdW + Hbond + desolv Energy     =  -12.72 kcal/mol
DOCKED: USER        Electrostatic Energy            =   +0.00 kcal/mol
DOCKED: USER    (2) Final Total Internal Energy     =   -0.84 kcal/mol
DOCKED: USER    (3) Torsional Free Energy           =   +1.79 kcal/mol
DOCKED: USER    (4) Unbound System's Energy  [=(2)] =   -0.84 kcal/mol
DOCKED: USER    
DOCKED: USER    
DOCKED: USER    NEWDPF move ligand.pdbqt
DOCKED: USER    NEWDPF about -0.973000 -0.390000 0.234000
DOCKED: USER    NEWDPF tran0 25.947490 -15.920413 0.899507
DOCKED: USER    NEWDPF quaternion0 0.903575 0.407424 0.129902 0.026157
DOCKED: USER    NEWDPF axisangle0 0.903884 0.407563 0.129947 177.002312
DOCKED: USER    NEWDPF quat0 0.903884 0.407563 0.129947 177.002312
DOCKED: USER    NEWDPF dihe0 123.82 116.34 176.37 -168.73 -144.23 -25.64 
DOCKED: USER  keepresnum = 1 
DOCKED: USER  
DOCKED: REMARK  Name = 
DOCKED: REMARK  10 active torsions:
DOCKED: REMARK  status: ('A' for Active; 'I' for Inactive)
DOCKED: REMARK    1  A    between atoms: C_1  and  N_2
DOCKED: REMARK    2  A    between atoms: N_2  and  C_3
DOCKED: REMARK    3  A    between atoms: N_2  and  C_22
DOCKED: REMARK    4  A    between atoms: C_6  and  C_9
DOCKED: REMARK    5  A    between atoms: C_9  and  C_10
DOCKED: REMARK    6  A    between atoms: C_10  and  C_11
DOCKED: REMARK    7  A    between atoms: C_10  and  C_20
DOCKED: REMARK    8  A    between atoms: C_12  and  C_13
DOCKED: REMARK    9  A    between atoms: C_12  and  C_19
DOCKED: REMARK   10  A    between atoms: C_14  and  C_15
DOCKED: REMARK                            x       y       z     vdW  Elec       q    Type
DOCKED: REMARK                         _______ _______ _______ _____ _____    ______ ____
DOCKED: USER                              x       y       z     vdW  Elec       q    Type
DOCKED: USER                           _______ _______ _______ _____ _____    ______ ____
DOCKED: ROOT
DOCKED: ATOM      1  C   UNL     1      27.022 -16.478  -0.145 -0.43 -0.00    +0.000 C 
DOCKED: ATOM      2  C   UNL     1      27.976 -17.013  -1.217 -0.39 -0.00    +0.000 C 
DOCKED: ENDROOT
DOCKED: BRANCH   1   3
DOCKED: ATOM      3  C   UNL     1      25.638 -17.067  -0.341 -0.53 -0.00    +0.000 C 
DOCKED: ATOM      4  C   UNL     1      24.945 -17.040  -1.499 -0.65 -0.00    +0.000 C 
DOCKED: ATOM      5  C   UNL     1      25.509 -16.411  -2.753 -0.53 -0.00    +0.000 C 
DOCKED: BRANCH   4   6
DOCKED: ATOM      6  C   UNL     1      23.611 -17.695  -1.524 -0.66 -0.00    +0.000 C 
DOCKED: ATOM      7  C   UNL     1      22.879 -17.903  -0.421 -0.80 -0.00    +0.000 C 
DOCKED: BRANCH   7   8
DOCKED: ATOM      8  C   UNL     1      21.550 -18.550  -0.434 -0.83 -0.00    +0.000 C 
DOCKED: ATOM      9  N   UNL     1      21.369 -19.935  -0.116 -0.55 -0.00    +0.000 N 
DOCKED: ATOM     10  O   UNL     1      20.123 -20.457  -0.041 -1.19 -0.00    +0.000 OA
DOCKED: ATOM     11  O   UNL     1      20.549 -17.859  -0.761 -2.30 -0.00    +0.000 OA
DOCKED: ATOM     12  H   UNL     1      22.153 -20.509   0.047 -0.57 -0.00    +0.000 HD
DOCKED: ENDBRANCH   7   8
DOCKED: ENDBRANCH   4   6
DOCKED: ENDBRANCH   1   3
DOCKED: BRANCH   1  13
DOCKED: ATOM     13  C   UNL     1      26.975 -14.964  -0.209 -0.33 -0.00    +0.000 C 
DOCKED: ATOM     14  O   UNL     1      26.779 -14.403  -1.323 -0.29 -0.00    +0.000 OA
DOCKED: BRANCH  13  18
DOCKED: ATOM     15  C   UNL     1      27.609 -12.533   3.309 -0.28 -0.00    +0.000 A 
DOCKED: ATOM     16  C   UNL     1      28.339 -13.719   3.098 -0.30 -0.00    +0.000 A 
DOCKED: ATOM     17  C   UNL     1      28.127 -14.499   1.960 -0.22 -0.00    +0.000 A 
DOCKED: ATOM     18  C   UNL     1      27.186 -14.115   0.992 -0.24 -0.00    +0.000 A 
DOCKED: ATOM     19  C   UNL     1      26.445 -12.939   1.201 -0.31 -0.00    +0.000 A 
DOCKED: ATOM     20  C   UNL     1      26.655 -12.158   2.341 -0.27 +0.00    +0.000 A 
DOCKED: BRANCH  15  22
DOCKED: ATOM     21  C   UNL     1      28.139 -12.348   5.783 -0.45 +0.00    +0.000 C 
DOCKED: ATOM     22  N   UNL     1      27.829 -11.721   4.492 -0.34 +0.00    +0.000 N 
DOCKED: ATOM     23  C   UNL     1      27.745 -10.256   4.419 -0.28 +0.00    +0.000 C 
DOCKED: ENDBRANCH  15  22
DOCKED: ENDBRANCH  13  18
DOCKED: ENDBRANCH   1  13
DOCKED: TORSDOF 6
DOCKED: TER
DOCKED: ENDMDL
________________________________________________________________________________


	BEGINNING GENETIC ALGORITHM DOCKING 10 of 100
Run: 10 Seed: 100217179 1734795830 [ Run 10 of 100 GA/GALS ]
Beginning LAMARCKIAN GENETIC ALGORITHM (LGA), with a maximum of 2500000 energy evaluations.

Final-Value: -14.257


	FINAL GENETIC ALGORITHM DOCKED STATE
	_______________________________________________


Detailed state:  trans 26.111 -15.867 -0.283 quatxyzw -0.871105 -0.387654 0.075856 -0.291798 center -0.973 -0.390 0.234 ntor 6 128.1502 -10.2780 167.9803 -174.7811 27.1788 -53.3518
State:	 26.111 -15.867  -0.283  -0.911 -0.405  0.079 -146.069    128.15  -10.28  167.98 -174.78   27.18  -53.35

DOCKED: MODEL       10
DOCKED: USER    Run = 10
DOCKED: USER    DPF = ligand_dock.biased.dpf
DOCKED: USER  
DOCKED: USER    Estimated Free Energy of Binding    =  -11.20 kcal/mol  [=(1)+(2)+(3)-(4)]
DOCKED: USER    Estimated Inhibition Constant, Ki   =    6.13 nM (nanomolar)  [Temperature = 298.15 K]
DOCKED: USER    
DOCKED: USER    (1) Final Intermolecular Energy     =  -12.99 kcal/mol
DOCKED: USER        vdW + Hbond + desolv Energy     =  -12.99 kcal/mol
DOCKED: USER        Electrostatic Energy            =   +0.00 kcal/mol
DOCKED: USER    (2) Final Total Internal Energy     =   -1.26 kcal/mol
DOCKED: USER    (3) Torsional Free Energy           =   +1.79 kcal/mol
DOCKED: USER    (4) Unbound System's Energy  [=(2)] =   -1.26 kcal/mol
DOCKED: USER    
DOCKED: USER    
DOCKED: USER    NEWDPF move ligand.pdbqt
DOCKED: USER    NEWDPF about -0.973000 -0.390000 0.234000
DOCKED: USER    NEWDPF tran0 26.110800 -15.866676 -0.282572
DOCKED: USER    NEWDPF quaternion0 -0.871105 -0.387654 0.075856 -0.291798
DOCKED: USER    NEWDPF axisangle0 -0.910741 -0.405292 0.079308 -146.068758
DOCKED: USER    NEWDPF quat0 -0.910741 -0.405292 0.079308 -146.068758
DOCKED: USER    NEWDPF dihe0 128.15 -10.28 167.98 -174.78 27.18 -53.35 
DOCKED: USER  keepresnum = 1 
DOCKED: USER  
DOCKED: REMARK  Name = 
DOCKED: REMARK  10 active torsions:
DOCKED: REMARK  status: ('A' for Active; 'I' for Inactive)
DOCKED: REMARK    1  A    between atoms: C_1  and  N_2
DOCKED: REMARK    2  A    between atoms: N_2  and  C_3
DOCKED: REMARK    3  A    between atoms: N_2  and  C_22
DOCKED: REMARK    4  A    between atoms: C_6  and  C_9
DOCKED: REMARK    5  A    between atoms: C_9  and  C_10
DOCKED: REMARK    6  A    between atoms: C_10  and  C_11
DOCKED: REMARK    7  A    between atoms: C_10  and  C_20
DOCKED: REMARK    8  A    between atoms: C_12  and  C_13
DOCKED: REMARK    9  A    between atoms: C_12  and  C_19
DOCKED: REMARK   10  A    between atoms: C_14  and  C_15
DOCKED: REMARK                            x       y       z     vdW  Elec       q    Type
DOCKED: REMARK                         _______ _______ _______ _____ _____    ______ ____
DOCKED: USER                              x       y       z     vdW  Elec       q    Type
DOCKED: USER                           _______ _______ _______ _____ _____    ______ ____
DOCKED: ROOT
DOCKED: ATOM      1  C   UNL     1      26.403 -15.931  -1.853 -0.45 -0.00    +0.000 C 
DOCKED: ATOM      2  C   UNL     1      26.581 -15.984  -3.374 -0.34 -0.00    +0.000 C 
DOCKED: ENDROOT
DOCKED: BRANCH   1   3
DOCKED: ATOM      3  C   UNL     1      25.131 -16.653  -1.453 -0.62 -0.00    +0.000 C 
DOCKED: ATOM      4  C   UNL     1      25.080 -17.736  -0.647 -0.70 -0.00    +0.000 C 
DOCKED: ATOM      5  C   UNL     1      26.327 -18.339  -0.040 -0.62 -0.00    +0.000 C 
DOCKED: BRANCH   4   6
DOCKED: ATOM      6  C   UNL     1      23.744 -18.302  -0.331 -0.78 -0.00    +0.000 C 
DOCKED: ATOM      7  C   UNL     1      22.635 -17.982  -1.012 -0.77 -0.00    +0.000 C 
DOCKED: BRANCH   7   8
DOCKED: ATOM      8  C   UNL     1      21.301 -18.541  -0.708 -0.85 -0.00    +0.000 C 
DOCKED: ATOM      9  N   UNL     1      21.127 -19.832  -0.112 -0.67 -0.00    +0.000 N 
DOCKED: ATOM     10  O   UNL     1      19.892 -20.256   0.242 -1.03 -0.00    +0.000 OA
DOCKED: ATOM     11  O   UNL     1      20.283 -17.862  -1.009 -2.18 -0.00    +0.000 OA
DOCKED: ATOM     12  H   UNL     1      21.909 -20.412   0.041 -0.57 -0.00    +0.000 HD
DOCKED: ENDBRANCH   7   8
DOCKED: ENDBRANCH   4   6
DOCKED: ENDBRANCH   1   3
DOCKED: BRANCH   1  13
DOCKED: ATOM     13  C   UNL     1      26.368 -14.487  -1.391 -0.33 -0.00    +0.000 C 
DOCKED: ATOM     14  O   UNL     1      26.058 -13.585  -2.219 -0.16 -0.00    +0.000 OA
DOCKED: BRANCH  13  18
DOCKED: ATOM     15  C   UNL     1      27.409 -13.386   2.657 -0.32 -0.00    +0.000 A 
DOCKED: ATOM     16  C   UNL     1      28.011 -14.490   2.022 -0.23 -0.00    +0.000 A 
DOCKED: ATOM     17  C   UNL     1      27.668 -14.840   0.715 -0.25 -0.00    +0.000 A 
DOCKED: ATOM     18  C   UNL     1      26.720 -14.092  -0.002 -0.27 -0.00    +0.000 A 
DOCKED: ATOM     19  C   UNL     1      26.108 -12.997   0.629 -0.28 -0.00    +0.000 A 
DOCKED: ATOM     20  C   UNL     1      26.449 -12.646   1.938 -0.28 +0.00    +0.000 A 
DOCKED: BRANCH  15  22
DOCKED: ATOM     21  C   UNL     1      28.171 -14.048   4.985 -0.56 -0.00    +0.000 C 
DOCKED: ATOM     22  N   UNL     1      27.766 -13.021   4.017 -0.38 -0.00    +0.000 N 
DOCKED: ATOM     23  C   UNL     1      27.729 -11.617   4.448 -0.34 +0.00    +0.000 C 
DOCKED: ENDBRANCH  15  22
DOCKED: ENDBRANCH  13  18
DOCKED: ENDBRANCH   1  13
DOCKED: TORSDOF 6
DOCKED: TER
DOCKED: ENDMDL
________________________________________________________________________________


	BEGINNING GENETIC ALGORITHM DOCKING 11 of 100
Run: 11 Seed: 1153446183 1865506313 [ Run 11 of 100 GA/GALS ]
Beginning LAMARCKIAN GENETIC ALGORITHM (LGA), with a maximum of 2500000 energy evaluations.

Final-Value: -14.455


	FINAL GENETIC ALGORITHM DOCKED STATE
	_______________________________________________


Detailed state:  trans 26.467 -15.304 -0.738 quatxyzw -0.889081 -0.312668 -0.005785 -0.334277 center -0.973 -0.390 0.234 ntor 6 -53.0764 171.7508 -84.7516 15.3803 42.6506 -59.1478
State:	 26.467 -15.304  -0.738  -0.943 -0.332 -0.006 -140.943    -53.08  171.75  -84.75   15.38   42.65  -59.15

DOCKED: MODEL       11
DOCKED: USER    Run = 11
DOCKED: USER    DPF = ligand_dock.biased.dpf
DOCKED: USER  
DOCKED: USER    Estimated Free Energy of Binding    =  -11.41 kcal/mol  [=(1)+(2)+(3)-(4)]
DOCKED: USER    Estimated Inhibition Constant, Ki   =    4.30 nM (nanomolar)  [Temperature = 298.15 K]
DOCKED: USER    
DOCKED: USER    (1) Final Intermolecular Energy     =  -13.20 kcal/mol
DOCKED: USER        vdW + Hbond + desolv Energy     =  -13.20 kcal/mol
DOCKED: USER        Electrostatic Energy            =   +0.00 kcal/mol
DOCKED: USER    (2) Final Total Internal Energy     =   -1.25 kcal/mol
DOCKED: USER    (3) Torsional Free Energy           =   +1.79 kcal/mol
DOCKED: USER    (4) Unbound System's Energy  [=(2)] =   -1.25 kcal/mol
DOCKED: USER    
DOCKED: USER    
DOCKED: USER    NEWDPF move ligand.pdbqt
DOCKED: USER    NEWDPF about -0.973000 -0.390000 0.234000
DOCKED: USER    NEWDPF tran0 26.467382 -15.303791 -0.738101
DOCKED: USER    NEWDPF quaternion0 -0.889081 -0.312668 -0.005785 -0.334277
DOCKED: USER    NEWDPF axisangle0 -0.943347 -0.331752 -0.006139 -140.942885
DOCKED: USER    NEWDPF quat0 -0.943347 -0.331752 -0.006139 -140.942885
DOCKED: USER    NEWDPF dihe0 -53.08 171.75 -84.75 15.38 42.65 -59.15 
DOCKED: USER  keepresnum = 1 
DOCKED: USER  
DOCKED: REMARK  Name = 
DOCKED: REMARK  10 active torsions:
DOCKED: REMARK  status: ('A' for Active; 'I' for Inactive)
DOCKED: REMARK    1  A    between atoms: C_1  and  N_2
DOCKED: REMARK    2  A    between atoms: N_2  and  C_3
DOCKED: REMARK    3  A    between atoms: N_2  and  C_22
DOCKED: REMARK    4  A    between atoms: C_6  and  C_9
DOCKED: REMARK    5  A    between atoms: C_9  and  C_10
DOCKED: REMARK    6  A    between atoms: C_10  and  C_11
DOCKED: REMARK    7  A    between atoms: C_10  and  C_20
DOCKED: REMARK    8  A    between atoms: C_12  and  C_13
DOCKED: REMARK    9  A    between atoms: C_12  and  C_19
DOCKED: REMARK   10  A    between atoms: C_14  and  C_15
DOCKED: REMARK                            x       y       z     vdW  Elec       q    Type
DOCKED: REMARK                         _______ _______ _______ _____ _____    ______ ____
DOCKED: USER                              x       y       z     vdW  Elec       q    Type
DOCKED: USER                           _______ _______ _______ _____ _____    ______ ____
DOCKED: ROOT
DOCKED: ATOM      1  C   UNL     1      26.865 -15.255  -2.286 -0.35 -0.00    +0.000 C 
DOCKED: ATOM      2  C   UNL     1      27.149 -15.179  -3.789 -0.41 -0.00    +0.000 C 
DOCKED: ENDROOT
DOCKED: BRANCH   1   3
DOCKED: ATOM      3  C   UNL     1      25.450 -15.746  -2.049 -0.52 -0.00    +0.000 C 
DOCKED: ATOM      4  C   UNL     1      25.102 -16.693  -1.151 -0.62 -0.00    +0.000 C 
DOCKED: ATOM      5  C   UNL     1      26.125 -17.364  -0.261 -0.57 -0.00    +0.000 C 
DOCKED: BRANCH   4   6
DOCKED: ATOM      6  C   UNL     1      23.662 -17.033  -1.024 -0.66 -0.00    +0.000 C 
DOCKED: ATOM      7  C   UNL     1      23.184 -18.271  -1.213 -0.79 -0.00    +0.000 C 
DOCKED: BRANCH   7   8
DOCKED: ATOM      8  C   UNL     1      21.754 -18.622  -1.087 -0.80 -0.00    +0.000 C 
DOCKED: ATOM      9  N   UNL     1      21.173 -19.733  -1.781 -0.59 -0.00    +0.000 N 
DOCKED: ATOM     10  O   UNL     1      19.884 -20.076  -1.553 -2.07 -0.00    +0.000 OA
DOCKED: ATOM     11  O   UNL     1      21.020 -17.899  -0.362 -1.94 +0.00    +0.000 OA
DOCKED: ATOM     12  H   UNL     1      21.713 -20.248  -2.424 -0.59 -0.00    +0.000 HD
DOCKED: ENDBRANCH   7   8
DOCKED: ENDBRANCH   4   6
DOCKED: ENDBRANCH   1   3
DOCKED: BRANCH   1  13
DOCKED: ATOM     13  C   UNL     1      27.073 -13.893  -1.655 -0.24 -0.00    +0.000 C 
DOCKED: ATOM     14  O   UNL     1      27.121 -12.873  -2.398 -0.19 -0.00    +0.000 OA
DOCKED: BRANCH  13  18
DOCKED: ATOM     15  C   UNL     1      27.600 -13.337   2.600 -0.30 -0.00    +0.000 A 
DOCKED: ATOM     16  C   UNL     1      26.794 -12.464   1.843 -0.30 -0.00    +0.000 A 
DOCKED: ATOM     17  C   UNL     1      26.631 -12.650   0.468 -0.26 -0.00    +0.000 A 
DOCKED: ATOM     18  C   UNL     1      27.259 -13.719  -0.190 -0.21 -0.00    +0.000 A 
DOCKED: ATOM     19  C   UNL     1      28.073 -14.587   0.556 -0.22 -0.00    +0.000 A 
DOCKED: ATOM     20  C   UNL     1      28.239 -14.401   1.932 -0.22 -0.00    +0.000 A 
DOCKED: BRANCH  15  22
DOCKED: ATOM     21  C   UNL     1      27.954 -14.297   4.921 -0.59 -0.00    +0.000 C 
DOCKED: ATOM     22  N   UNL     1      27.770 -13.145   4.029 -0.39 -0.00    +0.000 N 
DOCKED: ATOM     23  C   UNL     1      27.763 -11.795   4.608 -0.36 +0.00    +0.000 C 
DOCKED: ENDBRANCH  15  22
DOCKED: ENDBRANCH  13  18
DOCKED: ENDBRANCH   1  13
DOCKED: TORSDOF 6
DOCKED: TER
DOCKED: ENDMDL
________________________________________________________________________________


	BEGINNING GENETIC ALGORITHM DOCKING 12 of 100
Run: 12 Seed: 1191446610 2133155023 [ Run 12 of 100 GA/GALS ]
Beginning LAMARCKIAN GENETIC ALGORITHM (LGA), with a maximum of 2500000 energy evaluations.

Final-Value: -13.655


	FINAL GENETIC ALGORITHM DOCKED STATE
	_______________________________________________


Detailed state:  trans 26.350 -14.819 -2.361 quatxyzw 0.549272 0.232064 -0.048280 -0.801321 center -0.973 -0.390 0.234 ntor 6 -24.6133 176.6565 -32.2023 -45.1212 -143.4138 -46.5553
State:	 26.350 -14.819  -2.361   0.918  0.388 -0.081 -73.487    -24.61  176.66  -32.20  -45.12 -143.41  -46.56

DOCKED: MODEL       12
DOCKED: USER    Run = 12
DOCKED: USER    DPF = ligand_dock.biased.dpf
DOCKED: USER  
DOCKED: USER    Estimated Free Energy of Binding    =  -10.97 kcal/mol  [=(1)+(2)+(3)-(4)]
DOCKED: USER    Estimated Inhibition Constant, Ki   =    9.09 nM (nanomolar)  [Temperature = 298.15 K]
DOCKED: USER    
DOCKED: USER    (1) Final Intermolecular Energy     =  -12.76 kcal/mol
DOCKED: USER        vdW + Hbond + desolv Energy     =  -12.76 kcal/mol
DOCKED: USER        Electrostatic Energy            =   +0.00 kcal/mol
DOCKED: USER    (2) Final Total Internal Energy     =   -0.89 kcal/mol
DOCKED: USER    (3) Torsional Free Energy           =   +1.79 kcal/mol
DOCKED: USER    (4) Unbound System's Energy  [=(2)] =   -0.89 kcal/mol
DOCKED: USER    
DOCKED: USER    
DOCKED: USER    NEWDPF move ligand.pdbqt
DOCKED: USER    NEWDPF about -0.973000 -0.390000 0.234000
DOCKED: USER    NEWDPF tran0 26.350421 -14.818700 -2.360826
DOCKED: USER    NEWDPF quaternion0 0.549272 0.232064 -0.048280 -0.801321
DOCKED: USER    NEWDPF axisangle0 0.918155 0.387915 -0.080704 -73.487042
DOCKED: USER    NEWDPF quat0 0.918155 0.387915 -0.080704 -73.487042
DOCKED: USER    NEWDPF dihe0 -24.61 176.66 -32.20 -45.12 -143.41 -46.56 
DOCKED: USER  keepresnum = 1 
DOCKED: USER  
DOCKED: REMARK  Name = 
DOCKED: REMARK  10 active torsions:
DOCKED: REMARK  status: ('A' for Active; 'I' for Inactive)
DOCKED: REMARK    1  A    between atoms: C_1  and  N_2
DOCKED: REMARK    2  A    between atoms: N_2  and  C_3
DOCKED: REMARK    3  A    between atoms: N_2  and  C_22
DOCKED: REMARK    4  A    between atoms: C_6  and  C_9
DOCKED: REMARK    5  A    between atoms: C_9  and  C_10
DOCKED: REMARK    6  A    between atoms: C_10  and  C_11
DOCKED: REMARK    7  A    between atoms: C_10  and  C_20
DOCKED: REMARK    8  A    between atoms: C_12  and  C_13
DOCKED: REMARK    9  A    between atoms: C_12  and  C_19
DOCKED: REMARK   10  A    between atoms: C_14  and  C_15
DOCKED: REMARK                            x       y       z     vdW  Elec       q    Type
DOCKED: REMARK                         _______ _______ _______ _____ _____    ______ ____
DOCKED: USER                              x       y       z     vdW  Elec       q    Type
DOCKED: USER                           _______ _______ _______ _____ _____    ______ ____
DOCKED: ROOT
DOCKED: ATOM      1  C   UNL     1      27.093 -15.423  -1.080 -0.34 -0.00    +0.000 C 
DOCKED: ATOM      2  C   UNL     1      27.742 -16.084   0.140 -0.30 -0.00    +0.000 C 
DOCKED: ENDROOT
DOCKED: BRANCH   1   3
DOCKED: ATOM      3  C   UNL     1      25.610 -15.739  -1.115 -0.48 -0.00    +0.000 C 
DOCKED: ATOM      4  C   UNL     1      25.084 -16.980  -1.029 -0.64 -0.00    +0.000 C 
DOCKED: ATOM      5  C   UNL     1      25.954 -18.208  -0.871 -0.55 -0.00    +0.000 C 
DOCKED: BRANCH   4   6
DOCKED: ATOM      6  C   UNL     1      23.604 -17.108  -1.048 -0.69 -0.00    +0.000 C 
DOCKED: ATOM      7  C   UNL     1      22.973 -18.290  -1.078 -0.81 -0.00    +0.000 C 
DOCKED: BRANCH   7   8
DOCKED: ATOM      8  C   UNL     1      21.502 -18.430  -1.094 -0.72 -0.00    +0.000 C 
DOCKED: ATOM      9  N   UNL     1      20.849 -19.618  -1.559 -0.77 -0.00    +0.000 N 
DOCKED: ATOM     10  O   UNL     1      19.505 -19.737  -1.458 -2.08 -0.00    +0.000 OA
DOCKED: ATOM     11  O   UNL     1      20.802 -17.456  -0.707 -2.04 +0.00    +0.000 OA
DOCKED: ATOM     12  H   UNL     1      21.380 -20.348  -1.953 -0.46 -0.00    +0.000 HD
DOCKED: ENDBRANCH   7   8
DOCKED: ENDBRANCH   4   6
DOCKED: ENDBRANCH   1   3
DOCKED: BRANCH   1  13
DOCKED: ATOM     13  C   UNL     1      27.774 -15.901  -2.347 -0.31 -0.00    +0.000 C 
DOCKED: ATOM     14  O   UNL     1      28.294 -17.052  -2.367 -0.34 -0.00    +0.000 OA
DOCKED: BRANCH  13  18
DOCKED: ATOM     15  C   UNL     1      28.137 -13.434  -5.878 -0.25 -0.00    +0.000 A 
DOCKED: ATOM     16  C   UNL     1      28.967 -14.555  -5.680 -0.28 -0.00    +0.000 A 
DOCKED: ATOM     17  C   UNL     1      28.844 -15.345  -4.536 -0.26 -0.00    +0.000 A 
DOCKED: ATOM     18  C   UNL     1      27.882 -15.047  -3.558 -0.25 -0.00    +0.000 A 
DOCKED: ATOM     19  C   UNL     1      27.058 -13.924  -3.743 -0.28 -0.00    +0.000 A 
DOCKED: ATOM     20  C   UNL     1      27.181 -13.131  -4.887 -0.25 -0.00    +0.000 A 
DOCKED: BRANCH  15  22
DOCKED: ATOM     21  C   UNL     1      27.337 -11.499  -7.309 -0.20 -0.00    +0.000 C 
DOCKED: ATOM     22  N   UNL     1      28.264 -12.611  -7.068 -0.24 -0.00    +0.000 N 
DOCKED: ATOM     23  C   UNL     1      29.322 -12.877  -8.051 -0.22 -0.00    +0.000 C 
DOCKED: ENDBRANCH  15  22
DOCKED: ENDBRANCH  13  18
DOCKED: ENDBRANCH   1  13
DOCKED: TORSDOF 6
DOCKED: TER
DOCKED: ENDMDL
________________________________________________________________________________


	BEGINNING GENETIC ALGORITHM DOCKING 13 of 100
Run: 13 Seed: 507955715 9845447 [ Run 13 of 100 GA/GALS ]
Beginning LAMARCKIAN GENETIC ALGORITHM (LGA), with a maximum of 2500000 energy evaluations.

Final-Value: -13.815


	FINAL GENETIC ALGORITHM DOCKED STATE
	_______________________________________________


Detailed state:  trans 24.856 -14.957 -2.110 quatxyzw -0.752238 -0.514540 -0.036968 0.409902 center -0.973 -0.390 0.234 ntor 6 123.2197 46.3096 96.6329 -99.5957 -40.6453 79.2751
State:	 24.856 -14.957  -2.110  -0.825 -0.564 -0.041 131.603    123.22   46.31   96.63  -99.60  -40.65   79.28

DOCKED: MODEL       13
DOCKED: USER    Run = 13
DOCKED: USER    DPF = ligand_dock.biased.dpf
DOCKED: USER  
DOCKED: USER    Estimated Free Energy of Binding    =  -11.15 kcal/mol  [=(1)+(2)+(3)-(4)]
DOCKED: USER    Estimated Inhibition Constant, Ki   =    6.74 nM (nanomolar)  [Temperature = 298.15 K]
DOCKED: USER    
DOCKED: USER    (1) Final Intermolecular Energy     =  -12.94 kcal/mol
DOCKED: USER        vdW + Hbond + desolv Energy     =  -12.94 kcal/mol
DOCKED: USER        Electrostatic Energy            =   +0.00 kcal/mol
DOCKED: USER    (2) Final Total Internal Energy     =   -0.88 kcal/mol
DOCKED: USER    (3) Torsional Free Energy           =   +1.79 kcal/mol
DOCKED: USER    (4) Unbound System's Energy  [=(2)] =   -0.88 kcal/mol
DOCKED: USER    
DOCKED: USER    
DOCKED: USER    NEWDPF move ligand.pdbqt
DOCKED: USER    NEWDPF about -0.973000 -0.390000 0.234000
DOCKED: USER    NEWDPF tran0 24.856441 -14.957483 -2.110373
DOCKED: USER    NEWDPF quaternion0 -0.752238 -0.514540 -0.036968 0.409902
DOCKED: USER    NEWDPF axisangle0 -0.824705 -0.564109 -0.040529 131.602598
DOCKED: USER    NEWDPF quat0 -0.824705 -0.564109 -0.040529 131.602598
DOCKED: USER    NEWDPF dihe0 123.22 46.31 96.63 -99.60 -40.65 79.28 
DOCKED: USER  keepresnum = 1 
DOCKED: USER  
DOCKED: REMARK  Name = 
DOCKED: REMARK  10 active torsions:
DOCKED: REMARK  status: ('A' for Active; 'I' for Inactive)
DOCKED: REMARK    1  A    between atoms: C_1  and  N_2
DOCKED: REMARK    2  A    between atoms: N_2  and  C_3
DOCKED: REMARK    3  A    between atoms: N_2  and  C_22
DOCKED: REMARK    4  A    between atoms: C_6  and  C_9
DOCKED: REMARK    5  A    between atoms: C_9  and  C_10
DOCKED: REMARK    6  A    between atoms: C_10  and  C_11
DOCKED: REMARK    7  A    between atoms: C_10  and  C_20
DOCKED: REMARK    8  A    between atoms: C_12  and  C_13
DOCKED: REMARK    9  A    between atoms: C_12  and  C_19
DOCKED: REMARK   10  A    between atoms: C_14  and  C_15
DOCKED: REMARK                            x       y       z     vdW  Elec       q    Type
DOCKED: REMARK                         _______ _______ _______ _____ _____    ______ ____
DOCKED: USER                              x       y       z     vdW  Elec       q    Type
DOCKED: USER                           _______ _______ _______ _____ _____    ______ ____
DOCKED: ROOT
DOCKED: ATOM      1  C   UNL     1      26.235 -15.768  -2.149 -0.47 -0.00    +0.000 C 
DOCKED: ATOM      2  C   UNL     1      27.505 -16.619  -2.235 -0.32 -0.00    +0.000 C 
DOCKED: ENDROOT
DOCKED: BRANCH   1   3
DOCKED: ATOM      3  C   UNL     1      25.025 -16.658  -1.945 -0.61 -0.00    +0.000 C 
DOCKED: ATOM      4  C   UNL     1      24.919 -17.612  -0.995 -0.70 -0.00    +0.000 C 
DOCKED: ATOM      5  C   UNL     1      26.031 -17.879  -0.004 -0.63 -0.00    +0.000 C 
DOCKED: BRANCH   4   6
DOCKED: ATOM      6  C   UNL     1      23.646 -18.373  -0.915 -0.81 -0.00    +0.000 C 
DOCKED: ATOM      7  C   UNL     1      22.453 -17.787  -0.748 -0.79 -0.00    +0.000 C 
DOCKED: BRANCH   7   8
DOCKED: ATOM      8  C   UNL     1      21.180 -18.534  -0.670 -0.82 -0.00    +0.000 C 
DOCKED: ATOM      9  N   UNL     1      21.108 -19.877  -0.176 -0.67 -0.00    +0.000 N 
DOCKED: ATOM     10  O   UNL     1      19.907 -20.482  -0.027 -1.21 -0.00    +0.000 OA
DOCKED: ATOM     11  O   UNL     1      20.129 -17.972  -1.078 -2.03 -0.00    +0.000 OA
DOCKED: ATOM     12  H   UNL     1      21.934 -20.361   0.056 -0.56 -0.00    +0.000 HD
DOCKED: ENDBRANCH   7   8
DOCKED: ENDBRANCH   4   6
DOCKED: ENDBRANCH   1   3
DOCKED: BRANCH   1  13
DOCKED: ATOM     13  C   UNL     1      26.085 -14.939  -3.409 -0.51 -0.00    +0.000 C 
DOCKED: ATOM     14  O   UNL     1      24.933 -14.559  -3.760 -0.92 -0.00    +0.000 OA
DOCKED: BRANCH  13  18
DOCKED: ATOM     15  C   UNL     1      29.457 -13.964  -5.933 -0.20 -0.00    +0.000 A 
DOCKED: ATOM     16  C   UNL     1      28.504 -14.925  -6.325 -0.35 -0.00    +0.000 A 
DOCKED: ATOM     17  C   UNL     1      27.419 -15.235  -5.503 -0.33 +0.00    +0.000 A 
DOCKED: ATOM     18  C   UNL     1      27.246 -14.588  -4.268 -0.35 -0.00    +0.000 A 
DOCKED: ATOM     19  C   UNL     1      28.199 -13.638  -3.866 -0.15 -0.00    +0.000 A 
DOCKED: ATOM     20  C   UNL     1      29.287 -13.328  -4.687 -0.10 -0.00    +0.000 A 
DOCKED: BRANCH  15  22
DOCKED: ATOM     21  C   UNL     1      31.242 -14.683  -7.586 -0.21 -0.00    +0.000 C 
DOCKED: ATOM     22  N   UNL     1      30.586 -13.641  -6.787 -0.14 -0.00    +0.000 N 
DOCKED: ATOM     23  C   UNL     1      31.092 -12.264  -6.867 -0.07 -0.00    +0.000 C 
DOCKED: ENDBRANCH  15  22
DOCKED: ENDBRANCH  13  18
DOCKED: ENDBRANCH   1  13
DOCKED: TORSDOF 6
DOCKED: TER
DOCKED: ENDMDL
________________________________________________________________________________


	BEGINNING GENETIC ALGORITHM DOCKING 14 of 100
Run: 14 Seed: 569285573 1212683755 [ Run 14 of 100 GA/GALS ]
Beginning LAMARCKIAN GENETIC ALGORITHM (LGA), with a maximum of 2500000 energy evaluations.

Final-Value: -13.913


	FINAL GENETIC ALGORITHM DOCKED STATE
	_______________________________________________


Detailed state:  trans 25.808 -14.456 -3.100 quatxyzw 0.754774 0.395832 -0.068711 -0.518567 center -0.973 -0.390 0.234 ntor 6 110.7341 164.6648 -102.7728 109.3634 -36.6818 -53.1226
State:	 25.808 -14.456  -3.100   0.883  0.463 -0.080 -117.528    110.73  164.66 -102.77  109.36  -36.68  -53.12

DOCKED: MODEL       14
DOCKED: USER    Run = 14
DOCKED: USER    DPF = ligand_dock.biased.dpf
DOCKED: USER  
DOCKED: USER    Estimated Free Energy of Binding    =  -11.23 kcal/mol  [=(1)+(2)+(3)-(4)]
DOCKED: USER    Estimated Inhibition Constant, Ki   =    5.89 nM (nanomolar)  [Temperature = 298.15 K]
DOCKED: USER    
DOCKED: USER    (1) Final Intermolecular Energy     =  -13.02 kcal/mol
DOCKED: USER        vdW + Hbond + desolv Energy     =  -13.02 kcal/mol
DOCKED: USER        Electrostatic Energy            =   +0.00 kcal/mol
DOCKED: USER    (2) Final Total Internal Energy     =   -0.90 kcal/mol
DOCKED: USER    (3) Torsional Free Energy           =   +1.79 kcal/mol
DOCKED: USER    (4) Unbound System's Energy  [=(2)] =   -0.90 kcal/mol
DOCKED: USER    
DOCKED: USER    
DOCKED: USER    NEWDPF move ligand.pdbqt
DOCKED: USER    NEWDPF about -0.973000 -0.390000 0.234000
DOCKED: USER    NEWDPF tran0 25.807693 -14.456016 -3.099634
DOCKED: USER    NEWDPF quaternion0 0.754774 0.395832 -0.068711 -0.518567
DOCKED: USER    NEWDPF axisangle0 0.882738 0.462942 -0.080361 -117.527607
DOCKED: USER    NEWDPF quat0 0.882738 0.462942 -0.080361 -117.527607
DOCKED: USER    NEWDPF dihe0 110.73 164.66 -102.77 109.36 -36.68 -53.12 
DOCKED: USER  keepresnum = 1 
DOCKED: USER  
DOCKED: REMARK  Name = 
DOCKED: REMARK  10 active torsions:
DOCKED: REMARK  status: ('A' for Active; 'I' for Inactive)
DOCKED: REMARK    1  A    between atoms: C_1  and  N_2
DOCKED: REMARK    2  A    between atoms: N_2  and  C_3
DOCKED: REMARK    3  A    between atoms: N_2  and  C_22
DOCKED: REMARK    4  A    between atoms: C_6  and  C_9
DOCKED: REMARK    5  A    between atoms: C_9  and  C_10
DOCKED: REMARK    6  A    between atoms: C_10  and  C_11
DOCKED: REMARK    7  A    between atoms: C_10  and  C_20
DOCKED: REMARK    8  A    between atoms: C_12  and  C_13
DOCKED: REMARK    9  A    between atoms: C_12  and  C_19
DOCKED: REMARK   10  A    between atoms: C_14  and  C_15
DOCKED: REMARK                            x       y       z     vdW  Elec       q    Type
DOCKED: REMARK                         _______ _______ _______ _____ _____    ______ ____
DOCKED: USER                              x       y       z     vdW  Elec       q    Type
DOCKED: USER                           _______ _______ _______ _____ _____    ______ ____
DOCKED: ROOT
DOCKED: ATOM      1  C   UNL     1      26.908 -15.582  -2.817 -0.40 -0.00    +0.000 C 
DOCKED: ATOM      2  C   UNL     1      27.893 -16.730  -2.579 -0.19 -0.00    +0.000 C 
DOCKED: ENDROOT
DOCKED: BRANCH   1   3
DOCKED: ATOM      3  C   UNL     1      25.495 -16.035  -2.501 -0.56 -0.00    +0.000 C 
DOCKED: ATOM      4  C   UNL     1      25.102 -16.572  -1.327 -0.61 -0.00    +0.000 C 
DOCKED: ATOM      5  C   UNL     1      26.063 -16.766  -0.175 -0.34 -0.00    +0.000 C 
DOCKED: BRANCH   4   6
DOCKED: ATOM      6  C   UNL     1      23.669 -16.932  -1.175 -0.60 -0.00    +0.000 C 
DOCKED: ATOM      7  C   UNL     1      23.222 -18.194  -1.236 -0.78 -0.00    +0.000 C 
DOCKED: BRANCH   7   8
DOCKED: ATOM      8  C   UNL     1      21.799 -18.565  -1.084 -0.80 -0.00    +0.000 C 
DOCKED: ATOM      9  N   UNL     1      21.216 -19.672  -1.781 -0.58 -0.00    +0.000 N 
DOCKED: ATOM     10  O   UNL     1      19.937 -20.035  -1.530 -2.11 -0.00    +0.000 OA
DOCKED: ATOM     11  O   UNL     1      21.073 -17.862  -0.331 -1.89 +0.00    +0.000 OA
DOCKED: ATOM     12  H   UNL     1      21.747 -20.171  -2.444 -0.61 -0.00    +0.000 HD
DOCKED: ENDBRANCH   7   8
DOCKED: ENDBRANCH   4   6
DOCKED: ENDBRANCH   1   3
DOCKED: BRANCH   1  13
DOCKED: ATOM     13  C   UNL     1      27.010 -15.106  -4.253 -0.47 -0.00    +0.000 C 
DOCKED: ATOM     14  O   UNL     1      27.479 -15.888  -5.126 -0.79 +0.00    +0.000 OA
DOCKED: BRANCH  13  18
DOCKED: ATOM     15  C   UNL     1      25.795 -11.129  -5.434 -0.28 -0.00    +0.000 A 
DOCKED: ATOM     16  C   UNL     1      25.005 -11.907  -4.564 -0.23 -0.00    +0.000 A 
DOCKED: ATOM     17  C   UNL     1      25.404 -13.191  -4.189 -0.31 -0.00    +0.000 A 
DOCKED: ATOM     18  C   UNL     1      26.609 -13.735  -4.663 -0.32 -0.00    +0.000 A 
DOCKED: ATOM     19  C   UNL     1      27.396 -12.970  -5.539 -0.21 -0.00    +0.000 A 
DOCKED: ATOM     20  C   UNL     1      26.996 -11.685  -5.918 -0.18 -0.00    +0.000 A 
DOCKED: BRANCH  15  22
DOCKED: ATOM     21  C   UNL     1      24.016  -9.544  -6.306 -0.44 -0.00    +0.000 C 
DOCKED: ATOM     22  N   UNL     1      25.381  -9.793  -5.825 -0.23 -0.00    +0.000 N 
DOCKED: ATOM     23  C   UNL     1      26.320  -8.667  -5.746 -0.10 -0.00    +0.000 C 
DOCKED: ENDBRANCH  15  22
DOCKED: ENDBRANCH  13  18
DOCKED: ENDBRANCH   1  13
DOCKED: TORSDOF 6
DOCKED: TER
DOCKED: ENDMDL
________________________________________________________________________________


	BEGINNING GENETIC ALGORITHM DOCKING 15 of 100
Run: 15 Seed: 931141777 89605129 [ Run 15 of 100 GA/GALS ]
Beginning LAMARCKIAN GENETIC ALGORITHM (LGA), with a maximum of 2500000 energy evaluations.

Final-Value: -13.908


	FINAL GENETIC ALGORITHM DOCKED STATE
	_______________________________________________


Detailed state:  trans 26.024 -14.673 -3.041 quatxyzw 0.768090 0.397871 0.063120 -0.497747 center -0.973 -0.390 0.234 ntor 6 -88.0852 80.4754 -7.1407 -72.7206 -24.8763 -60.7867
State:	 26.024 -14.673  -3.041   0.886  0.459  0.073 -120.298    -88.09   80.48   -7.14  -72.72  -24.88  -60.79

DOCKED: MODEL       15
DOCKED: USER    Run = 15
DOCKED: USER    DPF = ligand_dock.biased.dpf
DOCKED: USER  
DOCKED: USER    Estimated Free Energy of Binding    =  -11.12 kcal/mol  [=(1)+(2)+(3)-(4)]
DOCKED: USER    Estimated Inhibition Constant, Ki   =    7.05 nM (nanomolar)  [Temperature = 298.15 K]
DOCKED: USER    
DOCKED: USER    (1) Final Intermolecular Energy     =  -12.91 kcal/mol
DOCKED: USER        vdW + Hbond + desolv Energy     =  -12.91 kcal/mol
DOCKED: USER        Electrostatic Energy            =   +0.00 kcal/mol
DOCKED: USER    (2) Final Total Internal Energy     =   -1.00 kcal/mol
DOCKED: USER    (3) Torsional Free Energy           =   +1.79 kcal/mol
DOCKED: USER    (4) Unbound System's Energy  [=(2)] =   -1.00 kcal/mol
DOCKED: USER    
DOCKED: USER    
DOCKED: USER    NEWDPF move ligand.pdbqt
DOCKED: USER    NEWDPF about -0.973000 -0.390000 0.234000
DOCKED: USER    NEWDPF tran0 26.023625 -14.673074 -3.041308
DOCKED: USER    NEWDPF quaternion0 0.768090 0.397871 0.063120 -0.497747
DOCKED: USER    NEWDPF axisangle0 0.885588 0.458735 0.072776 -120.297874
DOCKED: USER    NEWDPF quat0 0.885588 0.458735 0.072776 -120.297874
DOCKED: USER    NEWDPF dihe0 -88.09 80.48 -7.14 -72.72 -24.88 -60.79 
DOCKED: USER  keepresnum = 1 
DOCKED: USER  
DOCKED: REMARK  Name = 
DOCKED: REMARK  10 active torsions:
DOCKED: REMARK  status: ('A' for Active; 'I' for Inactive)
DOCKED: REMARK    1  A    between atoms: C_1  and  N_2
DOCKED: REMARK    2  A    between atoms: N_2  and  C_3
DOCKED: REMARK    3  A    between atoms: N_2  and  C_22
DOCKED: REMARK    4  A    between atoms: C_6  and  C_9
DOCKED: REMARK    5  A    between atoms: C_9  and  C_10
DOCKED: REMARK    6  A    between atoms: C_10  and  C_11
DOCKED: REMARK    7  A    between atoms: C_10  and  C_20
DOCKED: REMARK    8  A    between atoms: C_12  and  C_13
DOCKED: REMARK    9  A    between atoms: C_12  and  C_19
DOCKED: REMARK   10  A    between atoms: C_14  and  C_15
DOCKED: REMARK                            x       y       z     vdW  Elec       q    Type
DOCKED: REMARK                         _______ _______ _______ _____ _____    ______ ____
DOCKED: USER                              x       y       z     vdW  Elec       q    Type
DOCKED: USER                           _______ _______ _______ _____ _____    ______ ____
DOCKED: ROOT
DOCKED: ATOM      1  C   UNL     1      27.204 -15.700  -2.712 -0.36 -0.00    +0.000 C 
DOCKED: ATOM      2  C   UNL     1      28.285 -16.754  -2.451 -0.25 -0.00    +0.000 C 
DOCKED: ENDROOT
DOCKED: BRANCH   1   3
DOCKED: ATOM      3  C   UNL     1      25.836 -16.352  -2.735 -0.49 -0.00    +0.000 C 
DOCKED: ATOM      4  C   UNL     1      25.232 -16.917  -1.668 -0.62 -0.00    +0.000 C 
DOCKED: ATOM      5  C   UNL     1      25.881 -16.940  -0.302 -0.49 -0.00    +0.000 C 
DOCKED: BRANCH   4   6
DOCKED: ATOM      6  C   UNL     1      23.872 -17.484  -1.860 -0.44 -0.00    +0.000 C 
DOCKED: ATOM      7  C   UNL     1      23.028 -17.720  -0.846 -0.78 -0.00    +0.000 C 
DOCKED: BRANCH   7   8
DOCKED: ATOM      8  C   UNL     1      21.673 -18.281  -1.025 -0.74 -0.00    +0.000 C 
DOCKED: ATOM      9  N   UNL     1      21.450 -19.589  -1.565 -0.60 -0.00    +0.000 N 
DOCKED: ATOM     10  O   UNL     1      20.198 -20.099  -1.614 -2.21 -0.00    +0.000 OA
DOCKED: ATOM     11  O   UNL     1      20.682 -17.568  -0.714 -2.14 +0.00    +0.000 OA
DOCKED: ATOM     12  H   UNL     1      22.210 -20.119  -1.901 -0.49 -0.00    +0.000 HD
DOCKED: ENDBRANCH   7   8
DOCKED: ENDBRANCH   4   6
DOCKED: ENDBRANCH   1   3
DOCKED: BRANCH   1  13
DOCKED: ATOM     13  C   UNL     1      27.484 -14.992  -4.023 -0.37 -0.00    +0.000 C 
DOCKED: ATOM     14  O   UNL     1      28.315 -15.498  -4.828 -0.44 -0.00    +0.000 OA
DOCKED: BRANCH  13  18
DOCKED: ATOM     15  C   UNL     1      25.653 -11.214  -5.054 -0.31 -0.00    +0.000 A 
DOCKED: ATOM     16  C   UNL     1      27.036 -11.427  -5.224 -0.17 -0.00    +0.000 A 
DOCKED: ATOM     17  C   UNL     1      27.619 -12.650  -4.887 -0.18 -0.00    +0.000 A 
DOCKED: ATOM     18  C   UNL     1      26.839 -13.701  -4.379 -0.32 -0.00    +0.000 A 
DOCKED: ATOM     19  C   UNL     1      25.462 -13.492  -4.197 -0.36 -0.00    +0.000 A 
DOCKED: ATOM     20  C   UNL     1      24.877 -12.268  -4.532 -0.17 -0.00    +0.000 A 
DOCKED: BRANCH  15  22
DOCKED: ATOM     21  C   UNL     1      24.108  -9.848  -6.532 -0.45 -0.00    +0.000 C 
DOCKED: ATOM     22  N   UNL     1      25.045  -9.942  -5.405 -0.30 -0.00    +0.000 N 
DOCKED: ATOM     23  C   UNL     1      25.357  -8.729  -4.639 -0.23 -0.00    +0.000 C 
DOCKED: ENDBRANCH  15  22
DOCKED: ENDBRANCH  13  18
DOCKED: ENDBRANCH   1  13
DOCKED: TORSDOF 6
DOCKED: TER
DOCKED: ENDMDL
________________________________________________________________________________


	BEGINNING GENETIC ALGORITHM DOCKING 16 of 100
Run: 16 Seed: 1679025653 1118231707 [ Run 16 of 100 GA/GALS ]
Beginning LAMARCKIAN GENETIC ALGORITHM (LGA), with a maximum of 2500000 energy evaluations.

Final-Value: -13.721


	FINAL GENETIC ALGORITHM DOCKED STATE
	_______________________________________________


Detailed state:  trans 26.122 -14.425 -2.938 quatxyzw -0.764408 -0.410365 0.091003 0.488876 center -0.973 -0.390 0.234 ntor 6 -117.2396 179.8722 -128.6063 -71.6969 -27.6939 -65.8061
State:	 26.122 -14.425  -2.938  -0.876 -0.470  0.104 121.467   -117.24  179.87 -128.61  -71.70  -27.69  -65.81

DOCKED: MODEL       16
DOCKED: USER    Run = 16
DOCKED: USER    DPF = ligand_dock.biased.dpf
DOCKED: USER  
DOCKED: USER    Estimated Free Energy of Binding    =  -10.94 kcal/mol  [=(1)+(2)+(3)-(4)]
DOCKED: USER    Estimated Inhibition Constant, Ki   =    9.60 nM (nanomolar)  [Temperature = 298.15 K]
DOCKED: USER    
DOCKED: USER    (1) Final Intermolecular Energy     =  -12.73 kcal/mol
DOCKED: USER        vdW + Hbond + desolv Energy     =  -12.73 kcal/mol
DOCKED: USER        Electrostatic Energy            =   +0.00 kcal/mol
DOCKED: USER    (2) Final Total Internal Energy     =   -0.99 kcal/mol
DOCKED: USER    (3) Torsional Free Energy           =   +1.79 kcal/mol
DOCKED: USER    (4) Unbound System's Energy  [=(2)] =   -0.99 kcal/mol
DOCKED: USER    
DOCKED: USER    
DOCKED: USER    NEWDPF move ligand.pdbqt
DOCKED: USER    NEWDPF about -0.973000 -0.390000 0.234000
DOCKED: USER    NEWDPF tran0 26.122376 -14.425045 -2.938083
DOCKED: USER    NEWDPF quaternion0 -0.764408 -0.410365 0.091003 0.488876
DOCKED: USER    NEWDPF axisangle0 -0.876259 -0.470412 0.104319 121.466544
DOCKED: USER    NEWDPF quat0 -0.876259 -0.470412 0.104319 121.466544
DOCKED: USER    NEWDPF dihe0 -117.24 179.87 -128.61 -71.70 -27.69 -65.81 
DOCKED: USER  keepresnum = 1 
DOCKED: USER  
DOCKED: REMARK  Name = 
DOCKED: REMARK  10 active torsions:
DOCKED: REMARK  status: ('A' for Active; 'I' for Inactive)
DOCKED: REMARK    1  A    between atoms: C_1  and  N_2
DOCKED: REMARK    2  A    between atoms: N_2  and  C_3
DOCKED: REMARK    3  A    between atoms: N_2  and  C_22
DOCKED: REMARK    4  A    between atoms: C_6  and  C_9
DOCKED: REMARK    5  A    between atoms: C_9  and  C_10
DOCKED: REMARK    6  A    between atoms: C_10  and  C_11
DOCKED: REMARK    7  A    between atoms: C_10  and  C_20
DOCKED: REMARK    8  A    between atoms: C_12  and  C_13
DOCKED: REMARK    9  A    between atoms: C_12  and  C_19
DOCKED: REMARK   10  A    between atoms: C_14  and  C_15
DOCKED: REMARK                            x       y       z     vdW  Elec       q    Type
DOCKED: REMARK                         _______ _______ _______ _____ _____    ______ ____
DOCKED: USER                              x       y       z     vdW  Elec       q    Type
DOCKED: USER                           _______ _______ _______ _____ _____    ______ ____
DOCKED: ROOT
DOCKED: ATOM      1  C   UNL     1      27.223 -15.574  -2.778 -0.35 -0.00    +0.000 C 
DOCKED: ATOM      2  C   UNL     1      28.207 -16.742  -2.656 -0.19 -0.00    +0.000 C 
DOCKED: ENDROOT
DOCKED: BRANCH   1   3
DOCKED: ATOM      3  C   UNL     1      25.831 -16.023  -2.380 -0.53 -0.00    +0.000 C 
DOCKED: ATOM      4  C   UNL     1      25.478 -16.441  -1.146 -0.57 -0.00    +0.000 C 
DOCKED: ATOM      5  C   UNL     1      26.470 -16.489  -0.005 -0.29 -0.00    +0.000 C 
DOCKED: BRANCH   4   6
DOCKED: ATOM      6  C   UNL     1      24.058 -16.815  -0.920 -0.61 -0.00    +0.000 C 
DOCKED: ATOM      7  C   UNL     1      23.539 -17.985  -1.318 -0.76 -0.00    +0.000 C 
DOCKED: BRANCH   7   8
DOCKED: ATOM      8  C   UNL     1      22.129 -18.370  -1.097 -0.77 -0.00    +0.000 C 
DOCKED: ATOM      9  N   UNL     1      21.497 -19.425  -1.831 -0.57 -0.00    +0.000 N 
DOCKED: ATOM     10  O   UNL     1      20.238 -19.808  -1.521 -2.25 -0.00    +0.000 OA
DOCKED: ATOM     11  O   UNL     1      21.457 -17.725  -0.248 -1.51 -0.00    +0.000 OA
DOCKED: ATOM     12  H   UNL     1      21.981 -19.873  -2.564 -0.56 -0.00    +0.000 HD
DOCKED: ENDBRANCH   7   8
DOCKED: ENDBRANCH   4   6
DOCKED: ENDBRANCH   1   3
DOCKED: BRANCH   1  13
DOCKED: ATOM     13  C   UNL     1      27.231 -15.043  -4.198 -0.43 -0.00    +0.000 C 
DOCKED: ATOM     14  O   UNL     1      27.843 -15.691  -5.092 -0.74 +0.00    +0.000 OA
DOCKED: BRANCH  13  18
DOCKED: ATOM     15  C   UNL     1      25.357 -11.301  -5.285 -0.31 -0.00    +0.000 A 
DOCKED: ATOM     16  C   UNL     1      26.651 -11.630  -5.737 -0.18 -0.00    +0.000 A 
DOCKED: ATOM     17  C   UNL     1      27.249 -12.840  -5.380 -0.20 -0.00    +0.000 A 
DOCKED: ATOM     18  C   UNL     1      26.571 -13.764  -4.568 -0.33 -0.00    +0.000 A 
DOCKED: ATOM     19  C   UNL     1      25.286 -13.437  -4.105 -0.36 -0.00    +0.000 A 
DOCKED: ATOM     20  C   UNL     1      24.686 -12.226  -4.459 -0.09 -0.00    +0.000 A 
DOCKED: BRANCH  15  22
DOCKED: ATOM     21  C   UNL     1      24.039  -9.905  -6.942 -0.46 -0.00    +0.000 C 
DOCKED: ATOM     22  N   UNL     1      24.734 -10.043  -5.657 -0.35 -0.00    +0.000 N 
DOCKED: ATOM     23  C   UNL     1      24.787  -8.888  -4.752 -0.30 -0.00    +0.000 C 
DOCKED: ENDBRANCH  15  22
DOCKED: ENDBRANCH  13  18
DOCKED: ENDBRANCH   1  13
DOCKED: TORSDOF 6
DOCKED: TER
DOCKED: ENDMDL
________________________________________________________________________________


	BEGINNING GENETIC ALGORITHM DOCKING 17 of 100
Run: 17 Seed: 1943591565 764928217 [ Run 17 of 100 GA/GALS ]
Beginning LAMARCKIAN GENETIC ALGORITHM (LGA), with a maximum of 2500000 energy evaluations.

Final-Value: -14.328


	FINAL GENETIC ALGORITHM DOCKED STATE
	_______________________________________________


Detailed state:  trans 26.164 -15.810 -0.416 quatxyzw -0.875506 -0.340921 0.097692 -0.328205 center -0.973 -0.390 0.234 ntor 6 119.4664 -39.1322 -165.0864 17.0117 33.3591 -61.0919
State:	 26.164 -15.810  -0.416  -0.927 -0.361  0.103 -141.680    119.47  -39.13 -165.09   17.01   33.36  -61.09

DOCKED: MODEL       17
DOCKED: USER    Run = 17
DOCKED: USER    DPF = ligand_dock.biased.dpf
DOCKED: USER  
DOCKED: USER    Estimated Free Energy of Binding    =  -11.26 kcal/mol  [=(1)+(2)+(3)-(4)]
DOCKED: USER    Estimated Inhibition Constant, Ki   =    5.60 nM (nanomolar)  [Temperature = 298.15 K]
DOCKED: USER    
DOCKED: USER    (1) Final Intermolecular Energy     =  -13.05 kcal/mol
DOCKED: USER        vdW + Hbond + desolv Energy     =  -13.05 kcal/mol
DOCKED: USER        Electrostatic Energy            =   +0.00 kcal/mol
DOCKED: USER    (2) Final Total Internal Energy     =   -1.28 kcal/mol
DOCKED: USER    (3) Torsional Free Energy           =   +1.79 kcal/mol
DOCKED: USER    (4) Unbound System's Energy  [=(2)] =   -1.28 kcal/mol
DOCKED: USER    
DOCKED: USER    
DOCKED: USER    NEWDPF move ligand.pdbqt
DOCKED: USER    NEWDPF about -0.973000 -0.390000 0.234000
DOCKED: USER    NEWDPF tran0 26.163667 -15.809801 -0.415813
DOCKED: USER    NEWDPF quaternion0 -0.875506 -0.340921 0.097692 -0.328205
DOCKED: USER    NEWDPF axisangle0 -0.926847 -0.360913 0.103421 -141.680283
DOCKED: USER    NEWDPF quat0 -0.926847 -0.360913 0.103421 -141.680283
DOCKED: USER    NEWDPF dihe0 119.47 -39.13 -165.09 17.01 33.36 -61.09 
DOCKED: USER  keepresnum = 1 
DOCKED: USER  
DOCKED: REMARK  Name = 
DOCKED: REMARK  10 active torsions:
DOCKED: REMARK  status: ('A' for Active; 'I' for Inactive)
DOCKED: REMARK    1  A    between atoms: C_1  and  N_2
DOCKED: REMARK    2  A    between atoms: N_2  and  C_3
DOCKED: REMARK    3  A    between atoms: N_2  and  C_22
DOCKED: REMARK    4  A    between atoms: C_6  and  C_9
DOCKED: REMARK    5  A    between atoms: C_9  and  C_10
DOCKED: REMARK    6  A    between atoms: C_10  and  C_11
DOCKED: REMARK    7  A    between atoms: C_10  and  C_20
DOCKED: REMARK    8  A    between atoms: C_12  and  C_13
DOCKED: REMARK    9  A    between atoms: C_12  and  C_19
DOCKED: REMARK   10  A    between atoms: C_14  and  C_15
DOCKED: REMARK                            x       y       z     vdW  Elec       q    Type
DOCKED: REMARK                         _______ _______ _______ _____ _____    ______ ____
DOCKED: USER                              x       y       z     vdW  Elec       q    Type
DOCKED: USER                           _______ _______ _______ _____ _____    ______ ____
DOCKED: ROOT
DOCKED: ATOM      1  C   UNL     1      26.305 -15.832  -2.008 -0.46 -0.00    +0.000 C 
DOCKED: ATOM      2  C   UNL     1      26.339 -15.838  -3.540 -0.41 -0.00    +0.000 C 
DOCKED: ENDROOT
DOCKED: BRANCH   1   3
DOCKED: ATOM      3  C   UNL     1      25.022 -16.472  -1.514 -0.60 -0.00    +0.000 C 
DOCKED: ATOM      4  C   UNL     1      24.960 -17.507  -0.649 -0.69 -0.00    +0.000 C 
DOCKED: ATOM      5  C   UNL     1      26.205 -18.135  -0.063 -0.64 -0.00    +0.000 C 
DOCKED: BRANCH   4   6
DOCKED: ATOM      6  C   UNL     1      23.615 -17.992  -0.244 -0.75 -0.00    +0.000 C 
DOCKED: ATOM      7  C   UNL     1      22.596 -18.124  -1.105 -0.76 -0.00    +0.000 C 
DOCKED: BRANCH   7   8
DOCKED: ATOM      8  C   UNL     1      21.256 -18.608  -0.714 -0.86 -0.00    +0.000 C 
DOCKED: ATOM      9  N   UNL     1      21.053 -19.876  -0.078 -0.68 -0.00    +0.000 N 
DOCKED: ATOM     10  O   UNL     1      19.820 -20.229   0.353 -0.96 -0.00    +0.000 OA
DOCKED: ATOM     11  O   UNL     1      20.257 -17.885  -0.975 -2.18 -0.00    +0.000 OA
DOCKED: ATOM     12  H   UNL     1      21.812 -20.492   0.044 -0.59 -0.00    +0.000 HD
DOCKED: ENDBRANCH   7   8
DOCKED: ENDBRANCH   4   6
DOCKED: ENDBRANCH   1   3
DOCKED: BRANCH   1  13
DOCKED: ATOM     13  C   UNL     1      26.427 -14.410  -1.497 -0.32 -0.00    +0.000 C 
DOCKED: ATOM     14  O   UNL     1      26.259 -13.452  -2.303 -0.24 -0.00    +0.000 OA
DOCKED: BRANCH  13  18
DOCKED: ATOM     15  C   UNL     1      27.412 -13.471   2.606 -0.31 -0.00    +0.000 A 
DOCKED: ATOM     16  C   UNL     1      26.396 -12.776   1.920 -0.27 -0.00    +0.000 A 
DOCKED: ATOM     17  C   UNL     1      26.085 -13.085   0.595 -0.27 -0.00    +0.000 A 
DOCKED: ATOM     18  C   UNL     1      26.772 -14.104  -0.085 -0.27 -0.00    +0.000 A 
DOCKED: ATOM     19  C   UNL     1      27.794 -14.793   0.589 -0.25 -0.00    +0.000 A 
DOCKED: ATOM     20  C   UNL     1      28.108 -14.484   1.916 -0.23 -0.00    +0.000 A 
DOCKED: BRANCH  15  22
DOCKED: ATOM     21  C   UNL     1      27.763 -11.756   4.442 -0.36 +0.00    +0.000 C 
DOCKED: ATOM     22  N   UNL     1      27.735 -13.151   3.985 -0.39 -0.00    +0.000 N 
DOCKED: ATOM     23  C   UNL     1      28.040 -14.218   4.948 -0.58 -0.00    +0.000 C 
DOCKED: ENDBRANCH  15  22
DOCKED: ENDBRANCH  13  18
DOCKED: ENDBRANCH   1  13
DOCKED: TORSDOF 6
DOCKED: TER
DOCKED: ENDMDL
________________________________________________________________________________


	BEGINNING GENETIC ALGORITHM DOCKING 18 of 100
Run: 18 Seed: 1181066135 987927458 [ Run 18 of 100 GA/GALS ]
Beginning LAMARCKIAN GENETIC ALGORITHM (LGA), with a maximum of 2500000 energy evaluations.

Final-Value: -14.270


	FINAL GENETIC ALGORITHM DOCKED STATE
	_______________________________________________


Detailed state:  trans 26.133 -15.808 0.098 quatxyzw 0.882230 0.380325 -0.049515 0.273077 center -0.973 -0.390 0.234 ntor 6 139.4893 -25.7433 -174.7473 180.0000 23.7902 -50.0152
State:	 26.133 -15.808   0.098   0.917  0.395 -0.051 148.305    139.49  -25.74 -174.75  180.00   23.79  -50.02

DOCKED: MODEL       18
DOCKED: USER    Run = 18
DOCKED: USER    DPF = ligand_dock.biased.dpf
DOCKED: USER  
DOCKED: USER    Estimated Free Energy of Binding    =  -11.25 kcal/mol  [=(1)+(2)+(3)-(4)]
DOCKED: USER    Estimated Inhibition Constant, Ki   =    5.65 nM (nanomolar)  [Temperature = 298.15 K]
DOCKED: USER    
DOCKED: USER    (1) Final Intermolecular Energy     =  -13.04 kcal/mol
DOCKED: USER        vdW + Hbond + desolv Energy     =  -13.04 kcal/mol
DOCKED: USER        Electrostatic Energy            =   +0.00 kcal/mol
DOCKED: USER    (2) Final Total Internal Energy     =   -1.23 kcal/mol
DOCKED: USER    (3) Torsional Free Energy           =   +1.79 kcal/mol
DOCKED: USER    (4) Unbound System's Energy  [=(2)] =   -1.23 kcal/mol
DOCKED: USER    
DOCKED: USER    
DOCKED: USER    NEWDPF move ligand.pdbqt
DOCKED: USER    NEWDPF about -0.973000 -0.390000 0.234000
DOCKED: USER    NEWDPF tran0 26.133279 -15.808126 0.097734
DOCKED: USER    NEWDPF quaternion0 0.882230 0.380325 -0.049515 0.273077
DOCKED: USER    NEWDPF axisangle0 0.917087 0.395351 -0.051472 148.305106
DOCKED: USER    NEWDPF quat0 0.917087 0.395351 -0.051472 148.305106
DOCKED: USER    NEWDPF dihe0 139.49 -25.74 -174.75 180.00 23.79 -50.02 
DOCKED: USER  keepresnum = 1 
DOCKED: USER  
DOCKED: REMARK  Name = 
DOCKED: REMARK  10 active torsions:
DOCKED: REMARK  status: ('A' for Active; 'I' for Inactive)
DOCKED: REMARK    1  A    between atoms: C_1  and  N_2
DOCKED: REMARK    2  A    between atoms: N_2  and  C_3
DOCKED: REMARK    3  A    between atoms: N_2  and  C_22
DOCKED: REMARK    4  A    between atoms: C_6  and  C_9
DOCKED: REMARK    5  A    between atoms: C_9  and  C_10
DOCKED: REMARK    6  A    between atoms: C_10  and  C_11
DOCKED: REMARK    7  A    between atoms: C_10  and  C_20
DOCKED: REMARK    8  A    between atoms: C_12  and  C_13
DOCKED: REMARK    9  A    between atoms: C_12  and  C_19
DOCKED: REMARK   10  A    between atoms: C_14  and  C_15
DOCKED: REMARK                            x       y       z     vdW  Elec       q    Type
DOCKED: REMARK                         _______ _______ _______ _____ _____    ______ ____
DOCKED: USER                              x       y       z     vdW  Elec       q    Type
DOCKED: USER                           _______ _______ _______ _____ _____    ______ ____
DOCKED: ROOT
DOCKED: ATOM      1  C   UNL     1      26.513 -15.914  -1.452 -0.44 -0.00    +0.000 C 
DOCKED: ATOM      2  C   UNL     1      26.776 -16.005  -2.958 -0.38 -0.00    +0.000 C 
DOCKED: ENDROOT
DOCKED: BRANCH   1   3
DOCKED: ATOM      3  C   UNL     1      25.196 -16.586  -1.113 -0.60 -0.00    +0.000 C 
DOCKED: ATOM      4  C   UNL     1      25.068 -17.688  -0.343 -0.67 -0.00    +0.000 C 
DOCKED: ATOM      5  C   UNL     1      26.265 -18.369   0.282 -0.58 -0.00    +0.000 C 
DOCKED: BRANCH   4   6
DOCKED: ATOM      6  C   UNL     1      23.697 -18.197  -0.084 -0.74 -0.00    +0.000 C 
DOCKED: ATOM      7  C   UNL     1      22.695 -18.081  -0.968 -0.79 -0.00    +0.000 C 
DOCKED: BRANCH   7   8
DOCKED: ATOM      8  C   UNL     1      21.328 -18.586  -0.722 -0.86 -0.00    +0.000 C 
DOCKED: ATOM      9  N   UNL     1      21.078 -19.871  -0.139 -0.67 -0.00    +0.000 N 
DOCKED: ATOM     10  O   UNL     1      19.813 -20.245   0.161 -1.09 -0.00    +0.000 OA
DOCKED: ATOM     11  O   UNL     1      20.352 -17.867  -1.064 -2.19 -0.00    +0.000 OA
DOCKED: ATOM     12  H   UNL     1      21.829 -20.482   0.045 -0.59 -0.00    +0.000 HD
DOCKED: ENDBRANCH   7   8
DOCKED: ENDBRANCH   4   6
DOCKED: ENDBRANCH   1   3
DOCKED: BRANCH   1  13
DOCKED: ATOM     13  C   UNL     1      26.501 -14.462  -1.020 -0.32 -0.00    +0.000 C 
DOCKED: ATOM     14  O   UNL     1      26.208 -13.572  -1.867 -0.20 -0.00    +0.000 OA
DOCKED: BRANCH  13  18
DOCKED: ATOM     15  C   UNL     1      27.548 -13.295   3.009 -0.33 -0.00    +0.000 A 
DOCKED: ATOM     16  C   UNL     1      28.050 -14.481   2.437 -0.23 -0.00    +0.000 A 
DOCKED: ATOM     17  C   UNL     1      27.705 -14.851   1.136 -0.22 -0.00    +0.000 A 
DOCKED: ATOM     18  C   UNL     1      26.857 -14.043   0.361 -0.26 -0.00    +0.000 A 
DOCKED: ATOM     19  C   UNL     1      26.344 -12.865   0.929 -0.31 -0.00    +0.000 A 
DOCKED: ATOM     20  C   UNL     1      26.686 -12.494   2.232 -0.29 +0.00    +0.000 A 
DOCKED: BRANCH  15  22
DOCKED: ATOM     21  C   UNL     1      28.419 -13.903   5.313 -0.51 -0.00    +0.000 C 
DOCKED: ATOM     22  N   UNL     1      27.907 -12.908   4.362 -0.38 -0.00    +0.000 N 
DOCKED: ATOM     23  C   UNL     1      27.763 -11.515   4.804 -0.38 +0.00    +0.000 C 
DOCKED: ENDBRANCH  15  22
DOCKED: ENDBRANCH  13  18
DOCKED: ENDBRANCH   1  13
DOCKED: TORSDOF 6
DOCKED: TER
DOCKED: ENDMDL
________________________________________________________________________________


	BEGINNING GENETIC ALGORITHM DOCKING 19 of 100
Run: 19 Seed: 1781883516 1999900394 [ Run 19 of 100 GA/GALS ]
Beginning LAMARCKIAN GENETIC ALGORITHM (LGA), with a maximum of 2500000 energy evaluations.

Final-Value: -14.300


	FINAL GENETIC ALGORITHM DOCKED STATE
	_______________________________________________


Detailed state:  trans 26.203 -15.840 -0.890 quatxyzw -0.855378 -0.307198 0.147943 -0.389963 center -0.973 -0.390 0.234 ntor 6 114.6924 -45.7775 -167.8904 -159.2790 47.0599 -71.4464
State:	 26.203 -15.840  -0.890  -0.929 -0.334  0.161 -134.096    114.69  -45.78 -167.89 -159.28   47.06  -71.45

DOCKED: MODEL       19
DOCKED: USER    Run = 19
DOCKED: USER    DPF = ligand_dock.biased.dpf
DOCKED: USER  
DOCKED: USER    Estimated Free Energy of Binding    =  -11.18 kcal/mol  [=(1)+(2)+(3)-(4)]
DOCKED: USER    Estimated Inhibition Constant, Ki   =    6.42 nM (nanomolar)  [Temperature = 298.15 K]
DOCKED: USER    
DOCKED: USER    (1) Final Intermolecular Energy     =  -12.97 kcal/mol
DOCKED: USER        vdW + Hbond + desolv Energy     =  -12.97 kcal/mol
DOCKED: USER        Electrostatic Energy            =   +0.00 kcal/mol
DOCKED: USER    (2) Final Total Internal Energy     =   -1.33 kcal/mol
DOCKED: USER    (3) Torsional Free Energy           =   +1.79 kcal/mol
DOCKED: USER    (4) Unbound System's Energy  [=(2)] =   -1.33 kcal/mol
DOCKED: USER    
DOCKED: USER    
DOCKED: USER    NEWDPF move ligand.pdbqt
DOCKED: USER    NEWDPF about -0.973000 -0.390000 0.234000
DOCKED: USER    NEWDPF tran0 26.203269 -15.839929 -0.890168
DOCKED: USER    NEWDPF quaternion0 -0.855378 -0.307198 0.147943 -0.389963
DOCKED: USER    NEWDPF axisangle0 -0.928920 -0.333609 0.160662 -134.095643
DOCKED: USER    NEWDPF quat0 -0.928920 -0.333609 0.160662 -134.095643
DOCKED: USER    NEWDPF dihe0 114.69 -45.78 -167.89 -159.28 47.06 -71.45 
DOCKED: USER  keepresnum = 1 
DOCKED: USER  
DOCKED: REMARK  Name = 
DOCKED: REMARK  10 active torsions:
DOCKED: REMARK  status: ('A' for Active; 'I' for Inactive)
DOCKED: REMARK    1  A    between atoms: C_1  and  N_2
DOCKED: REMARK    2  A    between atoms: N_2  and  C_3
DOCKED: REMARK    3  A    between atoms: N_2  and  C_22
DOCKED: REMARK    4  A    between atoms: C_6  and  C_9
DOCKED: REMARK    5  A    between atoms: C_9  and  C_10
DOCKED: REMARK    6  A    between atoms: C_10  and  C_11
DOCKED: REMARK    7  A    between atoms: C_10  and  C_20
DOCKED: REMARK    8  A    between atoms: C_12  and  C_13
DOCKED: REMARK    9  A    between atoms: C_12  and  C_19
DOCKED: REMARK   10  A    between atoms: C_14  and  C_15
DOCKED: REMARK                            x       y       z     vdW  Elec       q    Type
DOCKED: REMARK                         _______ _______ _______ _____ _____    ______ ____
DOCKED: USER                              x       y       z     vdW  Elec       q    Type
DOCKED: USER                           _______ _______ _______ _____ _____    ______ ____
DOCKED: ROOT
DOCKED: ATOM      1  C   UNL     1      26.096 -15.734  -2.482 -0.49 -0.00    +0.000 C 
DOCKED: ATOM      2  C   UNL     1      25.892 -15.614  -3.995 -0.59 -0.00    +0.000 C 
DOCKED: ENDROOT
DOCKED: BRANCH   1   3
DOCKED: ATOM      3  C   UNL     1      24.886 -16.389  -1.845 -0.59 -0.00    +0.000 C 
DOCKED: ATOM      4  C   UNL     1      24.937 -17.317  -0.865 -0.68 -0.00    +0.000 C 
DOCKED: ATOM      5  C   UNL     1      26.250 -17.793  -0.284 -0.63 -0.00    +0.000 C 
DOCKED: BRANCH   4   6
DOCKED: ATOM      6  C   UNL     1      23.651 -17.832  -0.330 -0.76 -0.00    +0.000 C 
DOCKED: ATOM      7  C   UNL     1      22.584 -18.076  -1.103 -0.75 -0.00    +0.000 C 
DOCKED: BRANCH   7   8
DOCKED: ATOM      8  C   UNL     1      21.300 -18.592  -0.583 -0.83 -0.00    +0.000 C 
DOCKED: ATOM      9  N   UNL     1      21.184 -19.881   0.031 -0.62 -0.00    +0.000 N 
DOCKED: ATOM     10  O   UNL     1      20.010 -20.266   0.584 -0.85 -0.00    +0.000 OA
DOCKED: ATOM     11  O   UNL     1      20.270 -17.877  -0.711 -2.21 +0.00    +0.000 OA
DOCKED: ATOM     12  H   UNL     1      21.959 -20.488   0.051 -0.58 -0.00    +0.000 HD
DOCKED: ENDBRANCH   7   8
DOCKED: ENDBRANCH   4   6
DOCKED: ENDBRANCH   1   3
DOCKED: BRANCH   1  13
DOCKED: ATOM     13  C   UNL     1      26.339 -14.361  -1.887 -0.32 -0.00    +0.000 C 
DOCKED: ATOM     14  O   UNL     1      26.269 -13.347  -2.635 -0.26 -0.00    +0.000 OA
DOCKED: BRANCH  13  18
DOCKED: ATOM     15  C   UNL     1      27.386 -13.854   2.277 -0.28 -0.00    +0.000 A 
DOCKED: ATOM     16  C   UNL     1      28.027 -14.818   1.474 -0.14 -0.00    +0.000 A 
DOCKED: ATOM     17  C   UNL     1      27.681 -14.976   0.130 -0.25 -0.00    +0.000 A 
DOCKED: ATOM     18  C   UNL     1      26.692 -14.170  -0.456 -0.27 -0.00    +0.000 A 
DOCKED: ATOM     19  C   UNL     1      26.041 -13.215   0.342 -0.22 -0.00    +0.000 A 
DOCKED: ATOM     20  C   UNL     1      26.384 -13.056   1.687 -0.25 -0.00    +0.000 A 
DOCKED: BRANCH  15  22
DOCKED: ATOM     21  C   UNL     1      27.923 -14.857   4.544 -0.62 -0.00    +0.000 C 
DOCKED: ATOM     22  N   UNL     1      27.745 -13.688   3.674 -0.42 -0.00    +0.000 N 
DOCKED: ATOM     23  C   UNL     1      27.937 -12.347   4.242 -0.36 -0.00    +0.000 C 
DOCKED: ENDBRANCH  15  22
DOCKED: ENDBRANCH  13  18
DOCKED: ENDBRANCH   1  13
DOCKED: TORSDOF 6
DOCKED: TER
DOCKED: ENDMDL
________________________________________________________________________________


	BEGINNING GENETIC ALGORITHM DOCKING 20 of 100
Run: 20 Seed: 1775777903 1474199612 [ Run 20 of 100 GA/GALS ]
Beginning LAMARCKIAN GENETIC ALGORITHM (LGA), with a maximum of 2500000 energy evaluations.

Final-Value: -14.411


	FINAL GENETIC ALGORITHM DOCKED STATE
	_______________________________________________


Detailed state:  trans 26.016 -15.818 -0.901 quatxyzw 0.865997 0.391633 0.040313 0.308297 center -0.973 -0.390 0.234 ntor 6 120.8670 126.1814 12.4798 -173.7509 47.3471 -44.5873
State:	 26.016 -15.818  -0.901   0.910  0.412  0.042 144.087    120.87  126.18   12.48 -173.75   47.35  -44.59

DOCKED: MODEL       20
DOCKED: USER    Run = 20
DOCKED: USER    DPF = ligand_dock.biased.dpf
DOCKED: USER  
DOCKED: USER    Estimated Free Energy of Binding    =  -11.36 kcal/mol  [=(1)+(2)+(3)-(4)]
DOCKED: USER    Estimated Inhibition Constant, Ki   =    4.71 nM (nanomolar)  [Temperature = 298.15 K]
DOCKED: USER    
DOCKED: USER    (1) Final Intermolecular Energy     =  -13.15 kcal/mol
DOCKED: USER        vdW + Hbond + desolv Energy     =  -13.15 kcal/mol
DOCKED: USER        Electrostatic Energy            =   +0.00 kcal/mol
DOCKED: USER    (2) Final Total Internal Energy     =   -1.26 kcal/mol
DOCKED: USER    (3) Torsional Free Energy           =   +1.79 kcal/mol
DOCKED: USER    (4) Unbound System's Energy  [=(2)] =   -1.26 kcal/mol
DOCKED: USER    
DOCKED: USER    
DOCKED: USER    NEWDPF move ligand.pdbqt
DOCKED: USER    NEWDPF about -0.973000 -0.390000 0.234000
DOCKED: USER    NEWDPF tran0 26.015672 -15.817600 -0.901088
DOCKED: USER    NEWDPF quaternion0 0.865997 0.391633 0.040313 0.308297
DOCKED: USER    NEWDPF axisangle0 0.910340 0.411686 0.042377 144.086775
DOCKED: USER    NEWDPF quat0 0.910340 0.411686 0.042377 144.086775
DOCKED: USER    NEWDPF dihe0 120.87 126.18 12.48 -173.75 47.35 -44.59 
DOCKED: USER  keepresnum = 1 
DOCKED: USER  
DOCKED: REMARK  Name = 
DOCKED: REMARK  10 active torsions:
DOCKED: REMARK  status: ('A' for Active; 'I' for Inactive)
DOCKED: REMARK    1  A    between atoms: C_1  and  N_2
DOCKED: REMARK    2  A    between atoms: N_2  and  C_3
DOCKED: REMARK    3  A    between atoms: N_2  and  C_22
DOCKED: REMARK    4  A    between atoms: C_6  and  C_9
DOCKED: REMARK    5  A    between atoms: C_9  and  C_10
DOCKED: REMARK    6  A    between atoms: C_10  and  C_11
DOCKED: REMARK    7  A    between atoms: C_10  and  C_20
DOCKED: REMARK    8  A    between atoms: C_12  and  C_13
DOCKED: REMARK    9  A    between atoms: C_12  and  C_19
DOCKED: REMARK   10  A    between atoms: C_14  and  C_15
DOCKED: REMARK                            x       y       z     vdW  Elec       q    Type
DOCKED: REMARK                         _______ _______ _______ _____ _____    ______ ____
DOCKED: USER                              x       y       z     vdW  Elec       q    Type
DOCKED: USER                           _______ _______ _______ _____ _____    ______ ____
DOCKED: ROOT
DOCKED: ATOM      1  C   UNL     1      26.603 -15.720  -2.385 -0.42 -0.00    +0.000 C 
DOCKED: ATOM      2  C   UNL     1      27.069 -15.609  -3.840 -0.40 -0.00    +0.000 C 
DOCKED: ENDROOT
DOCKED: BRANCH   1   3
DOCKED: ATOM      3  C   UNL     1      25.245 -16.392  -2.324 -0.57 -0.00    +0.000 C 
DOCKED: ATOM      4  C   UNL     1      24.880 -17.311  -1.404 -0.67 -0.00    +0.000 C 
DOCKED: ATOM      5  C   UNL     1      25.819 -17.759  -0.306 -0.65 -0.00    +0.000 C 
DOCKED: BRANCH   4   6
DOCKED: ATOM      6  C   UNL     1      23.496 -17.846  -1.470 -0.71 -0.00    +0.000 C 
DOCKED: ATOM      7  C   UNL     1      22.756 -18.096  -0.381 -0.82 -0.00    +0.000 C 
DOCKED: BRANCH   7   8
DOCKED: ATOM      8  C   UNL     1      21.377 -18.626  -0.435 -0.83 -0.00    +0.000 C 
DOCKED: ATOM      9  N   UNL     1      21.056 -19.967  -0.046 -0.65 -0.00    +0.000 N 
DOCKED: ATOM     10  O   UNL     1      19.766 -20.374  -0.015 -1.20 -0.00    +0.000 OA
DOCKED: ATOM     11  O   UNL     1      20.462 -17.874  -0.862 -2.25 -0.00    +0.000 OA
DOCKED: ATOM     12  H   UNL     1      21.775 -20.595   0.198 -0.59 -0.00    +0.000 HD
DOCKED: ENDBRANCH   7   8
DOCKED: ENDBRANCH   4   6
DOCKED: ENDBRANCH   1   3
DOCKED: BRANCH   1  13
DOCKED: ATOM     13  C   UNL     1      26.547 -14.341  -1.758 -0.31 -0.00    +0.000 C 
DOCKED: ATOM     14  O   UNL     1      26.280 -13.345  -2.487 -0.24 -0.00    +0.000 OA
DOCKED: BRANCH  13  18
DOCKED: ATOM     15  C   UNL     1      27.392 -13.732   2.438 -0.30 -0.00    +0.000 A 
DOCKED: ATOM     16  C   UNL     1      28.038 -14.744   1.701 -0.10 -0.00    +0.000 A 
DOCKED: ATOM     17  C   UNL     1      27.758 -14.935   0.347 -0.25 -0.00    +0.000 A 
DOCKED: ATOM     18  C   UNL     1      26.831 -14.115  -0.317 -0.26 -0.00    +0.000 A 
DOCKED: ATOM     19  C   UNL     1      26.175 -13.111   0.414 -0.27 -0.00    +0.000 A 
DOCKED: ATOM     20  C   UNL     1      26.452 -12.920   1.771 -0.29 -0.00    +0.000 A 
DOCKED: BRANCH  15  22
DOCKED: ATOM     21  C   UNL     1      27.904 -14.681   4.734 -0.60 -0.00    +0.000 C 
DOCKED: ATOM     22  N   UNL     1      27.682 -13.532   3.847 -0.43 -0.00    +0.000 N 
DOCKED: ATOM     23  C   UNL     1      27.760 -12.178   4.409 -0.36 +0.00    +0.000 C 
DOCKED: ENDBRANCH  15  22
DOCKED: ENDBRANCH  13  18
DOCKED: ENDBRANCH   1  13
DOCKED: TORSDOF 6
DOCKED: TER
DOCKED: ENDMDL
________________________________________________________________________________


	BEGINNING GENETIC ALGORITHM DOCKING 21 of 100
Run: 21 Seed: 456480209 251574330 [ Run 21 of 100 GA/GALS ]
Beginning LAMARCKIAN GENETIC ALGORITHM (LGA), with a maximum of 2500000 energy evaluations.

Final-Value: -13.213


	FINAL GENETIC ALGORITHM DOCKED STATE
	_______________________________________________


Detailed state:  trans 23.881 -15.487 -2.324 quatxyzw -0.489716 -0.444870 -0.002353 0.749842 center -0.973 -0.390 0.234 ntor 6 -138.1749 -18.7590 -109.5078 98.8041 -136.6348 22.8305
State:	 23.881 -15.487  -2.324  -0.740 -0.672 -0.004 82.847   -138.17  -18.76 -109.51   98.80 -136.63   22.83

DOCKED: MODEL       21
DOCKED: USER    Run = 21
DOCKED: USER    DPF = ligand_dock.biased.dpf
DOCKED: USER  
DOCKED: USER    Estimated Free Energy of Binding    =  -10.66 kcal/mol  [=(1)+(2)+(3)-(4)]
DOCKED: USER    Estimated Inhibition Constant, Ki   =   15.31 nM (nanomolar)  [Temperature = 298.15 K]
DOCKED: USER    
DOCKED: USER    (1) Final Intermolecular Energy     =  -12.45 kcal/mol
DOCKED: USER        vdW + Hbond + desolv Energy     =  -12.45 kcal/mol
DOCKED: USER        Electrostatic Energy            =   +0.00 kcal/mol
DOCKED: USER    (2) Final Total Internal Energy     =   -0.76 kcal/mol
DOCKED: USER    (3) Torsional Free Energy           =   +1.79 kcal/mol
DOCKED: USER    (4) Unbound System's Energy  [=(2)] =   -0.76 kcal/mol
DOCKED: USER    
DOCKED: USER    
DOCKED: USER    NEWDPF move ligand.pdbqt
DOCKED: USER    NEWDPF about -0.973000 -0.390000 0.234000
DOCKED: USER    NEWDPF tran0 23.881144 -15.487334 -2.324169
DOCKED: USER    NEWDPF quaternion0 -0.489716 -0.444870 -0.002353 0.749842
DOCKED: USER    NEWDPF axisangle0 -0.740181 -0.672398 -0.003557 82.846571
DOCKED: USER    NEWDPF quat0 -0.740181 -0.672398 -0.003557 82.846571
DOCKED: USER    NEWDPF dihe0 -138.17 -18.76 -109.51 98.80 -136.63 22.83 
DOCKED: USER  keepresnum = 1 
DOCKED: USER  
DOCKED: REMARK  Name = 
DOCKED: REMARK  10 active torsions:
DOCKED: REMARK  status: ('A' for Active; 'I' for Inactive)
DOCKED: REMARK    1  A    between atoms: C_1  and  N_2
DOCKED: REMARK    2  A    between atoms: N_2  and  C_3
DOCKED: REMARK    3  A    between atoms: N_2  and  C_22
DOCKED: REMARK    4  A    between atoms: C_6  and  C_9
DOCKED: REMARK    5  A    between atoms: C_9  and  C_10
DOCKED: REMARK    6  A    between atoms: C_10  and  C_11
DOCKED: REMARK    7  A    between atoms: C_10  and  C_20
DOCKED: REMARK    8  A    between atoms: C_12  and  C_13
DOCKED: REMARK    9  A    between atoms: C_12  and  C_19
DOCKED: REMARK   10  A    between atoms: C_14  and  C_15
DOCKED: REMARK                            x       y       z     vdW  Elec       q    Type
DOCKED: REMARK                         _______ _______ _______ _____ _____    ______ ____
DOCKED: USER                              x       y       z     vdW  Elec       q    Type
DOCKED: USER                           _______ _______ _______ _____ _____    ______ ____
DOCKED: ROOT
DOCKED: ATOM      1  C   UNL     1      25.136 -15.751  -1.369 -0.42 -0.00    +0.000 C 
DOCKED: ATOM      2  C   UNL     1      26.308 -16.101  -0.447 -0.42 -0.00    +0.000 C 
DOCKED: ENDROOT
DOCKED: BRANCH   1   3
DOCKED: ATOM      3  C   UNL     1      23.905 -16.539  -0.967 -0.35 -0.00    +0.000 C 
DOCKED: ATOM      4  C   UNL     1      23.894 -17.857  -0.671 -0.78 -0.00    +0.000 C 
DOCKED: ATOM      5  C   UNL     1      25.155 -18.692  -0.700 -0.55 -0.00    +0.000 C 
DOCKED: BRANCH   4   6
DOCKED: ATOM      6  C   UNL     1      22.602 -18.466  -0.264 -0.82 -0.00    +0.000 C 
DOCKED: ATOM      7  C   UNL     1      21.806 -19.127  -1.116 -0.80 -0.00    +0.000 C 
DOCKED: BRANCH   7   8
DOCKED: ATOM      8  C   UNL     1      20.520 -19.740  -0.723 -0.85 -0.00    +0.000 C 
DOCKED: ATOM      9  N   UNL     1      20.325 -20.362   0.553 -0.67 -0.00    +0.000 N 
DOCKED: ATOM     10  O   UNL     1      19.101 -20.816   0.906 -0.79 -0.00    +0.000 OA
DOCKED: ATOM     11  O   UNL     1      19.573 -19.733  -1.554 -2.14 -0.00    +0.000 OA
DOCKED: ATOM     12  H   UNL     1      21.084 -20.459   1.174 -0.56 -0.00    +0.000 HD
DOCKED: ENDBRANCH   7   8
DOCKED: ENDBRANCH   4   6
DOCKED: ENDBRANCH   1   3
DOCKED: BRANCH   1  13
DOCKED: ATOM     13  C   UNL     1      25.512 -16.039  -2.809 -0.56 -0.00    +0.000 C 
DOCKED: ATOM     14  O   UNL     1      25.135 -17.122  -3.336 -0.33 -0.00    +0.000 OA
DOCKED: BRANCH  13  18
DOCKED: ATOM     15  C   UNL     1      27.882 -13.287  -5.154 -0.22 -0.00    +0.000 A 
DOCKED: ATOM     16  C   UNL     1      26.697 -12.871  -4.515 -0.27 -0.00    +0.000 A 
DOCKED: ATOM     17  C   UNL     1      25.937 -13.767  -3.761 -0.39 -0.00    +0.000 A 
DOCKED: ATOM     18  C   UNL     1      26.341 -15.103  -3.613 -0.46 -0.00    +0.000 A 
DOCKED: ATOM     19  C   UNL     1      27.515 -15.528  -4.256 -0.33 -0.00    +0.000 A 
DOCKED: ATOM     20  C   UNL     1      28.276 -14.633  -5.013 -0.30 -0.00    +0.000 A 
DOCKED: BRANCH  15  22
DOCKED: ATOM     21  C   UNL     1      29.286 -11.180  -5.308 -0.05 -0.00    +0.000 C 
DOCKED: ATOM     22  N   UNL     1      28.674 -12.356  -5.938 -0.14 -0.00    +0.000 N 
DOCKED: ATOM     23  C   UNL     1      28.877 -12.576  -7.376 -0.24 -0.00    +0.000 C 
DOCKED: ENDBRANCH  15  22
DOCKED: ENDBRANCH  13  18
DOCKED: ENDBRANCH   1  13
DOCKED: TORSDOF 6
DOCKED: TER
DOCKED: ENDMDL
________________________________________________________________________________


	BEGINNING GENETIC ALGORITHM DOCKING 22 of 100
Run: 22 Seed: 749083758 608557743 [ Run 22 of 100 GA/GALS ]
Beginning LAMARCKIAN GENETIC ALGORITHM (LGA), with a maximum of 2500000 energy evaluations.

Final-Value: -13.995


	FINAL GENETIC ALGORITHM DOCKED STATE
	_______________________________________________


Detailed state:  trans 26.586 -15.373 -2.702 quatxyzw 0.433893 0.138786 0.050471 -0.888779 center -0.973 -0.390 0.234 ntor 6 -164.4310 92.8372 20.5057 100.8103 -139.0101 -45.3929
State:	 26.586 -15.373  -2.702   0.947  0.303  0.110 -54.560   -164.43   92.84   20.51  100.81 -139.01  -45.39

DOCKED: MODEL       22
DOCKED: USER    Run = 22
DOCKED: USER    DPF = ligand_dock.biased.dpf
DOCKED: USER  
DOCKED: USER    Estimated Free Energy of Binding    =  -11.37 kcal/mol  [=(1)+(2)+(3)-(4)]
DOCKED: USER    Estimated Inhibition Constant, Ki   =    4.64 nM (nanomolar)  [Temperature = 298.15 K]
DOCKED: USER    
DOCKED: USER    (1) Final Intermolecular Energy     =  -13.16 kcal/mol
DOCKED: USER        vdW + Hbond + desolv Energy     =  -13.16 kcal/mol
DOCKED: USER        Electrostatic Energy            =   +0.00 kcal/mol
DOCKED: USER    (2) Final Total Internal Energy     =   -0.84 kcal/mol
DOCKED: USER    (3) Torsional Free Energy           =   +1.79 kcal/mol
DOCKED: USER    (4) Unbound System's Energy  [=(2)] =   -0.84 kcal/mol
DOCKED: USER    
DOCKED: USER    
DOCKED: USER    NEWDPF move ligand.pdbqt
DOCKED: USER    NEWDPF about -0.973000 -0.390000 0.234000
DOCKED: USER    NEWDPF tran0 26.586335 -15.372602 -2.701886
DOCKED: USER    NEWDPF quaternion0 0.433893 0.138786 0.050471 -0.888779
DOCKED: USER    NEWDPF axisangle0 0.946670 0.302803 0.110118 -54.559544
DOCKED: USER    NEWDPF quat0 0.946670 0.302803 0.110118 -54.559544
DOCKED: USER    NEWDPF dihe0 -164.43 92.84 20.51 100.81 -139.01 -45.39 
DOCKED: USER  keepresnum = 1 
DOCKED: USER  
DOCKED: REMARK  Name = 
DOCKED: REMARK  10 active torsions:
DOCKED: REMARK  status: ('A' for Active; 'I' for Inactive)
DOCKED: REMARK    1  A    between atoms: C_1  and  N_2
DOCKED: REMARK    2  A    between atoms: N_2  and  C_3
DOCKED: REMARK    3  A    between atoms: N_2  and  C_22
DOCKED: REMARK    4  A    between atoms: C_6  and  C_9
DOCKED: REMARK    5  A    between atoms: C_9  and  C_10
DOCKED: REMARK    6  A    between atoms: C_10  and  C_11
DOCKED: REMARK    7  A    between atoms: C_10  and  C_20
DOCKED: REMARK    8  A    between atoms: C_12  and  C_13
DOCKED: REMARK    9  A    between atoms: C_12  and  C_19
DOCKED: REMARK   10  A    between atoms: C_14  and  C_15
DOCKED: REMARK                            x       y       z     vdW  Elec       q    Type
DOCKED: REMARK                         _______ _______ _______ _____ _____    ______ ____
DOCKED: USER                              x       y       z     vdW  Elec       q    Type
DOCKED: USER                           _______ _______ _______ _____ _____    ______ ____
DOCKED: ROOT
DOCKED: ATOM      1  C   UNL     1      26.962 -15.558  -1.159 -0.36 -0.00    +0.000 C 
DOCKED: ATOM      2  C   UNL     1      27.272 -15.825   0.317 -0.30 -0.00    +0.000 C 
DOCKED: ENDROOT
DOCKED: BRANCH   1   3
DOCKED: ATOM      3  C   UNL     1      25.587 -16.094  -1.507 -0.54 -0.00    +0.000 C 
DOCKED: ATOM      4  C   UNL     1      25.130 -17.321  -1.175 -0.67 -0.00    +0.000 C 
DOCKED: ATOM      5  C   UNL     1      25.972 -18.301  -0.388 -0.65 -0.00    +0.000 C 
DOCKED: BRANCH   4   6
DOCKED: ATOM      6  C   UNL     1      23.742 -17.673  -1.569 -0.65 -0.00    +0.000 C 
DOCKED: ATOM      7  C   UNL     1      22.865 -18.239  -0.727 -0.83 -0.00    +0.000 C 
DOCKED: BRANCH   7   8
DOCKED: ATOM      8  C   UNL     1      21.481 -18.592  -1.107 -0.76 -0.00    +0.000 C 
DOCKED: ATOM      9  N   UNL     1      21.176 -19.727  -1.926 -0.49 -0.00    +0.000 N 
DOCKED: ATOM     10  O   UNL     1      19.888 -20.068  -2.160 -2.17 -0.00    +0.000 OA
DOCKED: ATOM     11  O   UNL     1      20.543 -17.849  -0.713 -2.30 +0.00    +0.000 OA
DOCKED: ATOM     12  H   UNL     1      21.905 -20.260  -2.319 -0.54 -0.00    +0.000 HD
DOCKED: ENDBRANCH   7   8
DOCKED: ENDBRANCH   4   6
DOCKED: ENDBRANCH   1   3
DOCKED: BRANCH   1  13
DOCKED: ATOM     13  C   UNL     1      28.024 -16.198  -2.031 -0.31 -0.00    +0.000 C 
DOCKED: ATOM     14  O   UNL     1      28.602 -17.245  -1.625 -0.35 -0.00    +0.000 OA
DOCKED: BRANCH  13  18
DOCKED: ATOM     15  C   UNL     1      29.175 -14.518  -5.844 -0.27 -0.00    +0.000 A 
DOCKED: ATOM     16  C   UNL     1      27.826 -14.784  -5.540 -0.38 -0.00    +0.000 A 
DOCKED: ATOM     17  C   UNL     1      27.463 -15.328  -4.306 -0.36 -0.00    +0.000 A 
DOCKED: ATOM     18  C   UNL     1      28.435 -15.614  -3.334 -0.23 -0.00    +0.000 A 
DOCKED: ATOM     19  C   UNL     1      29.784 -15.362  -3.635 -0.13 -0.00    +0.000 A 
DOCKED: ATOM     20  C   UNL     1      30.149 -14.820  -4.870 -0.12 -0.00    +0.000 A 
DOCKED: BRANCH  15  22
DOCKED: ATOM     21  C   UNL     1      28.697 -12.961  -7.788 -0.28 -0.00    +0.000 C 
DOCKED: ATOM     22  N   UNL     1      29.554 -13.952  -7.127 -0.28 -0.00    +0.000 N 
DOCKED: ATOM     23  C   UNL     1      30.802 -14.360  -7.784 -0.18 -0.00    +0.000 C 
DOCKED: ENDBRANCH  15  22
DOCKED: ENDBRANCH  13  18
DOCKED: ENDBRANCH   1  13
DOCKED: TORSDOF 6
DOCKED: TER
DOCKED: ENDMDL
________________________________________________________________________________


	BEGINNING GENETIC ALGORITHM DOCKING 23 of 100
Run: 23 Seed: 83425184 1437623313 [ Run 23 of 100 GA/GALS ]
Beginning LAMARCKIAN GENETIC ALGORITHM (LGA), with a maximum of 2500000 energy evaluations.

Final-Value: -14.158


	FINAL GENETIC ALGORITHM DOCKED STATE
	_______________________________________________


Detailed state:  trans 25.980 -15.584 0.236 quatxyzw 0.890675 0.416876 0.177174 0.039019 center -0.973 -0.390 0.234 ntor 6 -124.9637 43.1311 83.7481 -170.9162 -12.1491 157.5822
State:	 25.980 -15.584   0.236   0.891  0.417  0.177 175.528   -124.96   43.13   83.75 -170.92  -12.15  157.58

DOCKED: MODEL       23
DOCKED: USER    Run = 23
DOCKED: USER    DPF = ligand_dock.biased.dpf
DOCKED: USER  
DOCKED: USER    Estimated Free Energy of Binding    =  -11.30 kcal/mol  [=(1)+(2)+(3)-(4)]
DOCKED: USER    Estimated Inhibition Constant, Ki   =    5.22 nM (nanomolar)  [Temperature = 298.15 K]
DOCKED: USER    
DOCKED: USER    (1) Final Intermolecular Energy     =  -13.09 kcal/mol
DOCKED: USER        vdW + Hbond + desolv Energy     =  -13.09 kcal/mol
DOCKED: USER        Electrostatic Energy            =   +0.00 kcal/mol
DOCKED: USER    (2) Final Total Internal Energy     =   -1.07 kcal/mol
DOCKED: USER    (3) Torsional Free Energy           =   +1.79 kcal/mol
DOCKED: USER    (4) Unbound System's Energy  [=(2)] =   -1.07 kcal/mol
DOCKED: USER    
DOCKED: USER    
DOCKED: USER    NEWDPF move ligand.pdbqt
DOCKED: USER    NEWDPF about -0.973000 -0.390000 0.234000
DOCKED: USER    NEWDPF tran0 25.979970 -15.583869 0.235646
DOCKED: USER    NEWDPF quaternion0 0.890675 0.416876 0.177174 0.039019
DOCKED: USER    NEWDPF axisangle0 0.891354 0.417193 0.177309 175.527652
DOCKED: USER    NEWDPF quat0 0.891354 0.417193 0.177309 175.527652
DOCKED: USER    NEWDPF dihe0 -124.96 43.13 83.75 -170.92 -12.15 157.58 
DOCKED: USER  keepresnum = 1 
DOCKED: USER  
DOCKED: REMARK  Name = 
DOCKED: REMARK  10 active torsions:
DOCKED: REMARK  status: ('A' for Active; 'I' for Inactive)
DOCKED: REMARK    1  A    between atoms: C_1  and  N_2
DOCKED: REMARK    2  A    between atoms: N_2  and  C_3
DOCKED: REMARK    3  A    between atoms: N_2  and  C_22
DOCKED: REMARK    4  A    between atoms: C_6  and  C_9
DOCKED: REMARK    5  A    between atoms: C_9  and  C_10
DOCKED: REMARK    6  A    between atoms: C_10  and  C_11
DOCKED: REMARK    7  A    between atoms: C_10  and  C_20
DOCKED: REMARK    8  A    between atoms: C_12  and  C_13
DOCKED: REMARK    9  A    between atoms: C_12  and  C_19
DOCKED: REMARK   10  A    between atoms: C_14  and  C_15
DOCKED: REMARK                            x       y       z     vdW  Elec       q    Type
DOCKED: REMARK                         _______ _______ _______ _____ _____    ______ ____
DOCKED: USER                              x       y       z     vdW  Elec       q    Type
DOCKED: USER                           _______ _______ _______ _____ _____    ______ ____
DOCKED: ROOT
DOCKED: ATOM      1  C   UNL     1      27.149 -16.049  -0.751 -0.40 -0.00    +0.000 C 
DOCKED: ATOM      2  C   UNL     1      28.200 -16.492  -1.773 -0.32 -0.00    +0.000 C 
DOCKED: ENDROOT
DOCKED: BRANCH   1   3
DOCKED: ATOM      3  C   UNL     1      25.804 -16.660  -1.090 -0.56 -0.00    +0.000 C 
DOCKED: ATOM      4  C   UNL     1      25.438 -17.928  -0.803 -0.67 -0.00    +0.000 C 
DOCKED: ATOM      5  C   UNL     1      26.363 -18.882  -0.080 -0.39 -0.00    +0.000 C 
DOCKED: BRANCH   4   6
DOCKED: ATOM      6  C   UNL     1      24.066 -18.356  -1.179 -0.77 -0.00    +0.000 C 
DOCKED: ATOM      7  C   UNL     1      22.964 -17.894  -0.571 -0.81 -0.00    +0.000 C 
DOCKED: BRANCH   7   8
DOCKED: ATOM      8  C   UNL     1      21.594 -18.310  -0.938 -0.77 -0.00    +0.000 C 
DOCKED: ATOM      9  N   UNL     1      21.316 -19.571  -1.560 -0.65 -0.00    +0.000 N 
DOCKED: ATOM     10  O   UNL     1      20.037 -19.950  -1.783 -2.24 -0.00    +0.000 OA
DOCKED: ATOM     11  O   UNL     1      20.645 -17.513  -0.716 -2.10 +0.00    +0.000 OA
DOCKED: ATOM     12  H   UNL     1      22.058 -20.162  -1.826 -0.47 -0.00    +0.000 HD
DOCKED: ENDBRANCH   7   8
DOCKED: ENDBRANCH   4   6
DOCKED: ENDBRANCH   1   3
DOCKED: BRANCH   1  13
DOCKED: ATOM     13  C   UNL     1      27.060 -14.536  -0.729 -0.29 -0.00    +0.000 C 
DOCKED: ATOM     14  O   UNL     1      27.175 -13.930   0.373 -0.29 -0.00    +0.000 OA
DOCKED: BRANCH  13  18
DOCKED: ATOM     15  C   UNL     1      26.309 -12.263  -4.329 -0.27 -0.00    +0.000 A 
DOCKED: ATOM     16  C   UNL     1      25.716 -13.524  -4.124 -0.39 -0.00    +0.000 A 
DOCKED: ATOM     17  C   UNL     1      25.965 -14.252  -2.959 -0.35 -0.00    +0.000 A 
DOCKED: ATOM     18  C   UNL     1      26.807 -13.739  -1.958 -0.20 -0.00    +0.000 A 
DOCKED: ATOM     19  C   UNL     1      27.410 -12.487  -2.162 -0.12 -0.00    +0.000 A 
DOCKED: ATOM     20  C   UNL     1      27.164 -11.758  -3.328 -0.14 -0.00    +0.000 A 
DOCKED: BRANCH  15  22
DOCKED: ATOM     21  C   UNL     1      24.772 -10.806  -5.726 -0.41 -0.00    +0.000 C 
DOCKED: ATOM     22  N   UNL     1      26.050 -11.505  -5.540 -0.26 -0.00    +0.000 N 
DOCKED: ATOM     23  C   UNL     1      27.063 -11.422  -6.601 -0.19 -0.00    +0.000 C 
DOCKED: ENDBRANCH  15  22
DOCKED: ENDBRANCH  13  18
DOCKED: ENDBRANCH   1  13
DOCKED: TORSDOF 6
DOCKED: TER
DOCKED: ENDMDL
________________________________________________________________________________


	BEGINNING GENETIC ALGORITHM DOCKING 24 of 100
Run: 24 Seed: 40477814 2118852308 [ Run 24 of 100 GA/GALS ]
Beginning LAMARCKIAN GENETIC ALGORITHM (LGA), with a maximum of 2500000 energy evaluations.

Final-Value: -12.928


	FINAL GENETIC ALGORITHM DOCKED STATE
	_______________________________________________


Detailed state:  trans 26.358 -14.878 -2.507 quatxyzw 0.752370 0.423269 -0.083877 -0.497742 center -0.973 -0.390 0.234 ntor 6 -106.7668 -170.4890 157.0784 85.5997 36.4259 -63.5552
State:	 26.358 -14.878  -2.507   0.867  0.488 -0.097 -120.298   -106.77 -170.49  157.08   85.60   36.43  -63.56

DOCKED: MODEL       24
DOCKED: USER    Run = 24
DOCKED: USER    DPF = ligand_dock.biased.dpf
DOCKED: USER  
DOCKED: USER    Estimated Free Energy of Binding    =   -9.81 kcal/mol  [=(1)+(2)+(3)-(4)]
DOCKED: USER    Estimated Inhibition Constant, Ki   =   63.91 nM (nanomolar)  [Temperature = 298.15 K]
DOCKED: USER    
DOCKED: USER    (1) Final Intermolecular Energy     =  -11.60 kcal/mol
DOCKED: USER        vdW + Hbond + desolv Energy     =  -11.60 kcal/mol
DOCKED: USER        Electrostatic Energy            =   +0.00 kcal/mol
DOCKED: USER    (2) Final Total Internal Energy     =   -1.32 kcal/mol
DOCKED: USER    (3) Torsional Free Energy           =   +1.79 kcal/mol
DOCKED: USER    (4) Unbound System's Energy  [=(2)] =   -1.32 kcal/mol
DOCKED: USER    
DOCKED: USER    
DOCKED: USER    NEWDPF move ligand.pdbqt
DOCKED: USER    NEWDPF about -0.973000 -0.390000 0.234000
DOCKED: USER    NEWDPF tran0 26.357753 -14.878362 -2.506880
DOCKED: USER    NEWDPF quaternion0 0.752370 0.423269 -0.083877 -0.497742
DOCKED: USER    NEWDPF axisangle0 0.867460 0.488017 -0.096708 -120.298495
DOCKED: USER    NEWDPF quat0 0.867460 0.488017 -0.096708 -120.298495
DOCKED: USER    NEWDPF dihe0 -106.77 -170.49 157.08 85.60 36.43 -63.56 
DOCKED: USER  keepresnum = 1 
DOCKED: USER  
DOCKED: REMARK  Name = 
DOCKED: REMARK  10 active torsions:
DOCKED: REMARK  status: ('A' for Active; 'I' for Inactive)
DOCKED: REMARK    1  A    between atoms: C_1  and  N_2
DOCKED: REMARK    2  A    between atoms: N_2  and  C_3
DOCKED: REMARK    3  A    between atoms: N_2  and  C_22
DOCKED: REMARK    4  A    between atoms: C_6  and  C_9
DOCKED: REMARK    5  A    between atoms: C_9  and  C_10
DOCKED: REMARK    6  A    between atoms: C_10  and  C_11
DOCKED: REMARK    7  A    between atoms: C_10  and  C_20
DOCKED: REMARK    8  A    between atoms: C_12  and  C_13
DOCKED: REMARK    9  A    between atoms: C_12  and  C_19
DOCKED: REMARK   10  A    between atoms: C_14  and  C_15
DOCKED: REMARK                            x       y       z     vdW  Elec       q    Type
DOCKED: REMARK                         _______ _______ _______ _____ _____    ______ ____
DOCKED: USER                              x       y       z     vdW  Elec       q    Type
DOCKED: USER                           _______ _______ _______ _____ _____    ______ ____
DOCKED: ROOT
DOCKED: ATOM      1  C   UNL     1      27.501 -15.981  -2.324 -0.34 -0.00    +0.000 C 
DOCKED: ATOM      2  C   UNL     1      28.528 -17.108  -2.178 -0.20 -0.00    +0.000 C 
DOCKED: ENDROOT
DOCKED: BRANCH   1   3
DOCKED: ATOM      3  C   UNL     1      26.125 -16.476  -1.923 -0.51 -0.00    +0.000 C 
DOCKED: ATOM      4  C   UNL     1      25.315 -15.866  -1.031 -0.46 -0.00    +0.000 C 
DOCKED: ATOM      5  C   UNL     1      25.714 -14.582  -0.338 -0.19 -0.00    +0.000 C 
DOCKED: BRANCH   4   6
DOCKED: ATOM      6  C   UNL     1      23.982 -16.471  -0.778 -0.32 -0.00    +0.000 C 
DOCKED: ATOM      7  C   UNL     1      23.584 -17.622  -1.337 -0.71 -0.00    +0.000 C 
DOCKED: BRANCH   7   8
DOCKED: ATOM      8  C   UNL     1      22.262 -18.235  -1.091 -0.77 -0.00    +0.000 C 
DOCKED: ATOM      9  N   UNL     1      21.794 -19.371  -1.827 -0.57 -0.00    +0.000 N 
DOCKED: ATOM     10  O   UNL     1      20.622 -19.959  -1.495 -1.97 -0.00    +0.000 OA
DOCKED: ATOM     11  O   UNL     1      21.515 -17.719  -0.217 -1.45 -0.00    +0.000 OA
DOCKED: ATOM     12  H   UNL     1      22.327 -19.725  -2.576 -0.52 -0.00    +0.000 HD
DOCKED: ENDBRANCH   7   8
DOCKED: ENDBRANCH   4   6
DOCKED: ENDBRANCH   1   3
DOCKED: BRANCH   1  13
DOCKED: ATOM     13  C   UNL     1      27.494 -15.475  -3.752 -0.36 -0.00    +0.000 C 
DOCKED: ATOM     14  O   UNL     1      28.098 -16.137  -4.642 -0.40 -0.00    +0.000 OA
DOCKED: BRANCH  13  18
DOCKED: ATOM     15  C   UNL     1      25.514 -11.801  -4.883 -0.31 -0.00    +0.000 A 
DOCKED: ATOM     16  C   UNL     1      24.781 -12.926  -4.456 -0.15 -0.00    +0.000 A 
DOCKED: ATOM     17  C   UNL     1      25.428 -14.109  -4.094 -0.47 -0.00    +0.000 A 
DOCKED: ATOM     18  C   UNL     1      26.828 -14.203  -4.138 -0.35 -0.00    +0.000 A 
DOCKED: ATOM     19  C   UNL     1      27.565 -13.089  -4.574 -0.21 -0.00    +0.000 A 
DOCKED: ATOM     20  C   UNL     1      26.919 -11.905  -4.939 -0.20 -0.00    +0.000 A 
DOCKED: BRANCH  15  22
DOCKED: ATOM     21  C   UNL     1      24.644  -9.497  -4.277 -0.32 -0.00    +0.000 C 
DOCKED: ATOM     22  N   UNL     1      24.842 -10.570  -5.259 -0.38 -0.00    +0.000 N 
DOCKED: ATOM     23  C   UNL     1      24.349 -10.377  -6.629 -0.46 -0.00    +0.000 C 
DOCKED: ENDBRANCH  15  22
DOCKED: ENDBRANCH  13  18
DOCKED: ENDBRANCH   1  13
DOCKED: TORSDOF 6
DOCKED: TER
DOCKED: ENDMDL
________________________________________________________________________________


	BEGINNING GENETIC ALGORITHM DOCKING 25 of 100
Run: 25 Seed: 1746583615 1839387030 [ Run 25 of 100 GA/GALS ]
Beginning LAMARCKIAN GENETIC ALGORITHM (LGA), with a maximum of 2500000 energy evaluations.

Final-Value: -14.193


	FINAL GENETIC ALGORITHM DOCKED STATE
	_______________________________________________


Detailed state:  trans 26.545 -15.468 -1.308 quatxyzw 0.856524 0.264423 -0.059518 0.439209 center -0.973 -0.390 0.234 ntor 6 6.5012 -174.2598 -95.4947 -137.2629 52.9915 -69.8429
State:	 26.545 -15.468  -1.308   0.953  0.294 -0.066 127.893      6.50 -174.26  -95.49 -137.26   52.99  -69.84

DOCKED: MODEL       25
DOCKED: USER    Run = 25
DOCKED: USER    DPF = ligand_dock.biased.dpf
DOCKED: USER  
DOCKED: USER    Estimated Free Energy of Binding    =  -11.05 kcal/mol  [=(1)+(2)+(3)-(4)]
DOCKED: USER    Estimated Inhibition Constant, Ki   =    7.91 nM (nanomolar)  [Temperature = 298.15 K]
DOCKED: USER    
DOCKED: USER    (1) Final Intermolecular Energy     =  -12.84 kcal/mol
DOCKED: USER        vdW + Hbond + desolv Energy     =  -12.84 kcal/mol
DOCKED: USER        Electrostatic Energy            =   +0.00 kcal/mol
DOCKED: USER    (2) Final Total Internal Energy     =   -1.35 kcal/mol
DOCKED: USER    (3) Torsional Free Energy           =   +1.79 kcal/mol
DOCKED: USER    (4) Unbound System's Energy  [=(2)] =   -1.35 kcal/mol
DOCKED: USER    
DOCKED: USER    
DOCKED: USER    NEWDPF move ligand.pdbqt
DOCKED: USER    NEWDPF about -0.973000 -0.390000 0.234000
DOCKED: USER    NEWDPF tran0 26.545205 -15.468000 -1.308261
DOCKED: USER    NEWDPF quaternion0 0.856524 0.264423 -0.059518 0.439209
DOCKED: USER    NEWDPF axisangle0 0.953404 0.294332 -0.066250 127.893161
DOCKED: USER    NEWDPF quat0 0.953404 0.294332 -0.066250 127.893161
DOCKED: USER    NEWDPF dihe0 6.50 -174.26 -95.49 -137.26 52.99 -69.84 
DOCKED: USER  keepresnum = 1 
DOCKED: USER  
DOCKED: REMARK  Name = 
DOCKED: REMARK  10 active torsions:
DOCKED: REMARK  status: ('A' for Active; 'I' for Inactive)
DOCKED: REMARK    1  A    between atoms: C_1  and  N_2
DOCKED: REMARK    2  A    between atoms: N_2  and  C_3
DOCKED: REMARK    3  A    between atoms: N_2  and  C_22
DOCKED: REMARK    4  A    between atoms: C_6  and  C_9
DOCKED: REMARK    5  A    between atoms: C_9  and  C_10
DOCKED: REMARK    6  A    between atoms: C_10  and  C_11
DOCKED: REMARK    7  A    between atoms: C_10  and  C_20
DOCKED: REMARK    8  A    between atoms: C_12  and  C_13
DOCKED: REMARK    9  A    between atoms: C_12  and  C_19
DOCKED: REMARK   10  A    between atoms: C_14  and  C_15
DOCKED: REMARK                            x       y       z     vdW  Elec       q    Type
DOCKED: REMARK                         _______ _______ _______ _____ _____    ______ ____
DOCKED: USER                              x       y       z     vdW  Elec       q    Type
DOCKED: USER                           _______ _______ _______ _____ _____    ______ ____
DOCKED: ROOT
DOCKED: ATOM      1  C   UNL     1      26.611 -15.160  -2.876 -0.41 -0.00    +0.000 C 
DOCKED: ATOM      2  C   UNL     1      26.576 -14.832  -4.372 -0.52 -0.00    +0.000 C 
DOCKED: ENDROOT
DOCKED: BRANCH   1   3
DOCKED: ATOM      3  C   UNL     1      25.259 -15.681  -2.426 -0.52 -0.00    +0.000 C 
DOCKED: ATOM      4  C   UNL     1      25.073 -16.636  -1.490 -0.62 -0.00    +0.000 C 
DOCKED: ATOM      5  C   UNL     1      26.234 -17.287  -0.771 -0.59 -0.00    +0.000 C 
DOCKED: BRANCH   4   6
DOCKED: ATOM      6  C   UNL     1      23.677 -17.006  -1.145 -0.64 -0.00    +0.000 C 
DOCKED: ATOM      7  C   UNL     1      23.137 -18.193  -1.455 -0.72 -0.00    +0.000 C 
DOCKED: BRANCH   7   8
DOCKED: ATOM      8  C   UNL     1      21.750 -18.573  -1.115 -0.76 -0.00    +0.000 C 
DOCKED: ATOM      9  N   UNL     1      21.116 -19.734  -1.667 -0.65 -0.00    +0.000 N 
DOCKED: ATOM     10  O   UNL     1      19.882 -20.097  -1.246 -1.99 -0.00    +0.000 OA
DOCKED: ATOM     11  O   UNL     1      21.100 -17.832  -0.331 -1.82 +0.00    +0.000 OA
DOCKED: ATOM     12  H   UNL     1      21.579 -20.268  -2.353 -0.57 -0.00    +0.000 HD
DOCKED: ENDBRANCH   7   8
DOCKED: ENDBRANCH   4   6
DOCKED: ENDBRANCH   1   3
DOCKED: BRANCH   1  13
DOCKED: ATOM     13  C   UNL     1      26.999 -13.924  -2.088 -0.25 -0.00    +0.000 C 
DOCKED: ATOM     14  O   UNL     1      27.126 -12.824  -2.696 -0.19 -0.00    +0.000 OA
DOCKED: BRANCH  13  18
DOCKED: ATOM     15  C   UNL     1      27.818 -14.096   2.153 -0.29 -0.00    +0.000 A 
DOCKED: ATOM     16  C   UNL     1      28.680 -14.700   1.216 -0.13 -0.00    +0.000 A 
DOCKED: ATOM     17  C   UNL     1      28.407 -14.641  -0.152 -0.18 -0.00    +0.000 A 
DOCKED: ATOM     18  C   UNL     1      27.270 -13.969  -0.628 -0.21 -0.00    +0.000 A 
DOCKED: ATOM     19  C   UNL     1      26.400 -13.375   0.301 -0.28 -0.00    +0.000 A 
DOCKED: ATOM     20  C   UNL     1      26.670 -13.434   1.671 -0.21 -0.00    +0.000 A 
DOCKED: BRANCH  15  22
DOCKED: ATOM     21  C   UNL     1      27.012 -14.086   4.558 -0.52 -0.00    +0.000 C 
DOCKED: ATOM     22  N   UNL     1      28.101 -14.157   3.576 -0.42 -0.00    +0.000 N 
DOCKED: ATOM     23  C   UNL     1      29.482 -14.290   4.058 -0.38 -0.00    +0.000 C 
DOCKED: ENDBRANCH  15  22
DOCKED: ENDBRANCH  13  18
DOCKED: ENDBRANCH   1  13
DOCKED: TORSDOF 6
DOCKED: TER
DOCKED: ENDMDL
________________________________________________________________________________


	BEGINNING GENETIC ALGORITHM DOCKING 26 of 100
Run: 26 Seed: 1430889626 576280242 [ Run 26 of 100 GA/GALS ]
Beginning LAMARCKIAN GENETIC ALGORITHM (LGA), with a maximum of 2500000 energy evaluations.

Final-Value: -13.957


	FINAL GENETIC ALGORITHM DOCKED STATE
	_______________________________________________


Detailed state:  trans 25.944 -14.613 -2.780 quatxyzw -0.776591 -0.394959 0.082044 0.483925 center -0.973 -0.390 0.234 ntor 6 72.1648 -177.5033 -121.3745 -80.7277 -32.6593 -66.5742
State:	 25.944 -14.613  -2.780  -0.887 -0.451  0.094 122.116     72.16 -177.50 -121.37  -80.73  -32.66  -66.57

DOCKED: MODEL       26
DOCKED: USER    Run = 26
DOCKED: USER    DPF = ligand_dock.biased.dpf
DOCKED: USER  
DOCKED: USER    Estimated Free Energy of Binding    =  -11.21 kcal/mol  [=(1)+(2)+(3)-(4)]
DOCKED: USER    Estimated Inhibition Constant, Ki   =    6.04 nM (nanomolar)  [Temperature = 298.15 K]
DOCKED: USER    
DOCKED: USER    (1) Final Intermolecular Energy     =  -13.00 kcal/mol
DOCKED: USER        vdW + Hbond + desolv Energy     =  -13.00 kcal/mol
DOCKED: USER        Electrostatic Energy            =   +0.00 kcal/mol
DOCKED: USER    (2) Final Total Internal Energy     =   -0.95 kcal/mol
DOCKED: USER    (3) Torsional Free Energy           =   +1.79 kcal/mol
DOCKED: USER    (4) Unbound System's Energy  [=(2)] =   -0.95 kcal/mol
DOCKED: USER    
DOCKED: USER    
DOCKED: USER    NEWDPF move ligand.pdbqt
DOCKED: USER    NEWDPF about -0.973000 -0.390000 0.234000
DOCKED: USER    NEWDPF tran0 25.944375 -14.612573 -2.779770
DOCKED: USER    NEWDPF quaternion0 -0.776591 -0.394959 0.082044 0.483925
DOCKED: USER    NEWDPF axisangle0 -0.887421 -0.451325 0.093753 122.115897
DOCKED: USER    NEWDPF quat0 -0.887421 -0.451325 0.093753 122.115897
DOCKED: USER    NEWDPF dihe0 72.16 -177.50 -121.37 -80.73 -32.66 -66.57 
DOCKED: USER  keepresnum = 1 
DOCKED: USER  
DOCKED: REMARK  Name = 
DOCKED: REMARK  10 active torsions:
DOCKED: REMARK  status: ('A' for Active; 'I' for Inactive)
DOCKED: REMARK    1  A    between atoms: C_1  and  N_2
DOCKED: REMARK    2  A    between atoms: N_2  and  C_3
DOCKED: REMARK    3  A    between atoms: N_2  and  C_22
DOCKED: REMARK    4  A    between atoms: C_6  and  C_9
DOCKED: REMARK    5  A    between atoms: C_9  and  C_10
DOCKED: REMARK    6  A    between atoms: C_10  and  C_11
DOCKED: REMARK    7  A    between atoms: C_10  and  C_20
DOCKED: REMARK    8  A    between atoms: C_12  and  C_13
DOCKED: REMARK    9  A    between atoms: C_12  and  C_19
DOCKED: REMARK   10  A    between atoms: C_14  and  C_15
DOCKED: REMARK                            x       y       z     vdW  Elec       q    Type
DOCKED: REMARK                         _______ _______ _______ _____ _____    ______ ____
DOCKED: USER                              x       y       z     vdW  Elec       q    Type
DOCKED: USER                           _______ _______ _______ _____ _____    ______ ____
DOCKED: ROOT
DOCKED: ATOM      1  C   UNL     1      27.011 -15.793  -2.619 -0.38 -0.00    +0.000 C 
DOCKED: ATOM      2  C   UNL     1      27.961 -16.989  -2.499 +0.08 -0.00    +0.000 C 
DOCKED: ENDROOT
DOCKED: BRANCH   1   3
DOCKED: ATOM      3  C   UNL     1      25.597 -16.215  -2.269 -0.56 -0.00    +0.000 C 
DOCKED: ATOM      4  C   UNL     1      25.219 -16.742  -1.085 -0.61 -0.00    +0.000 C 
DOCKED: ATOM      5  C   UNL     1      26.203 -16.956   0.044 -0.32 -0.00    +0.000 C 
DOCKED: BRANCH   4   6
DOCKED: ATOM      6  C   UNL     1      23.783 -17.071  -0.899 -0.68 -0.00    +0.000 C 
DOCKED: ATOM      7  C   UNL     1      23.242 -18.232  -1.293 -0.78 -0.00    +0.000 C 
DOCKED: BRANCH   7   8
DOCKED: ATOM      8  C   UNL     1      21.815 -18.571  -1.111 -0.77 -0.00    +0.000 C 
DOCKED: ATOM      9  N   UNL     1      21.189 -19.656  -1.807 -0.59 -0.00    +0.000 N 
DOCKED: ATOM     10  O   UNL     1      19.908 -19.991  -1.530 -2.13 -0.00    +0.000 OA
DOCKED: ATOM     11  O   UNL     1      21.124 -17.861  -0.333 -1.86 +0.00    +0.000 OA
DOCKED: ATOM     12  H   UNL     1      21.693 -20.158  -2.489 -0.61 -0.00    +0.000 HD
DOCKED: ENDBRANCH   7   8
DOCKED: ENDBRANCH   4   6
DOCKED: ENDBRANCH   1   3
DOCKED: BRANCH   1  13
DOCKED: ATOM     13  C   UNL     1      27.071 -15.229  -4.024 -0.45 -0.00    +0.000 C 
DOCKED: ATOM     14  O   UNL     1      27.703 -15.864  -4.914 -0.69 +0.00    +0.000 OA
DOCKED: BRANCH  13  18
DOCKED: ATOM     15  C   UNL     1      25.281 -11.436  -5.073 -0.33 -0.00    +0.000 A 
DOCKED: ATOM     16  C   UNL     1      26.641 -11.698  -5.328 -0.21 -0.00    +0.000 A 
DOCKED: ATOM     17  C   UNL     1      27.212 -12.925  -4.985 -0.23 -0.00    +0.000 A 
DOCKED: ATOM     18  C   UNL     1      26.439 -13.932  -4.385 -0.38 -0.00    +0.000 A 
DOCKED: ATOM     19  C   UNL     1      25.085 -13.674  -4.117 -0.37 -0.00    +0.000 A 
DOCKED: ATOM     20  C   UNL     1      24.513 -12.445  -4.458 +0.02 -0.00    +0.000 A 
DOCKED: BRANCH  15  22
DOCKED: ATOM     21  C   UNL     1      24.734  -9.026  -4.498 -0.32 -0.00    +0.000 C 
DOCKED: ATOM     22  N   UNL     1      24.686 -10.160  -5.430 -0.37 -0.00    +0.000 N 
DOCKED: ATOM     23  C   UNL     1      24.027  -9.981  -6.729 -0.47 -0.00    +0.000 C 
DOCKED: ENDBRANCH  15  22
DOCKED: ENDBRANCH  13  18
DOCKED: ENDBRANCH   1  13
DOCKED: TORSDOF 6
DOCKED: TER
DOCKED: ENDMDL
________________________________________________________________________________


	BEGINNING GENETIC ALGORITHM DOCKING 27 of 100
Run: 27 Seed: 721575532 1132860577 [ Run 27 of 100 GA/GALS ]
Beginning LAMARCKIAN GENETIC ALGORITHM (LGA), with a maximum of 2500000 energy evaluations.

Final-Value: -14.214


	FINAL GENETIC ALGORITHM DOCKED STATE
	_______________________________________________


Detailed state:  trans 26.410 -15.177 -0.818 quatxyzw 0.882915 0.313764 0.032566 0.347783 center -0.973 -0.390 0.234 ntor 6 130.5145 171.0046 -61.3627 5.7567 41.2606 -57.2865
State:	 26.410 -15.177  -0.818   0.942  0.335  0.035 139.296    130.51  171.00  -61.36    5.76   41.26  -57.29

DOCKED: MODEL       27
DOCKED: USER    Run = 27
DOCKED: USER    DPF = ligand_dock.biased.dpf
DOCKED: USER  
DOCKED: USER    Estimated Free Energy of Binding    =  -11.20 kcal/mol  [=(1)+(2)+(3)-(4)]
DOCKED: USER    Estimated Inhibition Constant, Ki   =    6.22 nM (nanomolar)  [Temperature = 298.15 K]
DOCKED: USER    
DOCKED: USER    (1) Final Intermolecular Energy     =  -12.99 kcal/mol
DOCKED: USER        vdW + Hbond + desolv Energy     =  -12.99 kcal/mol
DOCKED: USER        Electrostatic Energy            =   +0.00 kcal/mol
DOCKED: USER    (2) Final Total Internal Energy     =   -1.23 kcal/mol
DOCKED: USER    (3) Torsional Free Energy           =   +1.79 kcal/mol
DOCKED: USER    (4) Unbound System's Energy  [=(2)] =   -1.23 kcal/mol
DOCKED: USER    
DOCKED: USER    
DOCKED: USER    NEWDPF move ligand.pdbqt
DOCKED: USER    NEWDPF about -0.973000 -0.390000 0.234000
DOCKED: USER    NEWDPF tran0 26.409787 -15.177474 -0.817971
DOCKED: USER    NEWDPF quaternion0 0.882915 0.313764 0.032566 0.347783
DOCKED: USER    NEWDPF axisangle0 0.941700 0.334655 0.034735 139.296404
DOCKED: USER    NEWDPF quat0 0.941700 0.334655 0.034735 139.296404
DOCKED: USER    NEWDPF dihe0 130.51 171.00 -61.36 5.76 41.26 -57.29 
DOCKED: USER  keepresnum = 1 
DOCKED: USER  
DOCKED: REMARK  Name = 
DOCKED: REMARK  10 active torsions:
DOCKED: REMARK  status: ('A' for Active; 'I' for Inactive)
DOCKED: REMARK    1  A    between atoms: C_1  and  N_2
DOCKED: REMARK    2  A    between atoms: N_2  and  C_3
DOCKED: REMARK    3  A    between atoms: N_2  and  C_22
DOCKED: REMARK    4  A    between atoms: C_6  and  C_9
DOCKED: REMARK    5  A    between atoms: C_9  and  C_10
DOCKED: REMARK    6  A    between atoms: C_10  and  C_11
DOCKED: REMARK    7  A    between atoms: C_10  and  C_20
DOCKED: REMARK    8  A    between atoms: C_12  and  C_13
DOCKED: REMARK    9  A    between atoms: C_12  and  C_19
DOCKED: REMARK   10  A    between atoms: C_14  and  C_15
DOCKED: REMARK                            x       y       z     vdW  Elec       q    Type
DOCKED: REMARK                         _______ _______ _______ _____ _____    ______ ____
DOCKED: USER                              x       y       z     vdW  Elec       q    Type
DOCKED: USER                           _______ _______ _______ _____ _____    ______ ____
DOCKED: ROOT
DOCKED: ATOM      1  C   UNL     1      26.870 -15.065  -2.345 -0.34 -0.00    +0.000 C 
DOCKED: ATOM      2  C   UNL     1      27.215 -14.926  -3.831 -0.39 -0.00    +0.000 C 
DOCKED: ENDROOT
DOCKED: BRANCH   1   3
DOCKED: ATOM      3  C   UNL     1      25.441 -15.548  -2.186 -0.50 -0.00    +0.000 C 
DOCKED: ATOM      4  C   UNL     1      25.051 -16.548  -1.366 -0.61 -0.00    +0.000 C 
DOCKED: ATOM      5  C   UNL     1      26.035 -17.293  -0.492 -0.60 -0.00    +0.000 C 
DOCKED: BRANCH   4   6
DOCKED: ATOM      6  C   UNL     1      23.603 -16.872  -1.309 -0.50 -0.00    +0.000 C 
DOCKED: ATOM      7  C   UNL     1      23.139 -18.118  -1.142 -0.78 -0.00    +0.000 C 
DOCKED: BRANCH   7   8
DOCKED: ATOM      8  C   UNL     1      21.701 -18.453  -1.081 -0.77 -0.00    +0.000 C 
DOCKED: ATOM      9  N   UNL     1      21.196 -19.740  -1.456 -0.66 -0.00    +0.000 N 
DOCKED: ATOM     10  O   UNL     1      19.886 -20.031  -1.285 -2.03 -0.00    +0.000 OA
DOCKED: ATOM     11  O   UNL     1      20.893 -17.561  -0.708 -2.11 +0.00    +0.000 OA
DOCKED: ATOM     12  H   UNL     1      21.804 -20.414  -1.840 -0.43 -0.00    +0.000 HD
DOCKED: ENDBRANCH   7   8
DOCKED: ENDBRANCH   4   6
DOCKED: ENDBRANCH   1   3
DOCKED: BRANCH   1  13
DOCKED: ATOM     13  C   UNL     1      27.067 -13.735  -1.645 -0.23 -0.00    +0.000 C 
DOCKED: ATOM     14  O   UNL     1      27.121 -12.680  -2.337 -0.18 -0.00    +0.000 OA
DOCKED: BRANCH  13  18
DOCKED: ATOM     15  C   UNL     1      27.554 -13.387   2.636 -0.30 -0.00    +0.000 A 
DOCKED: ATOM     16  C   UNL     1      26.924 -12.374   1.887 -0.29 -0.00    +0.000 A 
DOCKED: ATOM     17  C   UNL     1      26.772 -12.494   0.504 -0.24 -0.00    +0.000 A 
DOCKED: ATOM     18  C   UNL     1      27.236 -13.633  -0.172 -0.21 -0.00    +0.000 A 
DOCKED: ATOM     19  C   UNL     1      27.876 -14.642   0.567 -0.23 -0.00    +0.000 A 
DOCKED: ATOM     20  C   UNL     1      28.031 -14.523   1.951 -0.20 -0.00    +0.000 A 
DOCKED: BRANCH  15  22
DOCKED: ATOM     21  C   UNL     1      27.828 -11.942   4.703 -0.37 +0.00    +0.000 C 
DOCKED: ATOM     22  N   UNL     1      27.712 -13.264   4.074 -0.42 -0.00    +0.000 N 
DOCKED: ATOM     23  C   UNL     1      27.758 -14.459   4.926 -0.58 -0.00    +0.000 C 
DOCKED: ENDBRANCH  15  22
DOCKED: ENDBRANCH  13  18
DOCKED: ENDBRANCH   1  13
DOCKED: TORSDOF 6
DOCKED: TER
DOCKED: ENDMDL
________________________________________________________________________________


	BEGINNING GENETIC ALGORITHM DOCKING 28 of 100
Run: 28 Seed: 464561469 2043720602 [ Run 28 of 100 GA/GALS ]
Beginning LAMARCKIAN GENETIC ALGORITHM (LGA), with a maximum of 2500000 energy evaluations.

Final-Value: -14.015


	FINAL GENETIC ALGORITHM DOCKED STATE
	_______________________________________________


Detailed state:  trans 25.966 -15.390 0.172 quatxyzw 0.923534 0.318993 0.040277 0.209060 center -0.973 -0.390 0.234 ntor 6 133.1538 -130.9258 -44.0691 -165.9701 -2.0248 -47.2368
State:	 25.966 -15.390   0.172   0.944  0.326  0.041 155.865    133.15 -130.93  -44.07 -165.97   -2.02  -47.24

DOCKED: MODEL       28
DOCKED: USER    Run = 28
DOCKED: USER    DPF = ligand_dock.biased.dpf
DOCKED: USER  
DOCKED: USER    Estimated Free Energy of Binding    =  -11.17 kcal/mol  [=(1)+(2)+(3)-(4)]
DOCKED: USER    Estimated Inhibition Constant, Ki   =    6.53 nM (nanomolar)  [Temperature = 298.15 K]
DOCKED: USER    
DOCKED: USER    (1) Final Intermolecular Energy     =  -12.96 kcal/mol
DOCKED: USER        vdW + Hbond + desolv Energy     =  -12.96 kcal/mol
DOCKED: USER        Electrostatic Energy            =   +0.00 kcal/mol
DOCKED: USER    (2) Final Total Internal Energy     =   -1.06 kcal/mol
DOCKED: USER    (3) Torsional Free Energy           =   +1.79 kcal/mol
DOCKED: USER    (4) Unbound System's Energy  [=(2)] =   -1.06 kcal/mol
DOCKED: USER    
DOCKED: USER    
DOCKED: USER    NEWDPF move ligand.pdbqt
DOCKED: USER    NEWDPF about -0.973000 -0.390000 0.234000
DOCKED: USER    NEWDPF tran0 25.966266 -15.390453 0.171756
DOCKED: USER    NEWDPF quaternion0 0.923534 0.318993 0.040277 0.209060
DOCKED: USER    NEWDPF axisangle0 0.944403 0.326201 0.041187 155.865404
DOCKED: USER    NEWDPF quat0 0.944403 0.326201 0.041187 155.865404
DOCKED: USER    NEWDPF dihe0 133.15 -130.93 -44.07 -165.97 -2.02 -47.24 
DOCKED: USER  keepresnum = 1 
DOCKED: USER  
DOCKED: REMARK  Name = 
DOCKED: REMARK  10 active torsions:
DOCKED: REMARK  status: ('A' for Active; 'I' for Inactive)
DOCKED: REMARK    1  A    between atoms: C_1  and  N_2
DOCKED: REMARK    2  A    between atoms: N_2  and  C_3
DOCKED: REMARK    3  A    between atoms: N_2  and  C_22
DOCKED: REMARK    4  A    between atoms: C_6  and  C_9
DOCKED: REMARK    5  A    between atoms: C_9  and  C_10
DOCKED: REMARK    6  A    between atoms: C_10  and  C_11
DOCKED: REMARK    7  A    between atoms: C_10  and  C_20
DOCKED: REMARK    8  A    between atoms: C_12  and  C_13
DOCKED: REMARK    9  A    between atoms: C_12  and  C_19
DOCKED: REMARK   10  A    between atoms: C_14  and  C_15
DOCKED: REMARK                            x       y       z     vdW  Elec       q    Type
DOCKED: REMARK                         _______ _______ _______ _____ _____    ______ ____
DOCKED: USER                              x       y       z     vdW  Elec       q    Type
DOCKED: USER                           _______ _______ _______ _____ _____    ______ ____
DOCKED: ROOT
DOCKED: ATOM      1  C   UNL     1      26.576 -15.698  -1.274 -0.41 -0.00    +0.000 C 
DOCKED: ATOM      2  C   UNL     1      27.069 -15.967  -2.699 -0.37 -0.00    +0.000 C 
DOCKED: ENDROOT
DOCKED: BRANCH   1   3
DOCKED: ATOM      3  C   UNL     1      25.119 -16.097  -1.144 -0.52 -0.00    +0.000 C 
DOCKED: ATOM      4  C   UNL     1      24.684 -17.324  -0.784 -0.69 -0.00    +0.000 C 
DOCKED: ATOM      5  C   UNL     1      25.643 -18.447  -0.454 -0.63 -0.00    +0.000 C 
DOCKED: BRANCH   4   6
DOCKED: ATOM      6  C   UNL     1      23.218 -17.535  -0.674 -0.77 -0.00    +0.000 C 
DOCKED: ATOM      7  C   UNL     1      22.653 -18.751  -0.663 -0.83 -0.00    +0.000 C 
DOCKED: BRANCH   7   8
DOCKED: ATOM      8  C   UNL     1      21.196 -18.973  -0.551 -0.87 -0.00    +0.000 C 
DOCKED: ATOM      9  N   UNL     1      20.644 -20.127   0.093 -0.70 -0.00    +0.000 N 
DOCKED: ATOM     10  O   UNL     1      19.306 -20.235   0.262 -1.01 -0.00    +0.000 OA
DOCKED: ATOM     11  O   UNL     1      20.419 -18.125  -1.065 -2.14 -0.00    +0.000 OA
DOCKED: ATOM     12  H   UNL     1      21.239 -20.844   0.414 -0.56 -0.00    +0.000 HD
DOCKED: ENDBRANCH   7   8
DOCKED: ENDBRANCH   4   6
DOCKED: ENDBRANCH   1   3
DOCKED: BRANCH   1  13
DOCKED: ATOM     13  C   UNL     1      26.763 -14.233  -0.934 -0.29 -0.00    +0.000 C 
DOCKED: ATOM     14  O   UNL     1      26.738 -13.379  -1.864 -0.24 -0.00    +0.000 OA
DOCKED: BRANCH  13  18
DOCKED: ATOM     15  C   UNL     1      27.502 -12.930   3.121 -0.31 -0.00    +0.000 A 
DOCKED: ATOM     16  C   UNL     1      28.103 -14.095   2.607 -0.30 -0.00    +0.000 A 
DOCKED: ATOM     17  C   UNL     1      27.858 -14.510   1.296 -0.25 -0.00    +0.000 A 
DOCKED: ATOM     18  C   UNL     1      27.012 -13.769   0.456 -0.26 -0.00    +0.000 A 
DOCKED: ATOM     19  C   UNL     1      26.400 -12.612   0.966 -0.31 -0.00    +0.000 A 
DOCKED: ATOM     20  C   UNL     1      26.643 -12.196   2.278 -0.28 +0.00    +0.000 A 
DOCKED: BRANCH  15  22
DOCKED: ATOM     21  C   UNL     1      28.134 -13.469   5.518 -0.48 -0.00    +0.000 C 
DOCKED: ATOM     22  N   UNL     1      27.756 -12.497   4.484 -0.38 +0.00    +0.000 N 
DOCKED: ATOM     23  C   UNL     1      27.640 -11.080   4.852 -0.36 +0.00    +0.000 C 
DOCKED: ENDBRANCH  15  22
DOCKED: ENDBRANCH  13  18
DOCKED: ENDBRANCH   1  13
DOCKED: TORSDOF 6
DOCKED: TER
DOCKED: ENDMDL
________________________________________________________________________________


	BEGINNING GENETIC ALGORITHM DOCKING 29 of 100
Run: 29 Seed: 1233755999 2091743276 [ Run 29 of 100 GA/GALS ]
Beginning LAMARCKIAN GENETIC ALGORITHM (LGA), with a maximum of 2500000 energy evaluations.

Final-Value: -13.559


	FINAL GENETIC ALGORITHM DOCKED STATE
	_______________________________________________


Detailed state:  trans 26.369 -14.914 -2.205 quatxyzw 0.555893 0.264665 -0.050675 -0.786364 center -0.973 -0.390 0.234 ntor 6 -40.9667 176.7811 -53.3941 161.1217 -141.0620 -47.6505
State:	 26.369 -14.914  -2.205   0.900  0.428 -0.082 -76.306    -40.97  176.78  -53.39  161.12 -141.06  -47.65

DOCKED: MODEL       29
DOCKED: USER    Run = 29
DOCKED: USER    DPF = ligand_dock.biased.dpf
DOCKED: USER  
DOCKED: USER    Estimated Free Energy of Binding    =  -10.90 kcal/mol  [=(1)+(2)+(3)-(4)]
DOCKED: USER    Estimated Inhibition Constant, Ki   =   10.32 nM (nanomolar)  [Temperature = 298.15 K]
DOCKED: USER    
DOCKED: USER    (1) Final Intermolecular Energy     =  -12.68 kcal/mol
DOCKED: USER        vdW + Hbond + desolv Energy     =  -12.68 kcal/mol
DOCKED: USER        Electrostatic Energy            =   +0.00 kcal/mol
DOCKED: USER    (2) Final Total Internal Energy     =   -0.87 kcal/mol
DOCKED: USER    (3) Torsional Free Energy           =   +1.79 kcal/mol
DOCKED: USER    (4) Unbound System's Energy  [=(2)] =   -0.87 kcal/mol
DOCKED: USER    
DOCKED: USER    
DOCKED: USER    NEWDPF move ligand.pdbqt
DOCKED: USER    NEWDPF about -0.973000 -0.390000 0.234000
DOCKED: USER    NEWDPF tran0 26.368923 -14.914264 -2.205127
DOCKED: USER    NEWDPF quaternion0 0.555893 0.264665 -0.050675 -0.786364
DOCKED: USER    NEWDPF axisangle0 0.899847 0.428424 -0.082029 -76.306055
DOCKED: USER    NEWDPF quat0 0.899847 0.428424 -0.082029 -76.306055
DOCKED: USER    NEWDPF dihe0 -40.97 176.78 -53.39 161.12 -141.06 -47.65 
DOCKED: USER  keepresnum = 1 
DOCKED: USER  
DOCKED: REMARK  Name = 
DOCKED: REMARK  10 active torsions:
DOCKED: REMARK  status: ('A' for Active; 'I' for Inactive)
DOCKED: REMARK    1  A    between atoms: C_1  and  N_2
DOCKED: REMARK    2  A    between atoms: N_2  and  C_3
DOCKED: REMARK    3  A    between atoms: N_2  and  C_22
DOCKED: REMARK    4  A    between atoms: C_6  and  C_9
DOCKED: REMARK    5  A    between atoms: C_9  and  C_10
DOCKED: REMARK    6  A    between atoms: C_10  and  C_11
DOCKED: REMARK    7  A    between atoms: C_10  and  C_20
DOCKED: REMARK    8  A    between atoms: C_12  and  C_13
DOCKED: REMARK    9  A    between atoms: C_12  and  C_19
DOCKED: REMARK   10  A    between atoms: C_14  and  C_15
DOCKED: REMARK                            x       y       z     vdW  Elec       q    Type
DOCKED: REMARK                         _______ _______ _______ _____ _____    ______ ____
DOCKED: USER                              x       y       z     vdW  Elec       q    Type
DOCKED: USER                           _______ _______ _______ _____ _____    ______ ____
DOCKED: ROOT
DOCKED: ATOM      1  C   UNL     1      27.204 -15.533  -0.990 -0.34 -0.00    +0.000 C 
DOCKED: ATOM      2  C   UNL     1      27.945 -16.209   0.167 -0.20 -0.00    +0.000 C 
DOCKED: ENDROOT
DOCKED: BRANCH   1   3
DOCKED: ATOM      3  C   UNL     1      25.731 -15.890  -0.945 -0.47 -0.00    +0.000 C 
DOCKED: ATOM      4  C   UNL     1      25.245 -17.144  -0.819 -0.64 -0.00    +0.000 C 
DOCKED: ATOM      5  C   UNL     1      26.156 -18.345  -0.694 -0.57 -0.00    +0.000 C 
DOCKED: BRANCH   4   6
DOCKED: ATOM      6  C   UNL     1      23.770 -17.312  -0.759 -0.72 -0.00    +0.000 C 
DOCKED: ATOM      7  C   UNL     1      23.146 -18.433  -1.149 -0.80 -0.00    +0.000 C 
DOCKED: BRANCH   7   8
DOCKED: ATOM      8  C   UNL     1      21.681 -18.613  -1.091 -0.79 -0.00    +0.000 C 
DOCKED: ATOM      9  N   UNL     1      20.996 -19.590  -1.885 -0.62 -0.00    +0.000 N 
DOCKED: ATOM     10  O   UNL     1      19.668 -19.787  -1.722 -2.10 -0.00    +0.000 OA
DOCKED: ATOM     11  O   UNL     1      21.013 -17.860  -0.333 -1.94 +0.00    +0.000 OA
DOCKED: ATOM     12  H   UNL     1      21.494 -20.118  -2.551 -0.60 -0.00    +0.000 HD
DOCKED: ENDBRANCH   7   8
DOCKED: ENDBRANCH   4   6
DOCKED: ENDBRANCH   1   3
DOCKED: BRANCH   1  13
DOCKED: ATOM     13  C   UNL     1      27.819 -15.956  -2.310 -0.31 -0.00    +0.000 C 
DOCKED: ATOM     14  O   UNL     1      28.385 -17.082  -2.390 -0.34 -0.00    +0.000 OA
DOCKED: BRANCH  13  18
DOCKED: ATOM     15  C   UNL     1      27.753 -13.363  -5.768 -0.23 -0.00    +0.000 A 
DOCKED: ATOM     16  C   UNL     1      27.321 -12.909  -4.506 -0.22 -0.00    +0.000 A 
DOCKED: ATOM     17  C   UNL     1      27.344 -13.754  -3.394 -0.21 -0.00    +0.000 A 
DOCKED: ATOM     18  C   UNL     1      27.808 -15.075  -3.506 -0.26 -0.00    +0.000 A 
DOCKED: ATOM     19  C   UNL     1      28.229 -15.537  -4.764 -0.33 -0.00    +0.000 A 
DOCKED: ATOM     20  C   UNL     1      28.205 -14.693  -5.878 -0.36 -0.00    +0.000 A 
DOCKED: BRANCH  15  22
DOCKED: ATOM     21  C   UNL     1      28.562 -12.774  -8.099 -0.26 -0.00    +0.000 C 
DOCKED: ATOM     22  N   UNL     1      27.730 -12.485  -6.925 -0.19 -0.00    +0.000 N 
DOCKED: ATOM     23  C   UNL     1      26.872 -11.293  -6.940 -0.18 -0.00    +0.000 C 
DOCKED: ENDBRANCH  15  22
DOCKED: ENDBRANCH  13  18
DOCKED: ENDBRANCH   1  13
DOCKED: TORSDOF 6
DOCKED: TER
DOCKED: ENDMDL
________________________________________________________________________________


	BEGINNING GENETIC ALGORITHM DOCKING 30 of 100
Run: 30 Seed: 1524808406 406969338 [ Run 30 of 100 GA/GALS ]
Beginning LAMARCKIAN GENETIC ALGORITHM (LGA), with a maximum of 2500000 energy evaluations.

Final-Value: -13.086


	FINAL GENETIC ALGORITHM DOCKED STATE
	_______________________________________________


Detailed state:  trans 26.587 -15.770 -1.811 quatxyzw 0.760777 0.364332 0.075211 -0.531812 center -0.973 -0.390 0.234 ntor 6 172.0284 101.5858 -73.0863 63.4902 56.1037 -63.5789
State:	 26.587 -15.770  -1.811   0.898  0.430  0.089 -115.744    172.03  101.59  -73.09   63.49   56.10  -63.58

DOCKED: MODEL       30
DOCKED: USER    Run = 30
DOCKED: USER    DPF = ligand_dock.biased.dpf
DOCKED: USER  
DOCKED: USER    Estimated Free Energy of Binding    =   -9.95 kcal/mol  [=(1)+(2)+(3)-(4)]
DOCKED: USER    Estimated Inhibition Constant, Ki   =   50.77 nM (nanomolar)  [Temperature = 298.15 K]
DOCKED: USER    
DOCKED: USER    (1) Final Intermolecular Energy     =  -11.74 kcal/mol
DOCKED: USER        vdW + Hbond + desolv Energy     =  -11.74 kcal/mol
DOCKED: USER        Electrostatic Energy            =   +0.00 kcal/mol
DOCKED: USER    (2) Final Total Internal Energy     =   -1.34 kcal/mol
DOCKED: USER    (3) Torsional Free Energy           =   +1.79 kcal/mol
DOCKED: USER    (4) Unbound System's Energy  [=(2)] =   -1.34 kcal/mol
DOCKED: USER    
DOCKED: USER    
DOCKED: USER    NEWDPF move ligand.pdbqt
DOCKED: USER    NEWDPF about -0.973000 -0.390000 0.234000
DOCKED: USER    NEWDPF tran0 26.587069 -15.769633 -1.811054
DOCKED: USER    NEWDPF quaternion0 0.760777 0.364332 0.075211 -0.531812
DOCKED: USER    NEWDPF axisangle0 0.898347 0.430214 0.088812 -115.744060
DOCKED: USER    NEWDPF quat0 0.898347 0.430214 0.088812 -115.744060
DOCKED: USER    NEWDPF dihe0 172.03 101.59 -73.09 63.49 56.10 -63.58 
DOCKED: USER  keepresnum = 1 
DOCKED: USER  
DOCKED: REMARK  Name = 
DOCKED: REMARK  10 active torsions:
DOCKED: REMARK  status: ('A' for Active; 'I' for Inactive)
DOCKED: REMARK    1  A    between atoms: C_1  and  N_2
DOCKED: REMARK    2  A    between atoms: N_2  and  C_3
DOCKED: REMARK    3  A    between atoms: N_2  and  C_22
DOCKED: REMARK    4  A    between atoms: C_6  and  C_9
DOCKED: REMARK    5  A    between atoms: C_9  and  C_10
DOCKED: REMARK    6  A    between atoms: C_10  and  C_11
DOCKED: REMARK    7  A    between atoms: C_10  and  C_20
DOCKED: REMARK    8  A    between atoms: C_12  and  C_13
DOCKED: REMARK    9  A    between atoms: C_12  and  C_19
DOCKED: REMARK   10  A    between atoms: C_14  and  C_15
DOCKED: REMARK                            x       y       z     vdW  Elec       q    Type
DOCKED: REMARK                         _______ _______ _______ _____ _____    ______ ____
DOCKED: USER                              x       y       z     vdW  Elec       q    Type
DOCKED: USER                           _______ _______ _______ _____ _____    ______ ____
DOCKED: ROOT
DOCKED: ATOM      1  C   UNL     1      27.696 -16.822  -1.342 -0.40 -0.00    +0.000 C 
DOCKED: ATOM      2  C   UNL     1      28.710 -17.900  -0.948 -0.05 -0.00    +0.000 C 
DOCKED: ENDROOT
DOCKED: BRANCH   1   3
DOCKED: ATOM      3  C   UNL     1      26.309 -17.424  -1.447 -0.50 -0.00    +0.000 C 
DOCKED: ATOM      4  C   UNL     1      25.161 -16.773  -1.164 -0.62 -0.00    +0.000 C 
DOCKED: ATOM      5  C   UNL     1      25.152 -15.329  -0.712 -0.06 -0.00    +0.000 C 
DOCKED: BRANCH   4   6
DOCKED: ATOM      6  C   UNL     1      23.883 -17.506  -1.352 -0.72 -0.00    +0.000 C 
DOCKED: ATOM      7  C   UNL     1      22.901 -17.509  -0.440 -0.75 -0.00    +0.000 C 
DOCKED: BRANCH   7   8
DOCKED: ATOM      8  C   UNL     1      21.624 -18.232  -0.618 -0.82 -0.00    +0.000 C 
DOCKED: ATOM      9  N   UNL     1      21.482 -19.624  -0.310 -0.70 -0.00    +0.000 N 
DOCKED: ATOM     10  O   UNL     1      20.269 -20.217  -0.392 -1.41 -0.00    +0.000 OA
DOCKED: ATOM     11  O   UNL     1      20.636 -17.602  -1.081 -2.15 -0.00    +0.000 OA
DOCKED: ATOM     12  H   UNL     1      22.270 -20.151  -0.040 -0.49 -0.00    +0.000 HD
DOCKED: ENDBRANCH   7   8
DOCKED: ENDBRANCH   4   6
DOCKED: ENDBRANCH   1   3
DOCKED: BRANCH   1  13
DOCKED: ATOM     13  C   UNL     1      28.107 -16.187  -2.656 -0.29 -0.00    +0.000 C 
DOCKED: ATOM     14  O   UNL     1      29.016 -16.731  -3.343 -0.31 -0.00    +0.000 OA
DOCKED: BRANCH  13  18
DOCKED: ATOM     15  C   UNL     1      26.317 -12.537  -4.128 -0.28 -0.00    +0.000 A 
DOCKED: ATOM     16  C   UNL     1      25.778 -13.798  -4.450 -0.35 -0.00    +0.000 A 
DOCKED: ATOM     17  C   UNL     1      26.363 -14.972  -3.972 -0.47 -0.00    +0.000 A 
DOCKED: ATOM     18  C   UNL     1      27.499 -14.923  -3.149 -0.26 -0.00    +0.000 A 
DOCKED: ATOM     19  C   UNL     1      28.049 -13.670  -2.832 -0.13 -0.00    +0.000 A 
DOCKED: ATOM     20  C   UNL     1      27.466 -12.494  -3.312 -0.14 -0.00    +0.000 A 
DOCKED: BRANCH  15  22
DOCKED: ATOM     21  C   UNL     1      24.376 -11.340  -5.238 -0.36 -0.00    +0.000 C 
DOCKED: ATOM     22  N   UNL     1      25.709 -11.315  -4.624 -0.31 -0.00    +0.000 N 
DOCKED: ATOM     23  C   UNL     1      26.417 -10.032  -4.520 -0.18 -0.00    +0.000 C 
DOCKED: ENDBRANCH  15  22
DOCKED: ENDBRANCH  13  18
DOCKED: ENDBRANCH   1  13
DOCKED: TORSDOF 6
DOCKED: TER
DOCKED: ENDMDL
________________________________________________________________________________


	BEGINNING GENETIC ALGORITHM DOCKING 31 of 100
Run: 31 Seed: 1357374329 546819507 [ Run 31 of 100 GA/GALS ]
Beginning LAMARCKIAN GENETIC ALGORITHM (LGA), with a maximum of 2500000 energy evaluations.

Final-Value: -14.234


	FINAL GENETIC ALGORITHM DOCKED STATE
	_______________________________________________


Detailed state:  trans 26.409 -15.506 -0.757 quatxyzw -0.871908 -0.299475 0.076382 -0.379811 center -0.973 -0.390 0.234 ntor 6 120.8046 -105.5038 -138.8687 23.6263 44.4874 -67.9222
State:	 26.409 -15.506  -0.757  -0.943 -0.324  0.083 -135.356    120.80 -105.50 -138.87   23.63   44.49  -67.92

DOCKED: MODEL       31
DOCKED: USER    Run = 31
DOCKED: USER    DPF = ligand_dock.biased.dpf
DOCKED: USER  
DOCKED: USER    Estimated Free Energy of Binding    =  -11.13 kcal/mol  [=(1)+(2)+(3)-(4)]
DOCKED: USER    Estimated Inhibition Constant, Ki   =    6.94 nM (nanomolar)  [Temperature = 298.15 K]
DOCKED: USER    
DOCKED: USER    (1) Final Intermolecular Energy     =  -12.92 kcal/mol
DOCKED: USER        vdW + Hbond + desolv Energy     =  -12.92 kcal/mol
DOCKED: USER        Electrostatic Energy            =   +0.00 kcal/mol
DOCKED: USER    (2) Final Total Internal Energy     =   -1.31 kcal/mol
DOCKED: USER    (3) Torsional Free Energy           =   +1.79 kcal/mol
DOCKED: USER    (4) Unbound System's Energy  [=(2)] =   -1.31 kcal/mol
DOCKED: USER    
DOCKED: USER    
DOCKED: USER    NEWDPF move ligand.pdbqt
DOCKED: USER    NEWDPF about -0.973000 -0.390000 0.234000
DOCKED: USER    NEWDPF tran0 26.409263 -15.506345 -0.757279
DOCKED: USER    NEWDPF quaternion0 -0.871908 -0.299475 0.076382 -0.379811
DOCKED: USER    NEWDPF axisangle0 -0.942538 -0.323734 0.082570 -135.356037
DOCKED: USER    NEWDPF quat0 -0.942538 -0.323734 0.082570 -135.356037
DOCKED: USER    NEWDPF dihe0 120.80 -105.50 -138.87 23.63 44.49 -67.92 
DOCKED: USER  keepresnum = 1 
DOCKED: USER  
DOCKED: REMARK  Name = 
DOCKED: REMARK  10 active torsions:
DOCKED: REMARK  status: ('A' for Active; 'I' for Inactive)
DOCKED: REMARK    1  A    between atoms: C_1  and  N_2
DOCKED: REMARK    2  A    between atoms: N_2  and  C_3
DOCKED: REMARK    3  A    between atoms: N_2  and  C_22
DOCKED: REMARK    4  A    between atoms: C_6  and  C_9
DOCKED: REMARK    5  A    between atoms: C_9  and  C_10
DOCKED: REMARK    6  A    between atoms: C_10  and  C_11
DOCKED: REMARK    7  A    between atoms: C_10  and  C_20
DOCKED: REMARK    8  A    between atoms: C_12  and  C_13
DOCKED: REMARK    9  A    between atoms: C_12  and  C_19
DOCKED: REMARK   10  A    between atoms: C_14  and  C_15
DOCKED: REMARK                            x       y       z     vdW  Elec       q    Type
DOCKED: REMARK                         _______ _______ _______ _____ _____    ______ ____
DOCKED: USER                              x       y       z     vdW  Elec       q    Type
DOCKED: USER                           _______ _______ _______ _____ _____    ______ ____
DOCKED: ROOT
DOCKED: ATOM      1  C   UNL     1      26.514 -15.382  -2.348 -0.41 -0.00    +0.000 C 
DOCKED: ATOM      2  C   UNL     1      26.515 -15.237  -3.873 -0.52 -0.00    +0.000 C 
DOCKED: ENDROOT
DOCKED: BRANCH   1   3
DOCKED: ATOM      3  C   UNL     1      25.187 -15.947  -1.880 -0.54 -0.00    +0.000 C 
DOCKED: ATOM      4  C   UNL     1      25.046 -16.917  -0.951 -0.63 -0.00    +0.000 C 
DOCKED: ATOM      5  C   UNL     1      26.238 -17.541  -0.261 -0.60 -0.00    +0.000 C 
DOCKED: BRANCH   4   6
DOCKED: ATOM      6  C   UNL     1      23.667 -17.331  -0.586 -0.69 -0.00    +0.000 C 
DOCKED: ATOM      7  C   UNL     1      22.848 -17.972  -1.432 -0.57 -0.00    +0.000 C 
DOCKED: BRANCH   7   8
DOCKED: ATOM      8  C   UNL     1      21.475 -18.391  -1.079 -0.73 -0.00    +0.000 C 
DOCKED: ATOM      9  N   UNL     1      21.041 -19.753  -1.173 -0.74 -0.00    +0.000 N 
DOCKED: ATOM     10  O   UNL     1      19.808 -20.104  -0.741 -1.67 -0.00    +0.000 OA
DOCKED: ATOM     11  O   UNL     1      20.656 -17.510  -0.706 -2.10 +0.00    +0.000 OA
DOCKED: ATOM     12  H   UNL     1      21.642 -20.436  -1.553 -0.33 -0.00    +0.000 HD
DOCKED: ENDBRANCH   7   8
DOCKED: ENDBRANCH   4   6
DOCKED: ENDBRANCH   1   3
DOCKED: BRANCH   1  13
DOCKED: ATOM     13  C   UNL     1      26.782 -14.036  -1.704 -0.26 -0.00    +0.000 C 
DOCKED: ATOM     14  O   UNL     1      26.817 -13.004  -2.432 -0.22 -0.00    +0.000 OA
DOCKED: BRANCH  13  18
DOCKED: ATOM     15  C   UNL     1      27.511 -13.570   2.531 -0.30 -0.00    +0.000 A 
DOCKED: ATOM     16  C   UNL     1      26.561 -12.774   1.861 -0.30 -0.00    +0.000 A 
DOCKED: ATOM     17  C   UNL     1      26.333 -12.930   0.492 -0.28 -0.00    +0.000 A 
DOCKED: ATOM     18  C   UNL     1      27.039 -13.892  -0.248 -0.24 -0.00    +0.000 A 
DOCKED: ATOM     19  C   UNL     1      27.996 -14.681   0.412 -0.23 -0.00    +0.000 A 
DOCKED: ATOM     20  C   UNL     1      28.227 -14.525   1.782 -0.19 -0.00    +0.000 A 
DOCKED: BRANCH  15  22
DOCKED: ATOM     21  C   UNL     1      27.750 -12.073   4.566 -0.36 +0.00    +0.000 C 
DOCKED: ATOM     22  N   UNL     1      27.749 -13.408   3.955 -0.42 -0.00    +0.000 N 
DOCKED: ATOM     23  C   UNL     1      27.991 -14.578   4.809 -0.59 -0.00    +0.000 C 
DOCKED: ENDBRANCH  15  22
DOCKED: ENDBRANCH  13  18
DOCKED: ENDBRANCH   1  13
DOCKED: TORSDOF 6
DOCKED: TER
DOCKED: ENDMDL
________________________________________________________________________________


	BEGINNING GENETIC ALGORITHM DOCKING 32 of 100
Run: 32 Seed: 1291315040 1016383073 [ Run 32 of 100 GA/GALS ]
Beginning LAMARCKIAN GENETIC ALGORITHM (LGA), with a maximum of 2500000 energy evaluations.

Final-Value: -14.153


	FINAL GENETIC ALGORITHM DOCKED STATE
	_______________________________________________


Detailed state:  trans 26.198 -15.936 -0.704 quatxyzw 0.852727 0.374511 -0.112668 0.346272 center -0.973 -0.390 0.234 ntor 6 -77.8519 -16.1420 154.8946 15.3453 46.4234 -60.1329
State:	 26.198 -15.936  -0.704   0.909  0.399 -0.120 139.481    -77.85  -16.14  154.89   15.35   46.42  -60.13

DOCKED: MODEL       32
DOCKED: USER    Run = 32
DOCKED: USER    DPF = ligand_dock.biased.dpf
DOCKED: USER  
DOCKED: USER    Estimated Free Energy of Binding    =  -11.02 kcal/mol  [=(1)+(2)+(3)-(4)]
DOCKED: USER    Estimated Inhibition Constant, Ki   =    8.37 nM (nanomolar)  [Temperature = 298.15 K]
DOCKED: USER    
DOCKED: USER    (1) Final Intermolecular Energy     =  -12.81 kcal/mol
DOCKED: USER        vdW + Hbond + desolv Energy     =  -12.81 kcal/mol
DOCKED: USER        Electrostatic Energy            =   +0.00 kcal/mol
DOCKED: USER    (2) Final Total Internal Energy     =   -1.34 kcal/mol
DOCKED: USER    (3) Torsional Free Energy           =   +1.79 kcal/mol
DOCKED: USER    (4) Unbound System's Energy  [=(2)] =   -1.34 kcal/mol
DOCKED: USER    
DOCKED: USER    
DOCKED: USER    NEWDPF move ligand.pdbqt
DOCKED: USER    NEWDPF about -0.973000 -0.390000 0.234000
DOCKED: USER    NEWDPF tran0 26.197726 -15.935991 -0.704125
DOCKED: USER    NEWDPF quaternion0 0.852727 0.374511 -0.112668 0.346272
DOCKED: USER    NEWDPF axisangle0 0.908961 0.399208 -0.120098 139.481048
DOCKED: USER    NEWDPF quat0 0.908961 0.399208 -0.120098 139.481048
DOCKED: USER    NEWDPF dihe0 -77.85 -16.14 154.89 15.35 46.42 -60.13 
DOCKED: USER  keepresnum = 1 
DOCKED: USER  
DOCKED: REMARK  Name = 
DOCKED: REMARK  10 active torsions:
DOCKED: REMARK  status: ('A' for Active; 'I' for Inactive)
DOCKED: REMARK    1  A    between atoms: C_1  and  N_2
DOCKED: REMARK    2  A    between atoms: N_2  and  C_3
DOCKED: REMARK    3  A    between atoms: N_2  and  C_22
DOCKED: REMARK    4  A    between atoms: C_6  and  C_9
DOCKED: REMARK    5  A    between atoms: C_9  and  C_10
DOCKED: REMARK    6  A    between atoms: C_10  and  C_11
DOCKED: REMARK    7  A    between atoms: C_10  and  C_20
DOCKED: REMARK    8  A    between atoms: C_12  and  C_13
DOCKED: REMARK    9  A    between atoms: C_12  and  C_19
DOCKED: REMARK   10  A    between atoms: C_14  and  C_15
DOCKED: REMARK                            x       y       z     vdW  Elec       q    Type
DOCKED: REMARK                         _______ _______ _______ _____ _____    ______ ____
DOCKED: USER                              x       y       z     vdW  Elec       q    Type
DOCKED: USER                           _______ _______ _______ _____ _____    ______ ____
DOCKED: ROOT
DOCKED: ATOM      1  C   UNL     1      26.304 -15.880  -2.299 -0.47 -0.00    +0.000 C 
DOCKED: ATOM      2  C   UNL     1      26.304 -15.818  -3.829 -0.37 -0.00    +0.000 C 
DOCKED: ENDROOT
DOCKED: BRANCH   1   3
DOCKED: ATOM      3  C   UNL     1      25.089 -16.642  -1.808 -0.62 -0.00    +0.000 C 
DOCKED: ATOM      4  C   UNL     1      25.097 -17.544  -0.804 -0.69 -0.00    +0.000 C 
DOCKED: ATOM      5  C   UNL     1      26.359 -17.879  -0.041 -0.61 -0.00    +0.000 C 
DOCKED: BRANCH   4   6
DOCKED: ATOM      6  C   UNL     1      23.806 -18.177  -0.430 -0.79 -0.00    +0.000 C 
DOCKED: ATOM      7  C   UNL     1      22.653 -17.913  -1.060 -0.75 -0.00    +0.000 C 
DOCKED: BRANCH   7   8
DOCKED: ATOM      8  C   UNL     1      21.363 -18.538  -0.699 -0.86 -0.00    +0.000 C 
DOCKED: ATOM      9  N   UNL     1      21.272 -19.883  -0.213 -0.63 -0.00    +0.000 N 
DOCKED: ATOM     10  O   UNL     1      20.083 -20.376   0.202 -1.04 -0.00    +0.000 OA
DOCKED: ATOM     11  O   UNL     1      20.308 -17.867  -0.849 -2.21 -0.00    +0.000 OA
DOCKED: ATOM     12  H   UNL     1      22.077 -20.450  -0.182 -0.43 -0.00    +0.000 HD
DOCKED: ENDBRANCH   7   8
DOCKED: ENDBRANCH   4   6
DOCKED: ENDBRANCH   1   3
DOCKED: BRANCH   1  13
DOCKED: ATOM     13  C   UNL     1      26.323 -14.476  -1.728 -0.34 -0.00    +0.000 C 
DOCKED: ATOM     14  O   UNL     1      26.043 -13.503  -2.483 -0.18 -0.00    +0.000 OA
DOCKED: BRANCH  13  18
DOCKED: ATOM     15  C   UNL     1      27.382 -13.627   2.376 -0.30 -0.00    +0.000 A 
DOCKED: ATOM     16  C   UNL     1      26.306 -12.970   1.748 -0.26 -0.00    +0.000 A 
DOCKED: ATOM     17  C   UNL     1      25.972 -13.249   0.421 -0.24 -0.00    +0.000 A 
DOCKED: ATOM     18  C   UNL     1      26.695 -14.200  -0.316 -0.27 -0.00    +0.000 A 
DOCKED: ATOM     19  C   UNL     1      27.777 -14.851   0.301 -0.24 -0.00    +0.000 A 
DOCKED: ATOM     20  C   UNL     1      28.114 -14.571   1.628 -0.19 -0.00    +0.000 A 
DOCKED: BRANCH  15  22
DOCKED: ATOM     21  C   UNL     1      27.759 -14.409   4.760 -0.60 -0.00    +0.000 C 
DOCKED: ATOM     22  N   UNL     1      27.731 -13.338   3.756 -0.39 -0.00    +0.000 N 
DOCKED: ATOM     23  C   UNL     1      28.061 -11.969   4.172 -0.33 +0.00    +0.000 C 
DOCKED: ENDBRANCH  15  22
DOCKED: ENDBRANCH  13  18
DOCKED: ENDBRANCH   1  13
DOCKED: TORSDOF 6
DOCKED: TER
DOCKED: ENDMDL
________________________________________________________________________________


	BEGINNING GENETIC ALGORITHM DOCKING 33 of 100
Run: 33 Seed: 382723885 652412754 [ Run 33 of 100 GA/GALS ]
Beginning LAMARCKIAN GENETIC ALGORITHM (LGA), with a maximum of 2500000 energy evaluations.

Final-Value: -13.258


	FINAL GENETIC ALGORITHM DOCKED STATE
	_______________________________________________


Detailed state:  trans 25.933 -15.324 -2.831 quatxyzw -0.409263 -0.223129 -0.071820 0.881793 center -0.973 -0.390 0.234 ntor 6 -123.1817 123.5226 51.2325 -132.5312 -145.5133 -30.8159
State:	 25.933 -15.324  -2.831  -0.868 -0.473 -0.152 56.281   -123.18  123.52   51.23 -132.53 -145.51  -30.82

DOCKED: MODEL       33
DOCKED: USER    Run = 33
DOCKED: USER    DPF = ligand_dock.biased.dpf
DOCKED: USER  
DOCKED: USER    Estimated Free Energy of Binding    =  -10.64 kcal/mol  [=(1)+(2)+(3)-(4)]
DOCKED: USER    Estimated Inhibition Constant, Ki   =   15.99 nM (nanomolar)  [Temperature = 298.15 K]
DOCKED: USER    
DOCKED: USER    (1) Final Intermolecular Energy     =  -12.43 kcal/mol
DOCKED: USER        vdW + Hbond + desolv Energy     =  -12.43 kcal/mol
DOCKED: USER        Electrostatic Energy            =   +0.00 kcal/mol
DOCKED: USER    (2) Final Total Internal Energy     =   -0.83 kcal/mol
DOCKED: USER    (3) Torsional Free Energy           =   +1.79 kcal/mol
DOCKED: USER    (4) Unbound System's Energy  [=(2)] =   -0.83 kcal/mol
DOCKED: USER    
DOCKED: USER    
DOCKED: USER    NEWDPF move ligand.pdbqt
DOCKED: USER    NEWDPF about -0.973000 -0.390000 0.234000
DOCKED: USER    NEWDPF tran0 25.933318 -15.323820 -2.831301
DOCKED: USER    NEWDPF quaternion0 -0.409263 -0.223129 -0.071820 0.881793
DOCKED: USER    NEWDPF axisangle0 -0.867751 -0.473095 -0.152278 56.281176
DOCKED: USER    NEWDPF quat0 -0.867751 -0.473095 -0.152278 56.281176
DOCKED: USER    NEWDPF dihe0 -123.18 123.52 51.23 -132.53 -145.51 -30.82 
DOCKED: USER  keepresnum = 1 
DOCKED: USER  
DOCKED: REMARK  Name = 
DOCKED: REMARK  10 active torsions:
DOCKED: REMARK  status: ('A' for Active; 'I' for Inactive)
DOCKED: REMARK    1  A    between atoms: C_1  and  N_2
DOCKED: REMARK    2  A    between atoms: N_2  and  C_3
DOCKED: REMARK    3  A    between atoms: N_2  and  C_22
DOCKED: REMARK    4  A    between atoms: C_6  and  C_9
DOCKED: REMARK    5  A    between atoms: C_9  and  C_10
DOCKED: REMARK    6  A    between atoms: C_10  and  C_11
DOCKED: REMARK    7  A    between atoms: C_10  and  C_20
DOCKED: REMARK    8  A    between atoms: C_12  and  C_13
DOCKED: REMARK    9  A    between atoms: C_12  and  C_19
DOCKED: REMARK   10  A    between atoms: C_14  and  C_15
DOCKED: REMARK                            x       y       z     vdW  Elec       q    Type
DOCKED: REMARK                         _______ _______ _______ _____ _____    ______ ____
DOCKED: USER                              x       y       z     vdW  Elec       q    Type
DOCKED: USER                           _______ _______ _______ _____ _____    ______ ____
DOCKED: ROOT
DOCKED: ATOM      1  C   UNL     1      26.523 -15.390  -1.346 -0.39 -0.00    +0.000 C 
DOCKED: ATOM      2  C   UNL     1      27.049 -15.549   0.083 -0.33 -0.00    +0.000 C 
DOCKED: ENDROOT
DOCKED: BRANCH   1   3
DOCKED: ATOM      3  C   UNL     1      25.189 -16.098  -1.491 -0.55 -0.00    +0.000 C 
DOCKED: ATOM      4  C   UNL     1      24.964 -17.391  -1.177 -0.68 -0.00    +0.000 C 
DOCKED: ATOM      5  C   UNL     1      26.055 -18.280  -0.620 -0.61 -0.00    +0.000 C 
DOCKED: BRANCH   4   6
DOCKED: ATOM      6  C   UNL     1      23.586 -17.917  -1.351 -0.75 -0.00    +0.000 C 
DOCKED: ATOM      7  C   UNL     1      22.737 -18.095  -0.329 -0.82 -0.00    +0.000 C 
DOCKED: BRANCH   7   8
DOCKED: ATOM      8  C   UNL     1      21.363 -18.615  -0.490 -0.84 -0.00    +0.000 C 
DOCKED: ATOM      9  N   UNL     1      20.997 -19.947  -0.109 -0.68 -0.00    +0.000 N 
DOCKED: ATOM     10  O   UNL     1      19.705 -20.342  -0.180 -1.26 -0.00    +0.000 OA
DOCKED: ATOM     11  O   UNL     1      20.493 -17.862  -1.004 -2.22 -0.00    +0.000 OA
DOCKED: ATOM     12  H   UNL     1      21.688 -20.576   0.204 -0.57 -0.00    +0.000 HD
DOCKED: ENDBRANCH   7   8
DOCKED: ENDBRANCH   4   6
DOCKED: ENDBRANCH   1   3
DOCKED: BRANCH   1  13
DOCKED: ATOM     13  C   UNL     1      27.534 -15.944  -2.330 -0.33 -0.00    +0.000 C 
DOCKED: ATOM     14  O   UNL     1      28.081 -17.056  -2.087 -0.37 -0.00    +0.000 OA
DOCKED: BRANCH  13  18
DOCKED: ATOM     15  C   UNL     1      28.698 -13.756  -5.872 -0.25 -0.00    +0.000 A 
DOCKED: ATOM     16  C   UNL     1      29.140 -13.365  -4.593 -0.10 -0.00    +0.000 A 
DOCKED: ATOM     17  C   UNL     1      28.758 -14.077  -3.454 -0.12 -0.00    +0.000 A 
DOCKED: ATOM     18  C   UNL     1      27.931 -15.206  -3.558 -0.26 -0.00    +0.000 A 
DOCKED: ATOM     19  C   UNL     1      27.477 -15.595  -4.829 -0.33 -0.00    +0.000 A 
DOCKED: ATOM     20  C   UNL     1      27.857 -14.882  -5.970 -0.31 +0.00    +0.000 A 
DOCKED: BRANCH  15  22
DOCKED: ATOM     21  C   UNL     1      30.436 -13.187  -7.630 -0.19 -0.00    +0.000 C 
DOCKED: ATOM     22  N   UNL     1      29.095 -13.016  -7.057 -0.23 -0.00    +0.000 N 
DOCKED: ATOM     23  C   UNL     1      28.162 -12.085  -7.704 -0.23 -0.00    +0.000 C 
DOCKED: ENDBRANCH  15  22
DOCKED: ENDBRANCH  13  18
DOCKED: ENDBRANCH   1  13
DOCKED: TORSDOF 6
DOCKED: TER
DOCKED: ENDMDL
________________________________________________________________________________


	BEGINNING GENETIC ALGORITHM DOCKING 34 of 100
Run: 34 Seed: 1111008884 1948604853 [ Run 34 of 100 GA/GALS ]
Beginning LAMARCKIAN GENETIC ALGORITHM (LGA), with a maximum of 2500000 energy evaluations.

Final-Value: -13.733


	FINAL GENETIC ALGORITHM DOCKED STATE
	_______________________________________________


Detailed state:  trans 26.270 -17.702 -1.620 quatxyzw -0.637536 -0.006222 0.028397 -0.769872 center -0.973 -0.390 0.234 ntor 6 123.3279 -75.7272 -122.8510 -21.8288 98.3586 158.3468
State:	 26.270 -17.702  -1.620  -0.999 -0.010  0.044 -79.315    123.33  -75.73 -122.85  -21.83   98.36  158.35

DOCKED: MODEL       34
DOCKED: USER    Run = 34
DOCKED: USER    DPF = ligand_dock.biased.dpf
DOCKED: USER  
DOCKED: USER    Estimated Free Energy of Binding    =  -11.01 kcal/mol  [=(1)+(2)+(3)-(4)]
DOCKED: USER    Estimated Inhibition Constant, Ki   =    8.57 nM (nanomolar)  [Temperature = 298.15 K]
DOCKED: USER    
DOCKED: USER    (1) Final Intermolecular Energy     =  -12.79 kcal/mol
DOCKED: USER        vdW + Hbond + desolv Energy     =  -12.79 kcal/mol
DOCKED: USER        Electrostatic Energy            =   +0.00 kcal/mol
DOCKED: USER    (2) Final Total Internal Energy     =   -0.94 kcal/mol
DOCKED: USER    (3) Torsional Free Energy           =   +1.79 kcal/mol
DOCKED: USER    (4) Unbound System's Energy  [=(2)] =   -0.94 kcal/mol
DOCKED: USER    
DOCKED: USER    
DOCKED: USER    NEWDPF move ligand.pdbqt
DOCKED: USER    NEWDPF about -0.973000 -0.390000 0.234000
DOCKED: USER    NEWDPF tran0 26.269582 -17.701551 -1.619875
DOCKED: USER    NEWDPF quaternion0 -0.637536 -0.006222 0.028397 -0.769872
DOCKED: USER    NEWDPF axisangle0 -0.998962 -0.009749 0.044496 -79.315172
DOCKED: USER    NEWDPF quat0 -0.998962 -0.009749 0.044496 -79.315172
DOCKED: USER    NEWDPF dihe0 123.33 -75.73 -122.85 -21.83 98.36 158.35 
DOCKED: USER  keepresnum = 1 
DOCKED: USER  
DOCKED: REMARK  Name = 
DOCKED: REMARK  10 active torsions:
DOCKED: REMARK  status: ('A' for Active; 'I' for Inactive)
DOCKED: REMARK    1  A    between atoms: C_1  and  N_2
DOCKED: REMARK    2  A    between atoms: N_2  and  C_3
DOCKED: REMARK    3  A    between atoms: N_2  and  C_22
DOCKED: REMARK    4  A    between atoms: C_6  and  C_9
DOCKED: REMARK    5  A    between atoms: C_9  and  C_10
DOCKED: REMARK    6  A    between atoms: C_10  and  C_11
DOCKED: REMARK    7  A    between atoms: C_10  and  C_20
DOCKED: REMARK    8  A    between atoms: C_12  and  C_13
DOCKED: REMARK    9  A    between atoms: C_12  and  C_19
DOCKED: REMARK   10  A    between atoms: C_14  and  C_15
DOCKED: REMARK                            x       y       z     vdW  Elec       q    Type
DOCKED: REMARK                         _______ _______ _______ _____ _____    ______ ____
DOCKED: USER                              x       y       z     vdW  Elec       q    Type
DOCKED: USER                           _______ _______ _______ _____ _____    ______ ____
DOCKED: ROOT
DOCKED: ATOM      1  C   UNL     1      26.184 -16.365  -2.494 -0.47 -0.00    +0.000 C 
DOCKED: ATOM      2  C   UNL     1      26.036 -15.048  -3.261 -0.51 -0.00    +0.000 C 
DOCKED: ENDROOT
DOCKED: BRANCH   1   3
DOCKED: ATOM      3  C   UNL     1      24.862 -16.748  -1.859 -0.62 -0.00    +0.000 C 
DOCKED: ATOM      4  C   UNL     1      24.696 -17.743  -0.961 -0.73 -0.00    +0.000 C 
DOCKED: ATOM      5  C   UNL     1      25.856 -18.586  -0.480 -0.58 -0.00    +0.000 C 
DOCKED: BRANCH   4   6
DOCKED: ATOM      6  C   UNL     1      23.333 -17.964  -0.414 -0.79 -0.00    +0.000 C 
DOCKED: ATOM      7  C   UNL     1      22.402 -18.694  -1.044 -0.82 -0.00    +0.000 C 
DOCKED: BRANCH   7   8
DOCKED: ATOM      8  C   UNL     1      21.044 -18.923  -0.508 -0.86 -0.00    +0.000 C 
DOCKED: ATOM      9  N   UNL     1      20.714 -20.071   0.282 -0.66 -0.00    +0.000 N 
DOCKED: ATOM     10  O   UNL     1      19.485 -20.184   0.836 -0.80 -0.00    +0.000 OA
DOCKED: ATOM     11  O   UNL     1      20.142 -18.085  -0.781 -2.08 -0.00    +0.000 OA
DOCKED: ATOM     12  H   UNL     1      21.383 -20.781   0.422 -0.61 -0.00    +0.000 HD
DOCKED: ENDBRANCH   7   8
DOCKED: ENDBRANCH   4   6
DOCKED: ENDBRANCH   1   3
DOCKED: BRANCH   1  13
DOCKED: ATOM     13  C   UNL     1      27.265 -16.227  -1.440 -0.39 -0.00    +0.000 C 
DOCKED: ATOM     14  O   UNL     1      28.211 -17.063  -1.418 -0.39 -0.00    +0.000 OA
DOCKED: BRANCH  13  18
DOCKED: ATOM     15  C   UNL     1      27.200 -13.151   1.597 -0.27 -0.00    +0.000 A 
DOCKED: ATOM     16  C   UNL     1      28.287 -14.039   1.479 -0.22 -0.00    +0.000 A 
DOCKED: ATOM     17  C   UNL     1      28.299 -15.030   0.496 -0.21 -0.00    +0.000 A 
DOCKED: ATOM     18  C   UNL     1      27.231 -15.160  -0.405 -0.28 -0.00    +0.000 A 
DOCKED: ATOM     19  C   UNL     1      26.138 -14.286  -0.286 -0.26 -0.00    +0.000 A 
DOCKED: ATOM     20  C   UNL     1      26.123 -13.294   0.698 -0.27 -0.00    +0.000 A 
DOCKED: BRANCH  15  22
DOCKED: ATOM     21  C   UNL     1      27.759 -12.374   3.946 -0.35 +0.00    +0.000 C 
DOCKED: ATOM     22  N   UNL     1      27.186 -12.119   2.618 -0.29 +0.00    +0.000 N 
DOCKED: ATOM     23  C   UNL     1      26.600 -10.801   2.341 -0.34 +0.00    +0.000 C 
DOCKED: ENDBRANCH  15  22
DOCKED: ENDBRANCH  13  18
DOCKED: ENDBRANCH   1  13
DOCKED: TORSDOF 6
DOCKED: TER
DOCKED: ENDMDL
________________________________________________________________________________


	BEGINNING GENETIC ALGORITHM DOCKING 35 of 100
Run: 35 Seed: 94320258 1720671052 [ Run 35 of 100 GA/GALS ]
Beginning LAMARCKIAN GENETIC ALGORITHM (LGA), with a maximum of 2500000 energy evaluations.

Final-Value: -13.471


	FINAL GENETIC ALGORITHM DOCKED STATE
	_______________________________________________


Detailed state:  trans 25.773 -15.200 -1.972 quatxyzw -0.530426 -0.355915 -0.037432 0.768487 center -0.973 -0.390 0.234 ntor 6 174.9079 -46.5063 -166.1296 118.8694 -137.3479 -34.8161
State:	 25.773 -15.200  -1.972  -0.829 -0.556 -0.058 79.564    174.91  -46.51 -166.13  118.87 -137.35  -34.82

DOCKED: MODEL       35
DOCKED: USER    Run = 35
DOCKED: USER    DPF = ligand_dock.biased.dpf
DOCKED: USER  
DOCKED: USER    Estimated Free Energy of Binding    =  -10.85 kcal/mol  [=(1)+(2)+(3)-(4)]
DOCKED: USER    Estimated Inhibition Constant, Ki   =   11.18 nM (nanomolar)  [Temperature = 298.15 K]
DOCKED: USER    
DOCKED: USER    (1) Final Intermolecular Energy     =  -12.64 kcal/mol
DOCKED: USER        vdW + Hbond + desolv Energy     =  -12.64 kcal/mol
DOCKED: USER        Electrostatic Energy            =   +0.00 kcal/mol
DOCKED: USER    (2) Final Total Internal Energy     =   -0.83 kcal/mol
DOCKED: USER    (3) Torsional Free Energy           =   +1.79 kcal/mol
DOCKED: USER    (4) Unbound System's Energy  [=(2)] =   -0.83 kcal/mol
DOCKED: USER    
DOCKED: USER    
DOCKED: USER    NEWDPF move ligand.pdbqt
DOCKED: USER    NEWDPF about -0.973000 -0.390000 0.234000
DOCKED: USER    NEWDPF tran0 25.772615 -15.199724 -1.971683
DOCKED: USER    NEWDPF quaternion0 -0.530426 -0.355915 -0.037432 0.768487
DOCKED: USER    NEWDPF axisangle0 -0.828964 -0.556234 -0.058499 79.563643
DOCKED: USER    NEWDPF quat0 -0.828964 -0.556234 -0.058499 79.563643
DOCKED: USER    NEWDPF dihe0 174.91 -46.51 -166.13 118.87 -137.35 -34.82 
DOCKED: USER  keepresnum = 1 
DOCKED: USER  
DOCKED: REMARK  Name = 
DOCKED: REMARK  10 active torsions:
DOCKED: REMARK  status: ('A' for Active; 'I' for Inactive)
DOCKED: REMARK    1  A    between atoms: C_1  and  N_2
DOCKED: REMARK    2  A    between atoms: N_2  and  C_3
DOCKED: REMARK    3  A    between atoms: N_2  and  C_22
DOCKED: REMARK    4  A    between atoms: C_6  and  C_9
DOCKED: REMARK    5  A    between atoms: C_9  and  C_10
DOCKED: REMARK    6  A    between atoms: C_10  and  C_11
DOCKED: REMARK    7  A    between atoms: C_10  and  C_20
DOCKED: REMARK    8  A    between atoms: C_12  and  C_13
DOCKED: REMARK    9  A    between atoms: C_12  and  C_19
DOCKED: REMARK   10  A    between atoms: C_14  and  C_15
DOCKED: REMARK                            x       y       z     vdW  Elec       q    Type
DOCKED: REMARK                         _______ _______ _______ _____ _____    ______ ____
DOCKED: USER                              x       y       z     vdW  Elec       q    Type
DOCKED: USER                           _______ _______ _______ _____ _____    ______ ____
DOCKED: ROOT
DOCKED: ATOM      1  C   UNL     1      26.809 -15.623  -0.830 -0.38 -0.00    +0.000 C 
DOCKED: ATOM      2  C   UNL     1      27.764 -16.125   0.257 -0.24 -0.00    +0.000 C 
DOCKED: ENDROOT
DOCKED: BRANCH   1   3
DOCKED: ATOM      3  C   UNL     1      25.477 -16.339  -0.722 -0.50 -0.00    +0.000 C 
DOCKED: ATOM      4  C   UNL     1      25.328 -17.671  -0.553 -0.67 -0.00    +0.000 C 
DOCKED: ATOM      5  C   UNL     1      26.516 -18.599  -0.438 -0.51 -0.00    +0.000 C 
DOCKED: BRANCH   4   6
DOCKED: ATOM      6  C   UNL     1      23.946 -18.205  -0.435 -0.78 -0.00    +0.000 C 
DOCKED: ATOM      7  C   UNL     1      22.927 -17.765  -1.185 -0.68 -0.00    +0.000 C 
DOCKED: BRANCH   7   8
DOCKED: ATOM      8  C   UNL     1      21.549 -18.290  -1.078 -0.71 -0.00    +0.000 C 
DOCKED: ATOM      9  N   UNL     1      21.219 -19.648  -1.396 -0.70 -0.00    +0.000 N 
DOCKED: ATOM     10  O   UNL     1      19.965 -20.109  -1.184 -1.98 -0.00    +0.000 OA
DOCKED: ATOM     11  O   UNL     1      20.633 -17.504  -0.718 -2.10 +0.00    +0.000 OA
DOCKED: ATOM     12  H   UNL     1      21.906 -20.247  -1.770 -0.44 -0.00    +0.000 HD
DOCKED: ENDBRANCH   7   8
DOCKED: ENDBRANCH   4   6
DOCKED: ENDBRANCH   1   3
DOCKED: BRANCH   1  13
DOCKED: ATOM     13  C   UNL     1      27.426 -15.841  -2.197 -0.33 -0.00    +0.000 C 
DOCKED: ATOM     14  O   UNL     1      28.050 -16.916  -2.424 -0.34 -0.00    +0.000 OA
DOCKED: BRANCH  13  18
DOCKED: ATOM     15  C   UNL     1      27.162 -12.863  -5.319 -0.21 -0.00    +0.000 A 
DOCKED: ATOM     16  C   UNL     1      26.111 -13.056  -4.401 -0.33 -0.00    +0.000 A 
DOCKED: ATOM     17  C   UNL     1      26.203 -14.021  -3.397 -0.36 -0.00    +0.000 A 
DOCKED: ATOM     18  C   UNL     1      27.353 -14.817  -3.271 -0.27 -0.00    +0.000 A 
DOCKED: ATOM     19  C   UNL     1      28.401 -14.638  -4.189 -0.22 -0.00    +0.000 A 
DOCKED: ATOM     20  C   UNL     1      28.309 -13.674  -5.197 -0.22 -0.00    +0.000 A 
DOCKED: BRANCH  15  22
DOCKED: ATOM     21  C   UNL     1      26.047 -10.804  -6.296 -0.24 -0.00    +0.000 C 
DOCKED: ATOM     22  N   UNL     1      27.067 -11.859  -6.363 -0.20 -0.00    +0.000 N 
DOCKED: ATOM     23  C   UNL     1      27.989 -11.880  -7.506 -0.21 -0.00    +0.000 C 
DOCKED: ENDBRANCH  15  22
DOCKED: ENDBRANCH  13  18
DOCKED: ENDBRANCH   1  13
DOCKED: TORSDOF 6
DOCKED: TER
DOCKED: ENDMDL
________________________________________________________________________________


	BEGINNING GENETIC ALGORITHM DOCKING 36 of 100
Run: 36 Seed: 325772280 1595658390 [ Run 36 of 100 GA/GALS ]
Beginning LAMARCKIAN GENETIC ALGORITHM (LGA), with a maximum of 2500000 energy evaluations.

Final-Value: -13.930


	FINAL GENETIC ALGORITHM DOCKED STATE
	_______________________________________________


Detailed state:  trans 25.665 -16.083 -0.623 quatxyzw -0.867718 -0.364028 0.100490 -0.323189 center -0.973 -0.390 0.234 ntor 6 -60.0009 0.4659 -151.4737 -177.2606 42.9204 -52.8815
State:	 25.665 -16.083  -0.623  -0.917 -0.385  0.106 -142.288    -60.00    0.47 -151.47 -177.26   42.92  -52.88

DOCKED: MODEL       36
DOCKED: USER    Run = 36
DOCKED: USER    DPF = ligand_dock.biased.dpf
DOCKED: USER  
DOCKED: USER    Estimated Free Energy of Binding    =  -10.87 kcal/mol  [=(1)+(2)+(3)-(4)]
DOCKED: USER    Estimated Inhibition Constant, Ki   =   10.79 nM (nanomolar)  [Temperature = 298.15 K]
DOCKED: USER    
DOCKED: USER    (1) Final Intermolecular Energy     =  -12.66 kcal/mol
DOCKED: USER        vdW + Hbond + desolv Energy     =  -12.66 kcal/mol
DOCKED: USER        Electrostatic Energy            =   +0.00 kcal/mol
DOCKED: USER    (2) Final Total Internal Energy     =   -1.27 kcal/mol
DOCKED: USER    (3) Torsional Free Energy           =   +1.79 kcal/mol
DOCKED: USER    (4) Unbound System's Energy  [=(2)] =   -1.27 kcal/mol
DOCKED: USER    
DOCKED: USER    
DOCKED: USER    NEWDPF move ligand.pdbqt
DOCKED: USER    NEWDPF about -0.973000 -0.390000 0.234000
DOCKED: USER    NEWDPF tran0 25.665452 -16.082925 -0.623442
DOCKED: USER    NEWDPF quaternion0 -0.867718 -0.364028 0.100490 -0.323189
DOCKED: USER    NEWDPF axisangle0 -0.916925 -0.384672 0.106188 -142.288206
DOCKED: USER    NEWDPF quat0 -0.916925 -0.384672 0.106188 -142.288206
DOCKED: USER    NEWDPF dihe0 -60.00 0.47 -151.47 -177.26 42.92 -52.88 
DOCKED: USER  keepresnum = 1 
DOCKED: USER  
DOCKED: REMARK  Name = 
DOCKED: REMARK  10 active torsions:
DOCKED: REMARK  status: ('A' for Active; 'I' for Inactive)
DOCKED: REMARK    1  A    between atoms: C_1  and  N_2
DOCKED: REMARK    2  A    between atoms: N_2  and  C_3
DOCKED: REMARK    3  A    between atoms: N_2  and  C_22
DOCKED: REMARK    4  A    between atoms: C_6  and  C_9
DOCKED: REMARK    5  A    between atoms: C_9  and  C_10
DOCKED: REMARK    6  A    between atoms: C_10  and  C_11
DOCKED: REMARK    7  A    between atoms: C_10  and  C_20
DOCKED: REMARK    8  A    between atoms: C_12  and  C_13
DOCKED: REMARK    9  A    between atoms: C_12  and  C_19
DOCKED: REMARK   10  A    between atoms: C_14  and  C_15
DOCKED: REMARK                            x       y       z     vdW  Elec       q    Type
DOCKED: REMARK                         _______ _______ _______ _____ _____    ______ ____
DOCKED: USER                              x       y       z     vdW  Elec       q    Type
DOCKED: USER                           _______ _______ _______ _____ _____    ______ ____
DOCKED: ROOT
DOCKED: ATOM      1  C   UNL     1      25.827 -16.100  -2.214 -0.53 -0.00    +0.000 C 
DOCKED: ATOM      2  C   UNL     1      25.880 -16.105  -3.745 -0.22 -0.00    +0.000 C 
DOCKED: ENDROOT
DOCKED: BRANCH   1   3
DOCKED: ATOM      3  C   UNL     1      24.571 -16.801  -1.735 -0.62 -0.00    +0.000 C 
DOCKED: ATOM      4  C   UNL     1      24.528 -17.709  -0.737 -0.73 -0.00    +0.000 C 
DOCKED: ATOM      5  C   UNL     1      25.768 -18.114   0.029 -0.65 -0.00    +0.000 C 
DOCKED: BRANCH   4   6
DOCKED: ATOM      6  C   UNL     1      23.204 -18.276  -0.373 -0.81 -0.00    +0.000 C 
DOCKED: ATOM      7  C   UNL     1      22.396 -18.875  -1.259 -0.77 -0.00    +0.000 C 
DOCKED: BRANCH   7   8
DOCKED: ATOM      8  C   UNL     1      21.079 -19.445  -0.908 -0.84 -0.00    +0.000 C 
DOCKED: ATOM      9  N   UNL     1      20.703 -19.732   0.444 -0.68 -0.00    +0.000 N 
DOCKED: ATOM     10  O   UNL     1      19.449 -20.156   0.725 -0.83 -0.00    +0.000 OA
DOCKED: ATOM     11  O   UNL     1      20.272 -19.708  -1.839 -2.33 -0.00    +0.000 OA
DOCKED: ATOM     12  H   UNL     1      21.359 -19.621   1.171 -0.46 -0.00    +0.000 HD
DOCKED: ENDBRANCH   7   8
DOCKED: ENDBRANCH   4   6
DOCKED: ENDBRANCH   1   3
DOCKED: BRANCH   1  13
DOCKED: ATOM     13  C   UNL     1      25.873 -14.673  -1.703 -0.35 -0.00    +0.000 C 
DOCKED: ATOM     14  O   UNL     1      25.517 -13.735  -2.470 -0.07 -0.00    +0.000 OA
DOCKED: BRANCH  13  18
DOCKED: ATOM     15  C   UNL     1      27.299 -13.741   2.270 -0.28 -0.00    +0.000 A 
DOCKED: ATOM     16  C   UNL     1      27.773 -14.866   1.568 -0.14 -0.00    +0.000 A 
DOCKED: ATOM     17  C   UNL     1      27.307 -15.161   0.286 -0.27 -0.00    +0.000 A 
DOCKED: ATOM     18  C   UNL     1      26.358 -14.336  -0.340 -0.29 -0.00    +0.000 A 
DOCKED: ATOM     19  C   UNL     1      25.872 -13.218   0.359 -0.19 -0.00    +0.000 A 
DOCKED: ATOM     20  C   UNL     1      26.337 -12.923   1.643 -0.29 -0.00    +0.000 A 
DOCKED: BRANCH  15  22
DOCKED: ATOM     21  C   UNL     1      28.043 -12.044   4.003 -0.32 +0.00    +0.000 C 
DOCKED: ATOM     22  N   UNL     1      27.784 -13.433   3.604 -0.38 -0.00    +0.000 N 
DOCKED: ATOM     23  C   UNL     1      28.023 -14.507   4.578 -0.61 -0.00    +0.000 C 
DOCKED: ENDBRANCH  15  22
DOCKED: ENDBRANCH  13  18
DOCKED: ENDBRANCH   1  13
DOCKED: TORSDOF 6
DOCKED: TER
DOCKED: ENDMDL
________________________________________________________________________________


	BEGINNING GENETIC ALGORITHM DOCKING 37 of 100
Run: 37 Seed: 1569965709 1674480360 [ Run 37 of 100 GA/GALS ]
Beginning LAMARCKIAN GENETIC ALGORITHM (LGA), with a maximum of 2500000 energy evaluations.

Final-Value: -14.026


	FINAL GENETIC ALGORITHM DOCKED STATE
	_______________________________________________


Detailed state:  trans 26.572 -15.332 -1.061 quatxyzw -0.873903 -0.292205 0.050986 -0.385109 center -0.973 -0.390 0.234 ntor 6 146.8428 171.2440 -83.2013 178.7102 35.7139 -69.0104
State:	 26.572 -15.332  -1.061  -0.947 -0.317  0.055 -134.699    146.84  171.24  -83.20  178.71   35.71  -69.01

DOCKED: MODEL       37
DOCKED: USER    Run = 37
DOCKED: USER    DPF = ligand_dock.biased.dpf
DOCKED: USER  
DOCKED: USER    Estimated Free Energy of Binding    =  -11.01 kcal/mol  [=(1)+(2)+(3)-(4)]
DOCKED: USER    Estimated Inhibition Constant, Ki   =    8.52 nM (nanomolar)  [Temperature = 298.15 K]
DOCKED: USER    
DOCKED: USER    (1) Final Intermolecular Energy     =  -12.80 kcal/mol
DOCKED: USER        vdW + Hbond + desolv Energy     =  -12.80 kcal/mol
DOCKED: USER        Electrostatic Energy            =   +0.00 kcal/mol
DOCKED: USER    (2) Final Total Internal Energy     =   -1.23 kcal/mol
DOCKED: USER    (3) Torsional Free Energy           =   +1.79 kcal/mol
DOCKED: USER    (4) Unbound System's Energy  [=(2)] =   -1.23 kcal/mol
DOCKED: USER    
DOCKED: USER    
DOCKED: USER    NEWDPF move ligand.pdbqt
DOCKED: USER    NEWDPF about -0.973000 -0.390000 0.234000
DOCKED: USER    NEWDPF tran0 26.571631 -15.331888 -1.061325
DOCKED: USER    NEWDPF quaternion0 -0.873903 -0.292205 0.050986 -0.385109
DOCKED: USER    NEWDPF axisangle0 -0.946940 -0.316626 0.055247 -134.698952
DOCKED: USER    NEWDPF quat0 -0.946940 -0.316626 0.055247 -134.698952
DOCKED: USER    NEWDPF dihe0 146.84 171.24 -83.20 178.71 35.71 -69.01 
DOCKED: USER  keepresnum = 1 
DOCKED: USER  
DOCKED: REMARK  Name = 
DOCKED: REMARK  10 active torsions:
DOCKED: REMARK  status: ('A' for Active; 'I' for Inactive)
DOCKED: REMARK    1  A    between atoms: C_1  and  N_2
DOCKED: REMARK    2  A    between atoms: N_2  and  C_3
DOCKED: REMARK    3  A    between atoms: N_2  and  C_22
DOCKED: REMARK    4  A    between atoms: C_6  and  C_9
DOCKED: REMARK    5  A    between atoms: C_9  and  C_10
DOCKED: REMARK    6  A    between atoms: C_10  and  C_11
DOCKED: REMARK    7  A    between atoms: C_10  and  C_20
DOCKED: REMARK    8  A    between atoms: C_12  and  C_13
DOCKED: REMARK    9  A    between atoms: C_12  and  C_19
DOCKED: REMARK   10  A    between atoms: C_14  and  C_15
DOCKED: REMARK                            x       y       z     vdW  Elec       q    Type
DOCKED: REMARK                         _______ _______ _______ _____ _____    ______ ____
DOCKED: USER                              x       y       z     vdW  Elec       q    Type
DOCKED: USER                           _______ _______ _______ _____ _____    ______ ____
DOCKED: ROOT
DOCKED: ATOM      1  C   UNL     1      26.738 -15.178  -2.644 -0.38 -0.00    +0.000 C 
DOCKED: ATOM      2  C   UNL     1      26.799 -15.001  -4.164 -0.48 -0.00    +0.000 C 
DOCKED: ENDROOT
DOCKED: BRANCH   1   3
DOCKED: ATOM      3  C   UNL     1      25.377 -15.706  -2.236 -0.52 -0.00    +0.000 C 
DOCKED: ATOM      4  C   UNL     1      25.171 -16.797  -1.467 -0.62 -0.00    +0.000 C 
DOCKED: ATOM      5  C   UNL     1      26.319 -17.611  -0.913 -0.57 -0.00    +0.000 C 
DOCKED: BRANCH   4   6
DOCKED: ATOM      6  C   UNL     1      23.769 -17.157  -1.136 -0.69 -0.00    +0.000 C 
DOCKED: ATOM      7  C   UNL     1      23.236 -18.354  -1.417 -0.76 -0.00    +0.000 C 
DOCKED: BRANCH   7   8
DOCKED: ATOM      8  C   UNL     1      21.843 -18.725  -1.090 -0.81 -0.00    +0.000 C 
DOCKED: ATOM      9  N   UNL     1      21.118 -19.714  -1.831 -0.61 -0.00    +0.000 N 
DOCKED: ATOM     10  O   UNL     1      19.883 -20.092  -1.430 -2.05 -0.00    +0.000 OA
DOCKED: ATOM     11  O   UNL     1      21.271 -18.128  -0.139 -1.51 -0.00    +0.000 OA
DOCKED: ATOM     12  H   UNL     1      21.520 -20.118  -2.635 -0.60 -0.00    +0.000 HD
DOCKED: ENDBRANCH   7   8
DOCKED: ENDBRANCH   4   6
DOCKED: ENDBRANCH   1   3
DOCKED: BRANCH   1  13
DOCKED: ATOM     13  C   UNL     1      27.027 -13.856  -1.961 -0.24 -0.00    +0.000 C 
DOCKED: ATOM     14  O   UNL     1      27.144 -12.814  -2.666 -0.19 -0.00    +0.000 OA
DOCKED: BRANCH  13  18
DOCKED: ATOM     15  C   UNL     1      27.562 -13.594   2.321 -0.29 -0.00    +0.000 A 
DOCKED: ATOM     16  C   UNL     1      27.808 -14.794   1.625 -0.14 -0.00    +0.000 A 
DOCKED: ATOM     17  C   UNL     1      27.631 -14.870   0.242 -0.25 -0.00    +0.000 A 
DOCKED: ATOM     18  C   UNL     1      27.213 -13.748  -0.491 -0.21 -0.00    +0.000 A 
DOCKED: ATOM     19  C   UNL     1      26.955 -12.551   0.198 -0.21 -0.00    +0.000 A 
DOCKED: ATOM     20  C   UNL     1      27.130 -12.473   1.582 -0.26 -0.00    +0.000 A 
DOCKED: BRANCH  15  22
DOCKED: ATOM     21  C   UNL     1      27.922 -14.731   4.559 -0.62 -0.00    +0.000 C 
DOCKED: ATOM     22  N   UNL     1      27.746 -13.513   3.759 -0.41 -0.00    +0.000 N 
DOCKED: ATOM     23  C   UNL     1      27.760 -12.211   4.438 -0.37 +0.00    +0.000 C 
DOCKED: ENDBRANCH  15  22
DOCKED: ENDBRANCH  13  18
DOCKED: ENDBRANCH   1  13
DOCKED: TORSDOF 6
DOCKED: TER
DOCKED: ENDMDL
________________________________________________________________________________


	BEGINNING GENETIC ALGORITHM DOCKING 38 of 100
Run: 38 Seed: 1758182092 379581067 [ Run 38 of 100 GA/GALS ]
Beginning LAMARCKIAN GENETIC ALGORITHM (LGA), with a maximum of 2500000 energy evaluations.

Final-Value: -13.922


	FINAL GENETIC ALGORITHM DOCKED STATE
	_______________________________________________


Detailed state:  trans 26.436 -16.027 -1.154 quatxyzw 0.829679 0.338365 -0.154208 0.416367 center -0.973 -0.390 0.234 ntor 6 -154.6529 -0.1276 152.3091 25.2961 47.1984 -66.0001
State:	 26.436 -16.027  -1.154   0.913  0.372 -0.170 130.789   -154.65   -0.13  152.31   25.30   47.20  -66.00

DOCKED: MODEL       38
DOCKED: USER    Run = 38
DOCKED: USER    DPF = ligand_dock.biased.dpf
DOCKED: USER  
DOCKED: USER    Estimated Free Energy of Binding    =  -10.75 kcal/mol  [=(1)+(2)+(3)-(4)]
DOCKED: USER    Estimated Inhibition Constant, Ki   =   13.27 nM (nanomolar)  [Temperature = 298.15 K]
DOCKED: USER    
DOCKED: USER    (1) Final Intermolecular Energy     =  -12.54 kcal/mol
DOCKED: USER        vdW + Hbond + desolv Energy     =  -12.54 kcal/mol
DOCKED: USER        Electrostatic Energy            =   +0.00 kcal/mol
DOCKED: USER    (2) Final Total Internal Energy     =   -1.39 kcal/mol
DOCKED: USER    (3) Torsional Free Energy           =   +1.79 kcal/mol
DOCKED: USER    (4) Unbound System's Energy  [=(2)] =   -1.39 kcal/mol
DOCKED: USER    
DOCKED: USER    
DOCKED: USER    NEWDPF move ligand.pdbqt
DOCKED: USER    NEWDPF about -0.973000 -0.390000 0.234000
DOCKED: USER    NEWDPF tran0 26.436483 -16.026789 -1.153702
DOCKED: USER    NEWDPF quaternion0 0.829679 0.338365 -0.154208 0.416367
DOCKED: USER    NEWDPF axisangle0 0.912541 0.372158 -0.169609 130.789149
DOCKED: USER    NEWDPF quat0 0.912541 0.372158 -0.169609 130.789149
DOCKED: USER    NEWDPF dihe0 -154.65 -0.13 152.31 25.30 47.20 -66.00 
DOCKED: USER  keepresnum = 1 
DOCKED: USER  
DOCKED: REMARK  Name = 
DOCKED: REMARK  10 active torsions:
DOCKED: REMARK  status: ('A' for Active; 'I' for Inactive)
DOCKED: REMARK    1  A    between atoms: C_1  and  N_2
DOCKED: REMARK    2  A    between atoms: N_2  and  C_3
DOCKED: REMARK    3  A    between atoms: N_2  and  C_22
DOCKED: REMARK    4  A    between atoms: C_6  and  C_9
DOCKED: REMARK    5  A    between atoms: C_9  and  C_10
DOCKED: REMARK    6  A    between atoms: C_10  and  C_11
DOCKED: REMARK    7  A    between atoms: C_10  and  C_20
DOCKED: REMARK    8  A    between atoms: C_12  and  C_13
DOCKED: REMARK    9  A    between atoms: C_12  and  C_19
DOCKED: REMARK   10  A    between atoms: C_14  and  C_15
DOCKED: REMARK                            x       y       z     vdW  Elec       q    Type
DOCKED: REMARK                         _______ _______ _______ _____ _____    ______ ____
DOCKED: USER                              x       y       z     vdW  Elec       q    Type
DOCKED: USER                           _______ _______ _______ _____ _____    ______ ____
DOCKED: ROOT
DOCKED: ATOM      1  C   UNL     1      26.302 -15.817  -2.733 -0.48 -0.00    +0.000 C 
DOCKED: ATOM      2  C   UNL     1      26.073 -15.605  -4.233 -0.56 -0.00    +0.000 C 
DOCKED: ENDROOT
DOCKED: BRANCH   1   3
DOCKED: ATOM      3  C   UNL     1      25.146 -16.594  -2.135 -0.60 -0.00    +0.000 C 
DOCKED: ATOM      4  C   UNL     1      25.271 -17.581  -1.221 -0.66 -0.00    +0.000 C 
DOCKED: ATOM      5  C   UNL     1      26.619 -18.006  -0.684 -0.56 -0.00    +0.000 C 
DOCKED: BRANCH   4   6
DOCKED: ATOM      6  C   UNL     1      24.028 -18.217  -0.715 -0.80 -0.00    +0.000 C 
DOCKED: ATOM      7  C   UNL     1      22.802 -17.842  -1.107 -0.73 -0.00    +0.000 C 
DOCKED: BRANCH   7   8
DOCKED: ATOM      8  C   UNL     1      21.559 -18.470  -0.613 -0.84 -0.00    +0.000 C 
DOCKED: ATOM      9  N   UNL     1      21.549 -19.752   0.027 -0.53 -0.00    +0.000 N 
DOCKED: ATOM     10  O   UNL     1      20.402 -20.238   0.555 -0.82 -0.00    +0.000 OA
DOCKED: ATOM     11  O   UNL     1      20.470 -17.861  -0.785 -2.27 -0.00    +0.000 OA
DOCKED: ATOM     12  H   UNL     1      22.379 -20.280   0.083 -0.55 -0.00    +0.000 HD
DOCKED: ENDBRANCH   7   8
DOCKED: ENDBRANCH   4   6
DOCKED: ENDBRANCH   1   3
DOCKED: BRANCH   1  13
DOCKED: ATOM     13  C   UNL     1      26.462 -14.476  -2.044 -0.33 -0.00    +0.000 C 
DOCKED: ATOM     14  O   UNL     1      26.214 -13.420  -2.691 -0.26 -0.00    +0.000 OA
DOCKED: BRANCH  13  18
DOCKED: ATOM     15  C   UNL     1      27.809 -14.093   2.046 -0.28 -0.00    +0.000 A 
DOCKED: ATOM     16  C   UNL     1      26.630 -13.463   1.602 -0.19 -0.00    +0.000 A 
DOCKED: ATOM     17  C   UNL     1      26.202 -13.591   0.279 -0.26 -0.00    +0.000 A 
DOCKED: ATOM     18  C   UNL     1      26.935 -14.359  -0.640 -0.25 -0.00    +0.000 A 
DOCKED: ATOM     19  C   UNL     1      28.118 -14.981  -0.207 -0.21 -0.00    +0.000 A 
DOCKED: ATOM     20  C   UNL     1      28.548 -14.852   1.116 -0.13 -0.00    +0.000 A 
DOCKED: BRANCH  15  22
DOCKED: ATOM     21  C   UNL     1      27.307 -14.123   4.532 -0.60 -0.00    +0.000 C 
DOCKED: ATOM     22  N   UNL     1      28.254 -13.961   3.422 -0.36 -0.00    +0.000 N 
DOCKED: ATOM     23  C   UNL     1      29.659 -13.662   3.727 -0.27 -0.00    +0.000 C 
DOCKED: ENDBRANCH  15  22
DOCKED: ENDBRANCH  13  18
DOCKED: ENDBRANCH   1  13
DOCKED: TORSDOF 6
DOCKED: TER
DOCKED: ENDMDL
________________________________________________________________________________


	BEGINNING GENETIC ALGORITHM DOCKING 39 of 100
Run: 39 Seed: 94055226 1207894475 [ Run 39 of 100 GA/GALS ]
Beginning LAMARCKIAN GENETIC ALGORITHM (LGA), with a maximum of 2500000 energy evaluations.

Final-Value: -14.446


	FINAL GENETIC ALGORITHM DOCKED STATE
	_______________________________________________


Detailed state:  trans 26.011 -15.820 -0.177 quatxyzw 0.868080 0.445978 0.086897 0.199976 center -0.973 -0.390 0.234 ntor 6 -45.9582 82.4695 64.8440 165.3998 26.7977 -30.9472
State:	 26.011 -15.820  -0.177   0.886  0.455  0.089 156.929    -45.96   82.47   64.84  165.40   26.80  -30.95

DOCKED: MODEL       39
DOCKED: USER    Run = 39
DOCKED: USER    DPF = ligand_dock.biased.dpf
DOCKED: USER  
DOCKED: USER    Estimated Free Energy of Binding    =  -11.47 kcal/mol  [=(1)+(2)+(3)-(4)]
DOCKED: USER    Estimated Inhibition Constant, Ki   =    3.88 nM (nanomolar)  [Temperature = 298.15 K]
DOCKED: USER    
DOCKED: USER    (1) Final Intermolecular Energy     =  -13.26 kcal/mol
DOCKED: USER        vdW + Hbond + desolv Energy     =  -13.26 kcal/mol
DOCKED: USER        Electrostatic Energy            =   +0.00 kcal/mol
DOCKED: USER    (2) Final Total Internal Energy     =   -1.18 kcal/mol
DOCKED: USER    (3) Torsional Free Energy           =   +1.79 kcal/mol
DOCKED: USER    (4) Unbound System's Energy  [=(2)] =   -1.18 kcal/mol
DOCKED: USER    
DOCKED: USER    
DOCKED: USER    NEWDPF move ligand.pdbqt
DOCKED: USER    NEWDPF about -0.973000 -0.390000 0.234000
DOCKED: USER    NEWDPF tran0 26.011071 -15.819580 -0.177079
DOCKED: USER    NEWDPF quaternion0 0.868080 0.445978 0.086897 0.199976
DOCKED: USER    NEWDPF axisangle0 0.885976 0.455172 0.088688 156.928895
DOCKED: USER    NEWDPF quat0 0.885976 0.455172 0.088688 156.928895
DOCKED: USER    NEWDPF dihe0 -45.96 82.47 64.84 165.40 26.80 -30.95 
DOCKED: USER  keepresnum = 1 
DOCKED: USER  
DOCKED: REMARK  Name = 
DOCKED: REMARK  10 active torsions:
DOCKED: REMARK  status: ('A' for Active; 'I' for Inactive)
DOCKED: REMARK    1  A    between atoms: C_1  and  N_2
DOCKED: REMARK    2  A    between atoms: N_2  and  C_3
DOCKED: REMARK    3  A    between atoms: N_2  and  C_22
DOCKED: REMARK    4  A    between atoms: C_6  and  C_9
DOCKED: REMARK    5  A    between atoms: C_9  and  C_10
DOCKED: REMARK    6  A    between atoms: C_10  and  C_11
DOCKED: REMARK    7  A    between atoms: C_10  and  C_20
DOCKED: REMARK    8  A    between atoms: C_12  and  C_13
DOCKED: REMARK    9  A    between atoms: C_12  and  C_19
DOCKED: REMARK   10  A    between atoms: C_14  and  C_15
DOCKED: REMARK                            x       y       z     vdW  Elec       q    Type
DOCKED: REMARK                         _______ _______ _______ _____ _____    ______ ____
DOCKED: USER                              x       y       z     vdW  Elec       q    Type
DOCKED: USER                           _______ _______ _______ _____ _____    ______ ____
DOCKED: ROOT
DOCKED: ATOM      1  C   UNL     1      26.881 -15.904  -1.516 -0.40 -0.00    +0.000 C 
DOCKED: ATOM      2  C   UNL     1      27.626 -15.981  -2.852 -0.32 -0.00    +0.000 C 
DOCKED: ENDROOT
DOCKED: BRANCH   1   3
DOCKED: ATOM      3  C   UNL     1      25.566 -16.654  -1.610 -0.58 -0.00    +0.000 C 
DOCKED: ATOM      4  C   UNL     1      25.234 -17.727  -0.861 -0.69 -0.00    +0.000 C 
DOCKED: ATOM      5  C   UNL     1      26.170 -18.290   0.186 -0.61 -0.00    +0.000 C 
DOCKED: BRANCH   4   6
DOCKED: ATOM      6  C   UNL     1      23.888 -18.322  -1.060 -0.80 -0.00    +0.000 C 
DOCKED: ATOM      7  C   UNL     1      22.802 -17.914  -0.389 -0.81 -0.00    +0.000 C 
DOCKED: BRANCH   7   8
DOCKED: ATOM      8  C   UNL     1      21.457 -18.497  -0.581 -0.83 -0.00    +0.000 C 
DOCKED: ATOM      9  N   UNL     1      21.157 -19.858  -0.252 -0.67 -0.00    +0.000 N 
DOCKED: ATOM     10  O   UNL     1      19.888 -20.316  -0.348 -1.38 -0.00    +0.000 OA
DOCKED: ATOM     11  O   UNL     1      20.553 -17.771  -1.075 -2.18 -0.00    +0.000 OA
DOCKED: ATOM     12  H   UNL     1      21.876 -20.463   0.045 -0.58 -0.00    +0.000 HD
DOCKED: ENDBRANCH   7   8
DOCKED: ENDBRANCH   4   6
DOCKED: ENDBRANCH   1   3
DOCKED: BRANCH   1  13
DOCKED: ATOM     13  C   UNL     1      26.646 -14.454  -1.141 -0.31 -0.00    +0.000 C 
DOCKED: ATOM     14  O   UNL     1      26.238 -13.650  -2.026 -0.25 -0.00    +0.000 OA
DOCKED: BRANCH  13  18
DOCKED: ATOM     15  C   UNL     1      27.433 -12.997   2.852 -0.30 -0.00    +0.000 A 
DOCKED: ATOM     16  C   UNL     1      27.874 -14.269   2.437 -0.27 -0.00    +0.000 A 
DOCKED: ATOM     17  C   UNL     1      27.615 -14.733   1.146 -0.22 -0.00    +0.000 A 
DOCKED: ATOM     18  C   UNL     1      26.915 -13.937   0.226 -0.26 -0.00    +0.000 A 
DOCKED: ATOM     19  C   UNL     1      26.462 -12.672   0.635 -0.27 -0.00    +0.000 A 
DOCKED: ATOM     20  C   UNL     1      26.719 -12.207   1.928 -0.30 +0.00    +0.000 A 
DOCKED: BRANCH  15  22
DOCKED: ATOM     21  C   UNL     1      27.764 -11.073   4.472 -0.36 +0.00    +0.000 C 
DOCKED: ATOM     22  N   UNL     1      27.703 -12.514   4.194 -0.35 -0.00    +0.000 N 
DOCKED: ATOM     23  C   UNL     1      27.919 -13.457   5.299 -0.51 -0.00    +0.000 C 
DOCKED: ENDBRANCH  15  22
DOCKED: ENDBRANCH  13  18
DOCKED: ENDBRANCH   1  13
DOCKED: TORSDOF 6
DOCKED: TER
DOCKED: ENDMDL
________________________________________________________________________________


	BEGINNING GENETIC ALGORITHM DOCKING 40 of 100
Run: 40 Seed: 1906419191 1343150837 [ Run 40 of 100 GA/GALS ]
Beginning LAMARCKIAN GENETIC ALGORITHM (LGA), with a maximum of 2500000 energy evaluations.

Final-Value: -14.377


	FINAL GENETIC ALGORITHM DOCKED STATE
	_______________________________________________


Detailed state:  trans 26.643 -15.412 -0.654 quatxyzw 0.903598 0.302741 -0.002414 0.303074 center -0.973 -0.390 0.234 ntor 6 104.0923 -177.4865 -93.7630 -140.6389 36.8915 -62.9771
State:	 26.643 -15.412  -0.654   0.948  0.318 -0.003 144.715    104.09 -177.49  -93.76 -140.64   36.89  -62.98

DOCKED: MODEL       40
DOCKED: USER    Run = 40
DOCKED: USER    DPF = ligand_dock.biased.dpf
DOCKED: USER  
DOCKED: USER    Estimated Free Energy of Binding    =  -11.33 kcal/mol  [=(1)+(2)+(3)-(4)]
DOCKED: USER    Estimated Inhibition Constant, Ki   =    4.97 nM (nanomolar)  [Temperature = 298.15 K]
DOCKED: USER    
DOCKED: USER    (1) Final Intermolecular Energy     =  -13.12 kcal/mol
DOCKED: USER        vdW + Hbond + desolv Energy     =  -13.12 kcal/mol
DOCKED: USER        Electrostatic Energy            =   +0.00 kcal/mol
DOCKED: USER    (2) Final Total Internal Energy     =   -1.26 kcal/mol
DOCKED: USER    (3) Torsional Free Energy           =   +1.79 kcal/mol
DOCKED: USER    (4) Unbound System's Energy  [=(2)] =   -1.26 kcal/mol
DOCKED: USER    
DOCKED: USER    
DOCKED: USER    NEWDPF move ligand.pdbqt
DOCKED: USER    NEWDPF about -0.973000 -0.390000 0.234000
DOCKED: USER    NEWDPF tran0 26.642935 -15.412260 -0.653567
DOCKED: USER    NEWDPF quaternion0 0.903598 0.302741 -0.002414 0.303074
DOCKED: USER    NEWDPF axisangle0 0.948194 0.317682 -0.002533 144.715350
DOCKED: USER    NEWDPF quat0 0.948194 0.317682 -0.002533 144.715350
DOCKED: USER    NEWDPF dihe0 104.09 -177.49 -93.76 -140.64 36.89 -62.98 
DOCKED: USER  keepresnum = 1 
DOCKED: USER  
DOCKED: REMARK  Name = 
DOCKED: REMARK  10 active torsions:
DOCKED: REMARK  status: ('A' for Active; 'I' for Inactive)
DOCKED: REMARK    1  A    between atoms: C_1  and  N_2
DOCKED: REMARK    2  A    between atoms: N_2  and  C_3
DOCKED: REMARK    3  A    between atoms: N_2  and  C_22
DOCKED: REMARK    4  A    between atoms: C_6  and  C_9
DOCKED: REMARK    5  A    between atoms: C_9  and  C_10
DOCKED: REMARK    6  A    between atoms: C_10  and  C_11
DOCKED: REMARK    7  A    between atoms: C_10  and  C_20
DOCKED: REMARK    8  A    between atoms: C_12  and  C_13
DOCKED: REMARK    9  A    between atoms: C_12  and  C_19
DOCKED: REMARK   10  A    between atoms: C_14  and  C_15
DOCKED: REMARK                            x       y       z     vdW  Elec       q    Type
DOCKED: REMARK                         _______ _______ _______ _____ _____    ______ ____
DOCKED: USER                              x       y       z     vdW  Elec       q    Type
DOCKED: USER                           _______ _______ _______ _____ _____    ______ ____
DOCKED: ROOT
DOCKED: ATOM      1  C   UNL     1      27.037 -15.481  -2.202 -0.35 -0.00    +0.000 C 
DOCKED: ATOM      2  C   UNL     1      27.319 -15.517  -3.707 -0.38 -0.00    +0.000 C 
DOCKED: ENDROOT
DOCKED: BRANCH   1   3
DOCKED: ATOM      3  C   UNL     1      25.613 -15.924  -1.929 -0.53 -0.00    +0.000 C 
DOCKED: ATOM      4  C   UNL     1      25.258 -16.878  -1.042 -0.62 -0.00    +0.000 C 
DOCKED: ATOM      5  C   UNL     1      26.282 -17.609  -0.202 -0.60 -0.00    +0.000 C 
DOCKED: BRANCH   4   6
DOCKED: ATOM      6  C   UNL     1      23.810 -17.166  -0.876 -0.70 -0.00    +0.000 C 
DOCKED: ATOM      7  C   UNL     1      23.249 -18.327  -1.243 -0.79 -0.00    +0.000 C 
DOCKED: BRANCH   7   8
DOCKED: ATOM      8  C   UNL     1      21.811 -18.625  -1.080 -0.81 -0.00    +0.000 C 
DOCKED: ATOM      9  N   UNL     1      21.173 -19.718  -1.752 -0.60 -0.00    +0.000 N 
DOCKED: ATOM     10  O   UNL     1      19.879 -20.013  -1.491 -2.10 -0.00    +0.000 OA
DOCKED: ATOM     11  O   UNL     1      21.122 -17.872  -0.341 -1.86 +0.00    +0.000 OA
DOCKED: ATOM     12  H   UNL     1      21.678 -20.255  -2.406 -0.59 -0.00    +0.000 HD
DOCKED: ENDBRANCH   7   8
DOCKED: ENDBRANCH   4   6
DOCKED: ENDBRANCH   1   3
DOCKED: BRANCH   1  13
DOCKED: ATOM     13  C   UNL     1      27.276 -14.083  -1.668 -0.23 -0.00    +0.000 C 
DOCKED: ATOM     14  O   UNL     1      27.417 -13.130  -2.484 -0.18 -0.00    +0.000 OA
DOCKED: BRANCH  13  18
DOCKED: ATOM     15  C   UNL     1      27.627 -13.299   2.569 -0.29 -0.00    +0.000 A 
DOCKED: ATOM     16  C   UNL     1      28.580 -14.083   1.889 -0.22 -0.00    +0.000 A 
DOCKED: ATOM     17  C   UNL     1      28.458 -14.333   0.521 -0.18 -0.00    +0.000 A 
DOCKED: ATOM     18  C   UNL     1      27.387 -13.799  -0.213 -0.20 -0.00    +0.000 A 
DOCKED: ATOM     19  C   UNL     1      26.427 -13.025   0.461 -0.28 -0.00    +0.000 A 
DOCKED: ATOM     20  C   UNL     1      26.546 -12.776   1.831 -0.30 -0.00    +0.000 A 
DOCKED: BRANCH  15  22
DOCKED: ATOM     21  C   UNL     1      27.865 -14.147   4.948 -0.57 -0.00    +0.000 C 
DOCKED: ATOM     22  N   UNL     1      27.753 -13.038   3.992 -0.38 -0.00    +0.000 N 
DOCKED: ATOM     23  C   UNL     1      27.771 -11.660   4.501 -0.36 +0.00    +0.000 C 
DOCKED: ENDBRANCH  15  22
DOCKED: ENDBRANCH  13  18
DOCKED: ENDBRANCH   1  13
DOCKED: TORSDOF 6
DOCKED: TER
DOCKED: ENDMDL
________________________________________________________________________________


	BEGINNING GENETIC ALGORITHM DOCKING 41 of 100
Run: 41 Seed: 727521261 1132689029 [ Run 41 of 100 GA/GALS ]
Beginning LAMARCKIAN GENETIC ALGORITHM (LGA), with a maximum of 2500000 energy evaluations.

Final-Value: -13.726


	FINAL GENETIC ALGORITHM DOCKED STATE
	_______________________________________________


Detailed state:  trans 25.926 -15.901 -2.975 quatxyzw -0.285114 -0.170773 -0.061250 0.941167 center -0.973 -0.390 0.234 ntor 6 18.3766 125.2925 39.2059 119.9172 -148.4382 -27.1557
State:	 25.926 -15.901  -2.975  -0.844 -0.505 -0.181 39.503     18.38  125.29   39.21  119.92 -148.44  -27.16

DOCKED: MODEL       41
DOCKED: USER    Run = 41
DOCKED: USER    DPF = ligand_dock.biased.dpf
DOCKED: USER  
DOCKED: USER    Estimated Free Energy of Binding    =  -11.17 kcal/mol  [=(1)+(2)+(3)-(4)]
DOCKED: USER    Estimated Inhibition Constant, Ki   =    6.50 nM (nanomolar)  [Temperature = 298.15 K]
DOCKED: USER    
DOCKED: USER    (1) Final Intermolecular Energy     =  -12.96 kcal/mol
DOCKED: USER        vdW + Hbond + desolv Energy     =  -12.96 kcal/mol
DOCKED: USER        Electrostatic Energy            =   +0.00 kcal/mol
DOCKED: USER    (2) Final Total Internal Energy     =   -0.77 kcal/mol
DOCKED: USER    (3) Torsional Free Energy           =   +1.79 kcal/mol
DOCKED: USER    (4) Unbound System's Energy  [=(2)] =   -0.77 kcal/mol
DOCKED: USER    
DOCKED: USER    
DOCKED: USER    NEWDPF move ligand.pdbqt
DOCKED: USER    NEWDPF about -0.973000 -0.390000 0.234000
DOCKED: USER    NEWDPF tran0 25.926022 -15.900913 -2.974818
DOCKED: USER    NEWDPF quaternion0 -0.285114 -0.170773 -0.061250 0.941167
DOCKED: USER    NEWDPF axisangle0 -0.843676 -0.505332 -0.181245 39.503079
DOCKED: USER    NEWDPF quat0 -0.843676 -0.505332 -0.181245 39.503079
DOCKED: USER    NEWDPF dihe0 18.38 125.29 39.21 119.92 -148.44 -27.16 
DOCKED: USER  keepresnum = 1 
DOCKED: USER  
DOCKED: REMARK  Name = 
DOCKED: REMARK  10 active torsions:
DOCKED: REMARK  status: ('A' for Active; 'I' for Inactive)
DOCKED: REMARK    1  A    between atoms: C_1  and  N_2
DOCKED: REMARK    2  A    between atoms: N_2  and  C_3
DOCKED: REMARK    3  A    between atoms: N_2  and  C_22
DOCKED: REMARK    4  A    between atoms: C_6  and  C_9
DOCKED: REMARK    5  A    between atoms: C_9  and  C_10
DOCKED: REMARK    6  A    between atoms: C_10  and  C_11
DOCKED: REMARK    7  A    between atoms: C_10  and  C_20
DOCKED: REMARK    8  A    between atoms: C_12  and  C_13
DOCKED: REMARK    9  A    between atoms: C_12  and  C_19
DOCKED: REMARK   10  A    between atoms: C_14  and  C_15
DOCKED: REMARK                            x       y       z     vdW  Elec       q    Type
DOCKED: REMARK                         _______ _______ _______ _____ _____    ______ ____
DOCKED: USER                              x       y       z     vdW  Elec       q    Type
DOCKED: USER                           _______ _______ _______ _____ _____    ______ ____
DOCKED: ROOT
DOCKED: ATOM      1  C   UNL     1      26.323 -15.573  -1.461 -0.42 -0.00    +0.000 C 
DOCKED: ATOM      2  C   UNL     1      26.662 -15.350   0.016 -0.29 -0.00    +0.000 C 
DOCKED: ENDROOT
DOCKED: BRANCH   1   3
DOCKED: ATOM      3  C   UNL     1      24.997 -16.297  -1.586 -0.57 -0.00    +0.000 C 
DOCKED: ATOM      4  C   UNL     1      24.713 -17.491  -1.023 -0.71 -0.00    +0.000 C 
DOCKED: ATOM      5  C   UNL     1      25.722 -18.234  -0.175 -0.68 -0.00    +0.000 C 
DOCKED: BRANCH   4   6
DOCKED: ATOM      6  C   UNL     1      23.349 -18.044  -1.221 -0.77 -0.00    +0.000 C 
DOCKED: ATOM      7  C   UNL     1      22.474 -18.209  -0.218 -0.82 -0.00    +0.000 C 
DOCKED: BRANCH   7   8
DOCKED: ATOM      8  C   UNL     1      21.114 -18.755  -0.403 -0.80 -0.00    +0.000 C 
DOCKED: ATOM      9  N   UNL     1      20.748 -20.069   0.036 -0.70 -0.00    +0.000 N 
DOCKED: ATOM     10  O   UNL     1      19.465 -20.485  -0.062 -1.16 -0.00    +0.000 OA
DOCKED: ATOM     11  O   UNL     1      20.256 -18.044  -0.992 -2.15 -0.00    +0.000 OA
DOCKED: ATOM     12  H   UNL     1      21.433 -20.670   0.411 -0.60 -0.00    +0.000 HD
DOCKED: ENDBRANCH   7   8
DOCKED: ENDBRANCH   4   6
DOCKED: ENDBRANCH   1   3
DOCKED: BRANCH   1  13
DOCKED: ATOM     13  C   UNL     1      27.431 -16.364  -2.128 -0.36 -0.00    +0.000 C 
DOCKED: ATOM     14  O   UNL     1      27.861 -17.411  -1.567 -0.41 -0.00    +0.000 OA
DOCKED: BRANCH  13  18
DOCKED: ATOM     15  C   UNL     1      29.201 -15.100  -5.864 -0.32 -0.00    +0.000 A 
DOCKED: ATOM     16  C   UNL     1      27.840 -14.869  -5.585 -0.38 -0.00    +0.000 A 
DOCKED: ATOM     17  C   UNL     1      27.276 -15.282  -4.376 -0.39 -0.00    +0.000 A 
DOCKED: ATOM     18  C   UNL     1      28.056 -15.930  -3.405 -0.24 -0.00    +0.000 A 
DOCKED: ATOM     19  C   UNL     1      29.411 -16.173  -3.681 -0.21 -0.00    +0.000 A 
DOCKED: ATOM     20  C   UNL     1      29.977 -15.762  -4.891 -0.21 -0.00    +0.000 A 
DOCKED: BRANCH  15  22
DOCKED: ATOM     21  C   UNL     1      30.775 -15.511  -7.811 -0.22 -0.00    +0.000 C 
DOCKED: ATOM     22  N   UNL     1      29.789 -14.670  -7.121 -0.31 -0.00    +0.000 N 
DOCKED: ATOM     23  C   UNL     1      29.406 -13.387  -7.724 -0.24 -0.00    +0.000 C 
DOCKED: ENDBRANCH  15  22
DOCKED: ENDBRANCH  13  18
DOCKED: ENDBRANCH   1  13
DOCKED: TORSDOF 6
DOCKED: TER
DOCKED: ENDMDL
________________________________________________________________________________


	BEGINNING GENETIC ALGORITHM DOCKING 42 of 100
Run: 42 Seed: 902675278 1818666672 [ Run 42 of 100 GA/GALS ]
Beginning LAMARCKIAN GENETIC ALGORITHM (LGA), with a maximum of 2500000 energy evaluations.

Final-Value: -13.361


	FINAL GENETIC ALGORITHM DOCKED STATE
	_______________________________________________


Detailed state:  trans 25.088 -15.136 -1.751 quatxyzw -0.563478 -0.404433 -0.093008 0.714336 center -0.973 -0.390 0.234 ntor 6 -165.8199 27.6557 166.9751 -97.7641 -135.8603 -35.1439
State:	 25.088 -15.136  -1.751  -0.805 -0.578 -0.133 88.822   -165.82   27.66  166.98  -97.76 -135.86  -35.14

DOCKED: MODEL       42
DOCKED: USER    Run = 42
DOCKED: USER    DPF = ligand_dock.biased.dpf
DOCKED: USER  
DOCKED: USER    Estimated Free Energy of Binding    =  -10.76 kcal/mol  [=(1)+(2)+(3)-(4)]
DOCKED: USER    Estimated Inhibition Constant, Ki   =   12.96 nM (nanomolar)  [Temperature = 298.15 K]
DOCKED: USER    
DOCKED: USER    (1) Final Intermolecular Energy     =  -12.55 kcal/mol
DOCKED: USER        vdW + Hbond + desolv Energy     =  -12.55 kcal/mol
DOCKED: USER        Electrostatic Energy            =   +0.00 kcal/mol
DOCKED: USER    (2) Final Total Internal Energy     =   -0.81 kcal/mol
DOCKED: USER    (3) Torsional Free Energy           =   +1.79 kcal/mol
DOCKED: USER    (4) Unbound System's Energy  [=(2)] =   -0.81 kcal/mol
DOCKED: USER    
DOCKED: USER    
DOCKED: USER    NEWDPF move ligand.pdbqt
DOCKED: USER    NEWDPF about -0.973000 -0.390000 0.234000
DOCKED: USER    NEWDPF tran0 25.087937 -15.136281 -1.751463
DOCKED: USER    NEWDPF quaternion0 -0.563478 -0.404433 -0.093008 0.714336
DOCKED: USER    NEWDPF axisangle0 -0.805195 -0.577924 -0.132907 88.822327
DOCKED: USER    NEWDPF quat0 -0.805195 -0.577924 -0.132907 88.822327
DOCKED: USER    NEWDPF dihe0 -165.82 27.66 166.98 -97.76 -135.86 -35.14 
DOCKED: USER  keepresnum = 1 
DOCKED: USER  
DOCKED: REMARK  Name = 
DOCKED: REMARK  10 active torsions:
DOCKED: REMARK  status: ('A' for Active; 'I' for Inactive)
DOCKED: REMARK    1  A    between atoms: C_1  and  N_2
DOCKED: REMARK    2  A    between atoms: N_2  and  C_3
DOCKED: REMARK    3  A    between atoms: N_2  and  C_22
DOCKED: REMARK    4  A    between atoms: C_6  and  C_9
DOCKED: REMARK    5  A    between atoms: C_9  and  C_10
DOCKED: REMARK    6  A    between atoms: C_10  and  C_11
DOCKED: REMARK    7  A    between atoms: C_10  and  C_20
DOCKED: REMARK    8  A    between atoms: C_12  and  C_13
DOCKED: REMARK    9  A    between atoms: C_12  and  C_19
DOCKED: REMARK   10  A    between atoms: C_14  and  C_15
DOCKED: REMARK                            x       y       z     vdW  Elec       q    Type
DOCKED: REMARK                         _______ _______ _______ _____ _____    ______ ____
DOCKED: USER                              x       y       z     vdW  Elec       q    Type
DOCKED: USER                           _______ _______ _______ _____ _____    ______ ____
DOCKED: ROOT
DOCKED: ATOM      1  C   UNL     1      26.237 -15.587  -0.735 -0.42 -0.00    +0.000 C 
DOCKED: ATOM      2  C   UNL     1      27.311 -16.117   0.220 -0.32 -0.00    +0.000 C 
DOCKED: ENDROOT
DOCKED: BRANCH   1   3
DOCKED: ATOM      3  C   UNL     1      25.004 -16.467  -0.670 -0.47 -0.00    +0.000 C 
DOCKED: ATOM      4  C   UNL     1      25.019 -17.818  -0.662 -0.71 -0.00    +0.000 C 
DOCKED: ATOM      5  C   UNL     1      26.312 -18.602  -0.706 -0.44 -0.00    +0.000 C 
DOCKED: BRANCH   4   6
DOCKED: ATOM      6  C   UNL     1      23.717 -18.525  -0.562 -0.80 -0.00    +0.000 C 
DOCKED: ATOM      7  C   UNL     1      22.537 -17.914  -0.745 -0.81 -0.00    +0.000 C 
DOCKED: BRANCH   7   8
DOCKED: ATOM      8  C   UNL     1      21.236 -18.608  -0.651 -0.85 -0.00    +0.000 C 
DOCKED: ATOM      9  N   UNL     1      21.114 -19.946  -0.152 -0.64 -0.00    +0.000 N 
DOCKED: ATOM     10  O   UNL     1      19.891 -20.500   0.011 -1.20 -0.00    +0.000 OA
DOCKED: ATOM     11  O   UNL     1      20.204 -18.004  -1.048 -2.10 -0.00    +0.000 OA
DOCKED: ATOM     12  H   UNL     1      21.922 -20.463   0.071 -0.58 -0.00    +0.000 HD
DOCKED: ENDBRANCH   7   8
DOCKED: ENDBRANCH   4   6
DOCKED: ENDBRANCH   1   3
DOCKED: BRANCH   1  13
DOCKED: ATOM     13  C   UNL     1      26.785 -15.535  -2.147 -0.38 -0.00    +0.000 C 
DOCKED: ATOM     14  O   UNL     1      27.516 -16.481  -2.557 -0.36 -0.00    +0.000 OA
DOCKED: BRANCH  13  18
DOCKED: ATOM     15  C   UNL     1      26.060 -12.180  -4.775 -0.28 -0.00    +0.000 A 
DOCKED: ATOM     16  C   UNL     1      27.331 -12.405  -4.210 -0.18 -0.00    +0.000 A 
DOCKED: ATOM     17  C   UNL     1      27.556 -13.491  -3.361 -0.18 -0.00    +0.000 A 
DOCKED: ATOM     18  C   UNL     1      26.522 -14.390  -3.057 -0.33 -0.00    +0.000 A 
DOCKED: ATOM     19  C   UNL     1      25.249 -14.166  -3.608 -0.43 -0.00    +0.000 A 
DOCKED: ATOM     20  C   UNL     1      25.021 -13.079  -4.456 -0.20 -0.00    +0.000 A 
DOCKED: BRANCH  15  22
DOCKED: ATOM     21  C   UNL     1      26.874 -10.587  -6.573 -0.17 -0.00    +0.000 C 
DOCKED: ATOM     22  N   UNL     1      25.824 -11.052  -5.658 -0.27 -0.00    +0.000 N 
DOCKED: ATOM     23  C   UNL     1      24.531 -10.356  -5.653 -0.44 -0.00    +0.000 C 
DOCKED: ENDBRANCH  15  22
DOCKED: ENDBRANCH  13  18
DOCKED: ENDBRANCH   1  13
DOCKED: TORSDOF 6
DOCKED: TER
DOCKED: ENDMDL
________________________________________________________________________________


	BEGINNING GENETIC ALGORITHM DOCKING 43 of 100
Run: 43 Seed: 1772615779 2133880367 [ Run 43 of 100 GA/GALS ]
Beginning LAMARCKIAN GENETIC ALGORITHM (LGA), with a maximum of 2500000 energy evaluations.

Final-Value: -14.573


	FINAL GENETIC ALGORITHM DOCKED STATE
	_______________________________________________


Detailed state:  trans 25.927 -15.176 0.613 quatxyzw -0.902157 -0.351739 -0.196129 -0.154680 center -0.973 -0.390 0.234 ntor 6 -26.4043 135.2002 -13.1982 -177.5016 -0.0653 -23.4701
State:	 25.927 -15.176   0.613  -0.913 -0.356 -0.199 -162.204    -26.40  135.20  -13.20 -177.50   -0.07  -23.47

DOCKED: MODEL       43
DOCKED: USER    Run = 43
DOCKED: USER    DPF = ligand_dock.biased.dpf
DOCKED: USER  
DOCKED: USER    Estimated Free Energy of Binding    =  -11.76 kcal/mol  [=(1)+(2)+(3)-(4)]
DOCKED: USER    Estimated Inhibition Constant, Ki   =    2.40 nM (nanomolar)  [Temperature = 298.15 K]
DOCKED: USER    
DOCKED: USER    (1) Final Intermolecular Energy     =  -13.55 kcal/mol
DOCKED: USER        vdW + Hbond + desolv Energy     =  -13.55 kcal/mol
DOCKED: USER        Electrostatic Energy            =   +0.00 kcal/mol
DOCKED: USER    (2) Final Total Internal Energy     =   -1.02 kcal/mol
DOCKED: USER    (3) Torsional Free Energy           =   +1.79 kcal/mol
DOCKED: USER    (4) Unbound System's Energy  [=(2)] =   -1.02 kcal/mol
DOCKED: USER    
DOCKED: USER    
DOCKED: USER    NEWDPF move ligand.pdbqt
DOCKED: USER    NEWDPF about -0.973000 -0.390000 0.234000
DOCKED: USER    NEWDPF tran0 25.927322 -15.175882 0.613462
DOCKED: USER    NEWDPF quaternion0 -0.902157 -0.351739 -0.196129 -0.154680
DOCKED: USER    NEWDPF axisangle0 -0.913147 -0.356024 -0.198518 -162.203513
DOCKED: USER    NEWDPF quat0 -0.913147 -0.356024 -0.198518 -162.203513
DOCKED: USER    NEWDPF dihe0 -26.40 135.20 -13.20 -177.50 -0.07 -23.47 
DOCKED: USER  keepresnum = 1 
DOCKED: USER  
DOCKED: REMARK  Name = 
DOCKED: REMARK  10 active torsions:
DOCKED: REMARK  status: ('A' for Active; 'I' for Inactive)
DOCKED: REMARK    1  A    between atoms: C_1  and  N_2
DOCKED: REMARK    2  A    between atoms: N_2  and  C_3
DOCKED: REMARK    3  A    between atoms: N_2  and  C_22
DOCKED: REMARK    4  A    between atoms: C_6  and  C_9
DOCKED: REMARK    5  A    between atoms: C_9  and  C_10
DOCKED: REMARK    6  A    between atoms: C_10  and  C_11
DOCKED: REMARK    7  A    between atoms: C_10  and  C_20
DOCKED: REMARK    8  A    between atoms: C_12  and  C_13
DOCKED: REMARK    9  A    between atoms: C_12  and  C_19
DOCKED: REMARK   10  A    between atoms: C_14  and  C_15
DOCKED: REMARK                            x       y       z     vdW  Elec       q    Type
DOCKED: REMARK                         _______ _______ _______ _____ _____    ______ ____
DOCKED: USER                              x       y       z     vdW  Elec       q    Type
DOCKED: USER                           _______ _______ _______ _____ _____    ______ ____
DOCKED: ROOT
DOCKED: ATOM      1  C   UNL     1      26.985 -15.473  -0.548 -0.36 -0.00    +0.000 C 
DOCKED: ATOM      2  C   UNL     1      27.926 -15.731  -1.729 -0.28 -0.00    +0.000 C 
DOCKED: ENDROOT
DOCKED: BRANCH   1   3
DOCKED: ATOM      3  C   UNL     1      25.571 -15.878  -0.912 -0.47 -0.00    +0.000 C 
DOCKED: ATOM      4  C   UNL     1      25.035 -17.098  -0.689 -0.63 -0.00    +0.000 C 
DOCKED: ATOM      5  C   UNL     1      25.821 -18.204  -0.021 -0.66 -0.00    +0.000 C 
DOCKED: BRANCH   4   6
DOCKED: ATOM      6  C   UNL     1      23.619 -17.315  -1.081 -0.72 -0.00    +0.000 C 
DOCKED: ATOM      7  C   UNL     1      22.905 -18.377  -0.680 -0.83 -0.00    +0.000 C 
DOCKED: BRANCH   7   8
DOCKED: ATOM      8  C   UNL     1      21.495 -18.602  -1.061 -0.80 -0.00    +0.000 C 
DOCKED: ATOM      9  N   UNL     1      21.081 -19.737  -1.831 -0.63 -0.00    +0.000 N 
DOCKED: ATOM     10  O   UNL     1      19.766 -19.954  -2.066 -2.00 -0.00    +0.000 OA
DOCKED: ATOM     11  O   UNL     1      20.635 -17.749  -0.714 -2.27 +0.00    +0.000 OA
DOCKED: ATOM     12  H   UNL     1      21.754 -20.361  -2.190 -0.55 -0.00    +0.000 HD
DOCKED: ENDBRANCH   7   8
DOCKED: ENDBRANCH   4   6
DOCKED: ENDBRANCH   1   3
DOCKED: BRANCH   1  13
DOCKED: ATOM     13  C   UNL     1      27.041 -14.009  -0.158 -0.28 -0.00    +0.000 C 
DOCKED: ATOM     14  O   UNL     1      26.868 -13.130  -1.048 -0.22 -0.00    +0.000 OA
DOCKED: BRANCH  13  18
DOCKED: ATOM     15  C   UNL     1      27.886 -12.782   3.900 -0.33 -0.00    +0.000 A 
DOCKED: ATOM     16  C   UNL     1      28.388 -13.992   3.382 -0.35 -0.00    +0.000 A 
DOCKED: ATOM     17  C   UNL     1      28.110 -14.381   2.071 -0.24 -0.00    +0.000 A 
DOCKED: ATOM     18  C   UNL     1      27.328 -13.570   1.232 -0.26 -0.00    +0.000 A 
DOCKED: ATOM     19  C   UNL     1      26.814 -12.368   1.746 -0.29 -0.00    +0.000 A 
DOCKED: ATOM     20  C   UNL     1      27.090 -11.978   3.059 -0.21 +0.00    +0.000 A 
DOCKED: BRANCH  15  22
DOCKED: ATOM     21  C   UNL     1      27.757 -11.057   5.755 -0.35 +0.00    +0.000 C 
DOCKED: ATOM     22  N   UNL     1      28.176 -12.375   5.264 -0.38 -0.00    +0.000 N 
DOCKED: ATOM     23  C   UNL     1      28.892 -13.277   6.175 -0.44 -0.00    +0.000 C 
DOCKED: ENDBRANCH  15  22
DOCKED: ENDBRANCH  13  18
DOCKED: ENDBRANCH   1  13
DOCKED: TORSDOF 6
DOCKED: TER
DOCKED: ENDMDL
________________________________________________________________________________


	BEGINNING GENETIC ALGORITHM DOCKING 44 of 100
Run: 44 Seed: 28412402 833733673 [ Run 44 of 100 GA/GALS ]
Beginning LAMARCKIAN GENETIC ALGORITHM (LGA), with a maximum of 2500000 energy evaluations.

Final-Value: -14.776


	FINAL GENETIC ALGORITHM DOCKED STATE
	_______________________________________________


Detailed state:  trans 26.343 -15.934 -0.414 quatxyzw -0.853590 -0.442151 -0.102327 -0.255767 center -0.973 -0.390 0.234 ntor 6 123.7848 28.6918 57.9136 -171.6565 45.4078 -32.6076
State:	 26.343 -15.934  -0.414  -0.883 -0.457 -0.106 -150.362    123.78   28.69   57.91 -171.66   45.41  -32.61

DOCKED: MODEL       44
DOCKED: USER    Run = 44
DOCKED: USER    DPF = ligand_dock.biased.dpf
DOCKED: USER  
DOCKED: USER    Estimated Free Energy of Binding    =  -11.74 kcal/mol  [=(1)+(2)+(3)-(4)]
DOCKED: USER    Estimated Inhibition Constant, Ki   =    2.50 nM (nanomolar)  [Temperature = 298.15 K]
DOCKED: USER    
DOCKED: USER    (1) Final Intermolecular Energy     =  -13.53 kcal/mol
DOCKED: USER        vdW + Hbond + desolv Energy     =  -13.53 kcal/mol
DOCKED: USER        Electrostatic Energy            =   +0.00 kcal/mol
DOCKED: USER    (2) Final Total Internal Energy     =   -1.25 kcal/mol
DOCKED: USER    (3) Torsional Free Energy           =   +1.79 kcal/mol
DOCKED: USER    (4) Unbound System's Energy  [=(2)] =   -1.25 kcal/mol
DOCKED: USER    
DOCKED: USER    
DOCKED: USER    NEWDPF move ligand.pdbqt
DOCKED: USER    NEWDPF about -0.973000 -0.390000 0.234000
DOCKED: USER    NEWDPF tran0 26.343049 -15.934319 -0.413677
DOCKED: USER    NEWDPF quaternion0 -0.853590 -0.442151 -0.102327 -0.255767
DOCKED: USER    NEWDPF axisangle0 -0.882958 -0.457364 -0.105848 -150.361974
DOCKED: USER    NEWDPF quat0 -0.882958 -0.457364 -0.105848 -150.361974
DOCKED: USER    NEWDPF dihe0 123.78 28.69 57.91 -171.66 45.41 -32.61 
DOCKED: USER  keepresnum = 1 
DOCKED: USER  
DOCKED: REMARK  Name = 
DOCKED: REMARK  10 active torsions:
DOCKED: REMARK  status: ('A' for Active; 'I' for Inactive)
DOCKED: REMARK    1  A    between atoms: C_1  and  N_2
DOCKED: REMARK    2  A    between atoms: N_2  and  C_3
DOCKED: REMARK    3  A    between atoms: N_2  and  C_22
DOCKED: REMARK    4  A    between atoms: C_6  and  C_9
DOCKED: REMARK    5  A    between atoms: C_9  and  C_10
DOCKED: REMARK    6  A    between atoms: C_10  and  C_11
DOCKED: REMARK    7  A    between atoms: C_10  and  C_20
DOCKED: REMARK    8  A    between atoms: C_12  and  C_13
DOCKED: REMARK    9  A    between atoms: C_12  and  C_19
DOCKED: REMARK   10  A    between atoms: C_14  and  C_15
DOCKED: REMARK                            x       y       z     vdW  Elec       q    Type
DOCKED: REMARK                         _______ _______ _______ _____ _____    ______ ____
DOCKED: USER                              x       y       z     vdW  Elec       q    Type
DOCKED: USER                           _______ _______ _______ _____ _____    ______ ____
DOCKED: ROOT
DOCKED: ATOM      1  C   UNL     1      27.183 -15.852  -1.772 -0.36 -0.00    +0.000 C 
DOCKED: ATOM      2  C   UNL     1      27.898 -15.764  -3.123 -0.30 -0.00    +0.000 C 
DOCKED: ENDROOT
DOCKED: BRANCH   1   3
DOCKED: ATOM      3  C   UNL     1      25.873 -16.600  -1.925 -0.55 -0.00    +0.000 C 
DOCKED: ATOM      4  C   UNL     1      25.412 -17.534  -1.065 -0.66 -0.00    +0.000 C 
DOCKED: ATOM      5  C   UNL     1      26.181 -17.923   0.178 -0.56 -0.00    +0.000 C 
DOCKED: BRANCH   4   6
DOCKED: ATOM      6  C   UNL     1      24.090 -18.147  -1.350 -0.75 -0.00    +0.000 C 
DOCKED: ATOM      7  C   UNL     1      22.948 -17.709  -0.802 -0.78 -0.00    +0.000 C 
DOCKED: BRANCH   7   8
DOCKED: ATOM      8  C   UNL     1      21.626 -18.309  -1.080 -0.73 -0.00    +0.000 C 
DOCKED: ATOM      9  N   UNL     1      21.479 -19.551  -1.779 -0.51 -0.00    +0.000 N 
DOCKED: ATOM     10  O   UNL     1      20.255 -20.110  -1.919 -2.29 -0.00    +0.000 OA
DOCKED: ATOM     11  O   UNL     1      20.595 -17.688  -0.708 -2.17 +0.00    +0.000 OA
DOCKED: ATOM     12  H   UNL     1      22.271 -19.998  -2.159 -0.53 -0.00    +0.000 HD
DOCKED: ENDBRANCH   7   8
DOCKED: ENDBRANCH   4   6
DOCKED: ENDBRANCH   1   3
DOCKED: BRANCH   1  13
DOCKED: ATOM     13  C   UNL     1      26.945 -14.459  -1.225 -0.29 -0.00    +0.000 C 
DOCKED: ATOM     14  O   UNL     1      26.540 -13.554  -2.007 -0.25 -0.00    +0.000 OA
DOCKED: BRANCH  13  18
DOCKED: ATOM     15  C   UNL     1      27.728 -13.491   2.915 -0.32 -0.00    +0.000 A 
DOCKED: ATOM     16  C   UNL     1      28.528 -14.417   2.216 -0.17 -0.00    +0.000 A 
DOCKED: ATOM     17  C   UNL     1      28.267 -14.725   0.880 -0.21 -0.00    +0.000 A 
DOCKED: ATOM     18  C   UNL     1      27.205 -14.111   0.196 -0.25 -0.00    +0.000 A 
DOCKED: ATOM     19  C   UNL     1      26.397 -13.195   0.890 -0.29 -0.00    +0.000 A 
DOCKED: ATOM     20  C   UNL     1      26.655 -12.887   2.228 -0.29 -0.00    +0.000 A 
DOCKED: BRANCH  15  22
DOCKED: ATOM     21  C   UNL     1      28.486 -14.201   5.229 -0.51 -0.00    +0.000 C 
DOCKED: ATOM     22  N   UNL     1      27.999 -13.169   4.305 -0.39 -0.00    +0.000 N 
DOCKED: ATOM     23  C   UNL     1      27.790 -11.806   4.811 -0.38 +0.00    +0.000 C 
DOCKED: ENDBRANCH  15  22
DOCKED: ENDBRANCH  13  18
DOCKED: ENDBRANCH   1  13
DOCKED: TORSDOF 6
DOCKED: TER
DOCKED: ENDMDL
________________________________________________________________________________


	BEGINNING GENETIC ALGORITHM DOCKING 45 of 100
Run: 45 Seed: 1410897947 823601834 [ Run 45 of 100 GA/GALS ]
Beginning LAMARCKIAN GENETIC ALGORITHM (LGA), with a maximum of 2500000 energy evaluations.

Final-Value: -13.818


	FINAL GENETIC ALGORITHM DOCKED STATE
	_______________________________________________


Detailed state:  trans 27.013 -15.636 -2.534 quatxyzw 0.200281 0.044872 -0.018724 -0.978531 center -0.973 -0.390 0.234 ntor 6 -156.9537 126.7938 -17.4515 152.8243 -163.3114 -50.4337
State:	 27.013 -15.636  -2.534   0.972  0.218 -0.091 -23.788   -156.95  126.79  -17.45  152.82 -163.31  -50.43

DOCKED: MODEL       45
DOCKED: USER    Run = 45
DOCKED: USER    DPF = ligand_dock.biased.dpf
DOCKED: USER  
DOCKED: USER    Estimated Free Energy of Binding    =  -11.19 kcal/mol  [=(1)+(2)+(3)-(4)]
DOCKED: USER    Estimated Inhibition Constant, Ki   =    6.29 nM (nanomolar)  [Temperature = 298.15 K]
DOCKED: USER    
DOCKED: USER    (1) Final Intermolecular Energy     =  -12.98 kcal/mol
DOCKED: USER        vdW + Hbond + desolv Energy     =  -12.98 kcal/mol
DOCKED: USER        Electrostatic Energy            =   +0.00 kcal/mol
DOCKED: USER    (2) Final Total Internal Energy     =   -0.84 kcal/mol
DOCKED: USER    (3) Torsional Free Energy           =   +1.79 kcal/mol
DOCKED: USER    (4) Unbound System's Energy  [=(2)] =   -0.84 kcal/mol
DOCKED: USER    
DOCKED: USER    
DOCKED: USER    NEWDPF move ligand.pdbqt
DOCKED: USER    NEWDPF about -0.973000 -0.390000 0.234000
DOCKED: USER    NEWDPF tran0 27.013393 -15.636036 -2.533945
DOCKED: USER    NEWDPF quaternion0 0.200281 0.044872 -0.018724 -0.978531
DOCKED: USER    NEWDPF axisangle0 0.971773 0.217722 -0.090852 -23.787605
DOCKED: USER    NEWDPF quat0 0.971773 0.217722 -0.090852 -23.787605
DOCKED: USER    NEWDPF dihe0 -156.95 126.79 -17.45 152.82 -163.31 -50.43 
DOCKED: USER  keepresnum = 1 
DOCKED: USER  
DOCKED: REMARK  Name = 
DOCKED: REMARK  10 active torsions:
DOCKED: REMARK  status: ('A' for Active; 'I' for Inactive)
DOCKED: REMARK    1  A    between atoms: C_1  and  N_2
DOCKED: REMARK    2  A    between atoms: N_2  and  C_3
DOCKED: REMARK    3  A    between atoms: N_2  and  C_22
DOCKED: REMARK    4  A    between atoms: C_6  and  C_9
DOCKED: REMARK    5  A    between atoms: C_9  and  C_10
DOCKED: REMARK    6  A    between atoms: C_10  and  C_11
DOCKED: REMARK    7  A    between atoms: C_10  and  C_20
DOCKED: REMARK    8  A    between atoms: C_12  and  C_13
DOCKED: REMARK    9  A    between atoms: C_12  and  C_19
DOCKED: REMARK   10  A    between atoms: C_14  and  C_15
DOCKED: REMARK                            x       y       z     vdW  Elec       q    Type
DOCKED: REMARK                         _______ _______ _______ _____ _____    ______ ____
DOCKED: USER                              x       y       z     vdW  Elec       q    Type
DOCKED: USER                           _______ _______ _______ _____ _____    ______ ____
DOCKED: ROOT
DOCKED: ATOM      1  C   UNL     1      27.173 -15.070  -1.047 -0.31 -0.00    +0.000 C 
DOCKED: ATOM      2  C   UNL     1      27.262 -14.603   0.409 -0.30 -0.00    +0.000 C 
DOCKED: ENDROOT
DOCKED: BRANCH   1   3
DOCKED: ATOM      3  C   UNL     1      25.772 -15.562  -1.350 -0.46 -0.00    +0.000 C 
DOCKED: ATOM      4  C   UNL     1      25.238 -16.711  -0.881 -0.58 -0.00    +0.000 C 
DOCKED: ATOM      5  C   UNL     1      26.012 -17.636   0.031 -0.56 -0.00    +0.000 C 
DOCKED: BRANCH   4   6
DOCKED: ATOM      6  C   UNL     1      23.835 -17.025  -1.252 -0.64 -0.00    +0.000 C 
DOCKED: ATOM      7  C   UNL     1      23.144 -18.036  -0.707 -0.81 -0.00    +0.000 C 
DOCKED: BRANCH   7   8
DOCKED: ATOM      8  C   UNL     1      21.747 -18.357  -1.067 -0.75 -0.00    +0.000 C 
DOCKED: ATOM      9  N   UNL     1      21.397 -19.524  -1.821 -0.55 -0.00    +0.000 N 
DOCKED: ATOM     10  O   UNL     1      20.097 -19.829  -2.036 -2.31 -0.00    +0.000 OA
DOCKED: ATOM     11  O   UNL     1      20.838 -17.559  -0.715 -2.11 +0.00    +0.000 OA
DOCKED: ATOM     12  H   UNL     1      22.105 -20.106  -2.183 -0.57 -0.00    +0.000 HD
DOCKED: ENDBRANCH   7   8
DOCKED: ENDBRANCH   4   6
DOCKED: ENDBRANCH   1   3
DOCKED: BRANCH   1  13
DOCKED: ATOM     13  C   UNL     1      28.192 -16.165  -1.298 -0.31 -0.00    +0.000 C 
DOCKED: ATOM     14  O   UNL     1      28.592 -16.865  -0.326 -0.34 -0.00    +0.000 OA
DOCKED: BRANCH  13  18
DOCKED: ATOM     15  C   UNL     1      29.815 -16.885  -5.239 -0.28 -0.00    +0.000 A 
DOCKED: ATOM     16  C   UNL     1      28.856 -15.877  -5.016 -0.30 -0.00    +0.000 A 
DOCKED: ATOM     17  C   UNL     1      28.336 -15.652  -3.740 -0.26 -0.00    +0.000 A 
DOCKED: ATOM     18  C   UNL     1      28.764 -16.420  -2.645 -0.23 -0.00    +0.000 A 
DOCKED: ATOM     19  C   UNL     1      29.712 -17.434  -2.862 -0.08 -0.00    +0.000 A 
DOCKED: ATOM     20  C   UNL     1      30.232 -17.662  -4.139 -0.20 -0.00    +0.000 A 
DOCKED: BRANCH  15  22
DOCKED: ATOM     21  C   UNL     1      30.753 -15.994  -7.421 -0.31 -0.00    +0.000 C 
DOCKED: ATOM     22  N   UNL     1      30.358 -17.119  -6.566 -0.35 -0.00    +0.000 N 
DOCKED: ATOM     23  C   UNL     1      30.521 -18.487  -7.075 -0.36 -0.00    +0.000 C 
DOCKED: ENDBRANCH  15  22
DOCKED: ENDBRANCH  13  18
DOCKED: ENDBRANCH   1  13
DOCKED: TORSDOF 6
DOCKED: TER
DOCKED: ENDMDL
________________________________________________________________________________


	BEGINNING GENETIC ALGORITHM DOCKING 46 of 100
Run: 46 Seed: 1554777232 1762079599 [ Run 46 of 100 GA/GALS ]
Beginning LAMARCKIAN GENETIC ALGORITHM (LGA), with a maximum of 2500000 energy evaluations.

Final-Value: -14.249


	FINAL GENETIC ALGORITHM DOCKED STATE
	_______________________________________________


Detailed state:  trans 27.032 -16.001 -2.852 quatxyzw 0.263702 0.069853 0.020239 -0.961859 center -0.973 -0.390 0.234 ntor 6 45.5262 83.0227 19.6317 136.5808 -147.2947 -45.0591
State:	 27.032 -16.001  -2.852   0.964  0.255  0.074 -31.751     45.53   83.02   19.63  136.58 -147.29  -45.06

DOCKED: MODEL       46
DOCKED: USER    Run = 46
DOCKED: USER    DPF = ligand_dock.biased.dpf
DOCKED: USER  
DOCKED: USER    Estimated Free Energy of Binding    =  -11.53 kcal/mol  [=(1)+(2)+(3)-(4)]
DOCKED: USER    Estimated Inhibition Constant, Ki   =    3.52 nM (nanomolar)  [Temperature = 298.15 K]
DOCKED: USER    
DOCKED: USER    (1) Final Intermolecular Energy     =  -13.32 kcal/mol
DOCKED: USER        vdW + Hbond + desolv Energy     =  -13.32 kcal/mol
DOCKED: USER        Electrostatic Energy            =   +0.00 kcal/mol
DOCKED: USER    (2) Final Total Internal Energy     =   -0.93 kcal/mol
DOCKED: USER    (3) Torsional Free Energy           =   +1.79 kcal/mol
DOCKED: USER    (4) Unbound System's Energy  [=(2)] =   -0.93 kcal/mol
DOCKED: USER    
DOCKED: USER    
DOCKED: USER    NEWDPF move ligand.pdbqt
DOCKED: USER    NEWDPF about -0.973000 -0.390000 0.234000
DOCKED: USER    NEWDPF tran0 27.031512 -16.000763 -2.851873
DOCKED: USER    NEWDPF quaternion0 0.263702 0.069853 0.020239 -0.961859
DOCKED: USER    NEWDPF axisangle0 0.964011 0.255359 0.073987 -31.750896
DOCKED: USER    NEWDPF quat0 0.964011 0.255359 0.073987 -31.750896
DOCKED: USER    NEWDPF dihe0 45.53 83.02 19.63 136.58 -147.29 -45.06 
DOCKED: USER  keepresnum = 1 
DOCKED: USER  
DOCKED: REMARK  Name = 
DOCKED: REMARK  10 active torsions:
DOCKED: REMARK  status: ('A' for Active; 'I' for Inactive)
DOCKED: REMARK    1  A    between atoms: C_1  and  N_2
DOCKED: REMARK    2  A    between atoms: N_2  and  C_3
DOCKED: REMARK    3  A    between atoms: N_2  and  C_22
DOCKED: REMARK    4  A    between atoms: C_6  and  C_9
DOCKED: REMARK    5  A    between atoms: C_9  and  C_10
DOCKED: REMARK    6  A    between atoms: C_10  and  C_11
DOCKED: REMARK    7  A    between atoms: C_10  and  C_20
DOCKED: REMARK    8  A    between atoms: C_12  and  C_13
DOCKED: REMARK    9  A    between atoms: C_12  and  C_19
DOCKED: REMARK   10  A    between atoms: C_14  and  C_15
DOCKED: REMARK                            x       y       z     vdW  Elec       q    Type
DOCKED: REMARK                         _______ _______ _______ _____ _____    ______ ____
DOCKED: USER                              x       y       z     vdW  Elec       q    Type
DOCKED: USER                           _______ _______ _______ _____ _____    ______ ____
DOCKED: ROOT
DOCKED: ATOM      1  C   UNL     1      27.203 -15.628  -1.306 -0.34 -0.00    +0.000 C 
DOCKED: ATOM      2  C   UNL     1      27.310 -15.352   0.196 -0.32 -0.00    +0.000 C 
DOCKED: ENDROOT
DOCKED: BRANCH   1   3
DOCKED: ATOM      3  C   UNL     1      25.833 -16.187  -1.636 -0.53 -0.00    +0.000 C 
DOCKED: ATOM      4  C   UNL     1      25.291 -17.285  -1.067 -0.65 -0.00    +0.000 C 
DOCKED: ATOM      5  C   UNL     1      26.019 -18.075  -0.002 -0.65 -0.00    +0.000 C 
DOCKED: BRANCH   4   6
DOCKED: ATOM      6  C   UNL     1      23.920 -17.677  -1.485 -0.72 -0.00    +0.000 C 
DOCKED: ATOM      7  C   UNL     1      22.959 -18.015  -0.614 -0.81 -0.00    +0.000 C 
DOCKED: BRANCH   7   8
DOCKED: ATOM      8  C   UNL     1      21.592 -18.405  -1.018 -0.77 -0.00    +0.000 C 
DOCKED: ATOM      9  N   UNL     1      21.324 -19.594  -1.771 -0.56 -0.00    +0.000 N 
DOCKED: ATOM     10  O   UNL     1      20.047 -19.961  -2.028 -2.25 -0.00    +0.000 OA
DOCKED: ATOM     11  O   UNL     1      20.635 -17.646  -0.707 -2.20 +0.00    +0.000 OA
DOCKED: ATOM     12  H   UNL     1      22.070 -20.144  -2.103 -0.53 -0.00    +0.000 HD
DOCKED: ENDBRANCH   7   8
DOCKED: ENDBRANCH   4   6
DOCKED: ENDBRANCH   1   3
DOCKED: BRANCH   1  13
DOCKED: ATOM     13  C   UNL     1      28.293 -16.591  -1.731 -0.33 -0.00    +0.000 C 
DOCKED: ATOM     14  O   UNL     1      28.711 -17.449  -0.903 -0.38 -0.00    +0.000 OA
DOCKED: BRANCH  13  18
DOCKED: ATOM     15  C   UNL     1      30.054 -16.431  -5.676 -0.29 -0.00    +0.000 A 
DOCKED: ATOM     16  C   UNL     1      28.828 -15.795  -5.396 -0.31 -0.00    +0.000 A 
DOCKED: ATOM     17  C   UNL     1      28.266 -15.853  -4.119 -0.23 -0.00    +0.000 A 
DOCKED: ATOM     18  C   UNL     1      28.914 -16.540  -3.080 -0.21 -0.00    +0.000 A 
DOCKED: ATOM     19  C   UNL     1      30.131 -17.186  -3.356 -0.19 -0.00    +0.000 A 
DOCKED: ATOM     20  C   UNL     1      30.694 -17.131  -4.634 -0.21 -0.00    +0.000 A 
DOCKED: BRANCH  15  22
DOCKED: ATOM     21  C   UNL     1      30.770 -17.585  -7.819 -0.31 -0.00    +0.000 C 
DOCKED: ATOM     22  N   UNL     1      30.640 -16.371  -7.004 -0.31 -0.00    +0.000 N 
DOCKED: ATOM     23  C   UNL     1      31.112 -15.094  -7.555 -0.24 -0.00    +0.000 C 
DOCKED: ENDBRANCH  15  22
DOCKED: ENDBRANCH  13  18
DOCKED: ENDBRANCH   1  13
DOCKED: TORSDOF 6
DOCKED: TER
DOCKED: ENDMDL
________________________________________________________________________________


	BEGINNING GENETIC ALGORITHM DOCKING 47 of 100
Run: 47 Seed: 1881366772 2107172441 [ Run 47 of 100 GA/GALS ]
Beginning LAMARCKIAN GENETIC ALGORITHM (LGA), with a maximum of 2500000 energy evaluations.

Final-Value: -14.174


	FINAL GENETIC ALGORITHM DOCKED STATE
	_______________________________________________


Detailed state:  trans 26.250 -15.972 0.147 quatxyzw -0.894944 -0.420281 -0.093028 -0.117410 center -0.973 -0.390 0.234 ntor 6 53.1414 -10.3205 124.6214 -168.5331 4.9756 148.5712
State:	 26.250 -15.972   0.147  -0.901 -0.423 -0.094 -166.515     53.14  -10.32  124.62 -168.53    4.98  148.57

DOCKED: MODEL       47
DOCKED: USER    Run = 47
DOCKED: USER    DPF = ligand_dock.biased.dpf
DOCKED: USER  
DOCKED: USER    Estimated Free Energy of Binding    =  -11.23 kcal/mol  [=(1)+(2)+(3)-(4)]
DOCKED: USER    Estimated Inhibition Constant, Ki   =    5.90 nM (nanomolar)  [Temperature = 298.15 K]
DOCKED: USER    
DOCKED: USER    (1) Final Intermolecular Energy     =  -13.02 kcal/mol
DOCKED: USER        vdW + Hbond + desolv Energy     =  -13.02 kcal/mol
DOCKED: USER        Electrostatic Energy            =   +0.00 kcal/mol
DOCKED: USER    (2) Final Total Internal Energy     =   -1.16 kcal/mol
DOCKED: USER    (3) Torsional Free Energy           =   +1.79 kcal/mol
DOCKED: USER    (4) Unbound System's Energy  [=(2)] =   -1.16 kcal/mol
DOCKED: USER    
DOCKED: USER    
DOCKED: USER    NEWDPF move ligand.pdbqt
DOCKED: USER    NEWDPF about -0.973000 -0.390000 0.234000
DOCKED: USER    NEWDPF tran0 26.250375 -15.971925 0.147315
DOCKED: USER    NEWDPF quaternion0 -0.894944 -0.420281 -0.093028 -0.117410
DOCKED: USER    NEWDPF axisangle0 -0.901177 -0.423208 -0.093676 -166.514753
DOCKED: USER    NEWDPF quat0 -0.901177 -0.423208 -0.093676 -166.514753
DOCKED: USER    NEWDPF dihe0 53.14 -10.32 124.62 -168.53 4.98 148.57 
DOCKED: USER  keepresnum = 1 
DOCKED: USER  
DOCKED: REMARK  Name = 
DOCKED: REMARK  10 active torsions:
DOCKED: REMARK  status: ('A' for Active; 'I' for Inactive)
DOCKED: REMARK    1  A    between atoms: C_1  and  N_2
DOCKED: REMARK    2  A    between atoms: N_2  and  C_3
DOCKED: REMARK    3  A    between atoms: N_2  and  C_22
DOCKED: REMARK    4  A    between atoms: C_6  and  C_9
DOCKED: REMARK    5  A    between atoms: C_9  and  C_10
DOCKED: REMARK    6  A    between atoms: C_10  and  C_11
DOCKED: REMARK    7  A    between atoms: C_10  and  C_20
DOCKED: REMARK    8  A    between atoms: C_12  and  C_13
DOCKED: REMARK    9  A    between atoms: C_12  and  C_19
DOCKED: REMARK   10  A    between atoms: C_14  and  C_15
DOCKED: REMARK                            x       y       z     vdW  Elec       q    Type
DOCKED: REMARK                         _______ _______ _______ _____ _____    ______ ____
DOCKED: USER                              x       y       z     vdW  Elec       q    Type
DOCKED: USER                           _______ _______ _______ _____ _____    ______ ____
DOCKED: ROOT
DOCKED: ATOM      1  C   UNL     1      27.191 -16.321  -1.097 -0.42 -0.00    +0.000 C 
DOCKED: ATOM      2  C   UNL     1      28.009 -16.652  -2.350 -0.28 -0.00    +0.000 C 
DOCKED: ENDROOT
DOCKED: BRANCH   1   3
DOCKED: ATOM      3  C   UNL     1      25.823 -16.969  -1.184 -0.59 -0.00    +0.000 C 
DOCKED: ATOM      4  C   UNL     1      25.490 -18.148  -0.617 -0.68 -0.00    +0.000 C 
DOCKED: ATOM      5  C   UNL     1      26.482 -18.953   0.194 -0.22 -0.00    +0.000 C 
DOCKED: BRANCH   4   6
DOCKED: ATOM      6  C   UNL     1      24.091 -18.623  -0.774 -0.78 -0.00    +0.000 C 
DOCKED: ATOM      7  C   UNL     1      23.050 -17.791  -0.919 -0.78 -0.00    +0.000 C 
DOCKED: BRANCH   7   8
DOCKED: ATOM      8  C   UNL     1      21.654 -18.252  -1.078 -0.72 -0.00    +0.000 C 
DOCKED: ATOM      9  N   UNL     1      21.326 -19.518  -1.663 -0.63 -0.00    +0.000 N 
DOCKED: ATOM     10  O   UNL     1      20.041 -19.939  -1.693 -2.23 -0.00    +0.000 OA
DOCKED: ATOM     11  O   UNL     1      20.724 -17.487  -0.707 -2.08 +0.00    +0.000 OA
DOCKED: ATOM     12  H   UNL     1      22.038 -20.083  -2.044 -0.53 -0.00    +0.000 HD
DOCKED: ENDBRANCH   7   8
DOCKED: ENDBRANCH   4   6
DOCKED: ENDBRANCH   1   3
DOCKED: BRANCH   1  13
DOCKED: ATOM     13  C   UNL     1      27.065 -14.818  -0.949 -0.30 -0.00    +0.000 C 
DOCKED: ATOM     14  O   UNL     1      27.232 -14.298   0.190 -0.29 -0.00    +0.000 OA
DOCKED: BRANCH  13  18
DOCKED: ATOM     15  C   UNL     1      26.035 -12.293  -4.303 -0.28 -0.00    +0.000 A 
DOCKED: ATOM     16  C   UNL     1      25.451 -13.565  -4.138 -0.39 -0.00    +0.000 A 
DOCKED: ATOM     17  C   UNL     1      25.790 -14.374  -3.053 -0.39 -0.00    +0.000 A 
DOCKED: ATOM     18  C   UNL     1      26.716 -13.936  -2.093 -0.23 -0.00    +0.000 A 
DOCKED: ATOM     19  C   UNL     1      27.311 -12.674  -2.257 -0.13 -0.00    +0.000 A 
DOCKED: ATOM     20  C   UNL     1      26.974 -11.863  -3.344 -0.15 -0.00    +0.000 A 
DOCKED: BRANCH  15  22
DOCKED: ATOM     21  C   UNL     1      26.619 -11.262  -6.546 -0.19 -0.00    +0.000 C 
DOCKED: ATOM     22  N   UNL     1      25.682 -11.450  -5.432 -0.31 -0.00    +0.000 N 
DOCKED: ATOM     23  C   UNL     1      24.380 -10.771  -5.479 -0.44 -0.00    +0.000 C 
DOCKED: ENDBRANCH  15  22
DOCKED: ENDBRANCH  13  18
DOCKED: ENDBRANCH   1  13
DOCKED: TORSDOF 6
DOCKED: TER
DOCKED: ENDMDL
________________________________________________________________________________


	BEGINNING GENETIC ALGORITHM DOCKING 48 of 100
Run: 48 Seed: 766512449 1518102817 [ Run 48 of 100 GA/GALS ]
Beginning LAMARCKIAN GENETIC ALGORITHM (LGA), with a maximum of 2500000 energy evaluations.

Final-Value: -14.396


	FINAL GENETIC ALGORITHM DOCKED STATE
	_______________________________________________


Detailed state:  trans 26.591 -15.479 -1.070 quatxyzw 0.873887 0.283216 -0.032555 0.393764 center -0.973 -0.390 0.234 ntor 6 -83.8152 179.9040 -96.2972 -134.5324 50.8064 -66.7249
State:	 26.591 -15.479  -1.070   0.951  0.308 -0.035 133.622    -83.82  179.90  -96.30 -134.53   50.81  -66.72

DOCKED: MODEL       48
DOCKED: USER    Run = 48
DOCKED: USER    DPF = ligand_dock.biased.dpf
DOCKED: USER  
DOCKED: USER    Estimated Free Energy of Binding    =  -11.26 kcal/mol  [=(1)+(2)+(3)-(4)]
DOCKED: USER    Estimated Inhibition Constant, Ki   =    5.55 nM (nanomolar)  [Temperature = 298.15 K]
DOCKED: USER    
DOCKED: USER    (1) Final Intermolecular Energy     =  -13.05 kcal/mol
DOCKED: USER        vdW + Hbond + desolv Energy     =  -13.05 kcal/mol
DOCKED: USER        Electrostatic Energy            =   +0.00 kcal/mol
DOCKED: USER    (2) Final Total Internal Energy     =   -1.34 kcal/mol
DOCKED: USER    (3) Torsional Free Energy           =   +1.79 kcal/mol
DOCKED: USER    (4) Unbound System's Energy  [=(2)] =   -1.34 kcal/mol
DOCKED: USER    
DOCKED: USER    
DOCKED: USER    NEWDPF move ligand.pdbqt
DOCKED: USER    NEWDPF about -0.973000 -0.390000 0.234000
DOCKED: USER    NEWDPF tran0 26.591376 -15.479264 -1.069977
DOCKED: USER    NEWDPF quaternion0 0.873887 0.283216 -0.032555 0.393764
DOCKED: USER    NEWDPF axisangle0 0.950692 0.308108 -0.035417 133.622218
DOCKED: USER    NEWDPF quat0 0.950692 0.308108 -0.035417 133.622218
DOCKED: USER    NEWDPF dihe0 -83.82 179.90 -96.30 -134.53 50.81 -66.72 
DOCKED: USER  keepresnum = 1 
DOCKED: USER  
DOCKED: REMARK  Name = 
DOCKED: REMARK  10 active torsions:
DOCKED: REMARK  status: ('A' for Active; 'I' for Inactive)
DOCKED: REMARK    1  A    between atoms: C_1  and  N_2
DOCKED: REMARK    2  A    between atoms: N_2  and  C_3
DOCKED: REMARK    3  A    between atoms: N_2  and  C_22
DOCKED: REMARK    4  A    between atoms: C_6  and  C_9
DOCKED: REMARK    5  A    between atoms: C_9  and  C_10
DOCKED: REMARK    6  A    between atoms: C_10  and  C_11
DOCKED: REMARK    7  A    between atoms: C_10  and  C_20
DOCKED: REMARK    8  A    between atoms: C_12  and  C_13
DOCKED: REMARK    9  A    between atoms: C_12  and  C_19
DOCKED: REMARK   10  A    between atoms: C_14  and  C_15
DOCKED: REMARK                            x       y       z     vdW  Elec       q    Type
DOCKED: REMARK                         _______ _______ _______ _____ _____    ______ ____
DOCKED: USER                              x       y       z     vdW  Elec       q    Type
DOCKED: USER                           _______ _______ _______ _____ _____    ______ ____
DOCKED: ROOT
DOCKED: ATOM      1  C   UNL     1      26.795 -15.291  -2.645 -0.38 -0.00    +0.000 C 
DOCKED: ATOM      2  C   UNL     1      26.893 -15.079  -4.158 -0.47 -0.00    +0.000 C 
DOCKED: ENDROOT
DOCKED: BRANCH   1   3
DOCKED: ATOM      3  C   UNL     1      25.410 -15.787  -2.278 -0.53 -0.00    +0.000 C 
DOCKED: ATOM      4  C   UNL     1      25.147 -16.701  -1.319 -0.62 -0.00    +0.000 C 
DOCKED: ATOM      5  C   UNL     1      26.245 -17.325  -0.487 -0.59 -0.00    +0.000 C 
DOCKED: BRANCH   4   6
DOCKED: ATOM      6  C   UNL     1      23.725 -17.051  -1.066 -0.67 -0.00    +0.000 C 
DOCKED: ATOM      7  C   UNL     1      23.199 -18.242  -1.381 -0.76 -0.00    +0.000 C 
DOCKED: BRANCH   7   8
DOCKED: ATOM      8  C   UNL     1      21.787 -18.602  -1.132 -0.75 -0.00    +0.000 C 
DOCKED: ATOM      9  N   UNL     1      21.149 -19.704  -1.790 -0.61 -0.00    +0.000 N 
DOCKED: ATOM     10  O   UNL     1      19.887 -20.057  -1.452 -2.08 -0.00    +0.000 OA
DOCKED: ATOM     11  O   UNL     1      21.120 -17.896  -0.330 -1.85 +0.00    +0.000 OA
DOCKED: ATOM     12  H   UNL     1      21.630 -20.204  -2.489 -0.60 -0.00    +0.000 HD
DOCKED: ENDBRANCH   7   8
DOCKED: ENDBRANCH   4   6
DOCKED: ENDBRANCH   1   3
DOCKED: BRANCH   1  13
DOCKED: ATOM     13  C   UNL     1      27.110 -13.996  -1.923 -0.24 -0.00    +0.000 C 
DOCKED: ATOM     14  O   UNL     1      27.231 -12.933  -2.594 -0.18 -0.00    +0.000 OA
DOCKED: BRANCH  13  18
DOCKED: ATOM     15  C   UNL     1      27.747 -13.870   2.351 -0.29 -0.00    +0.000 A 
DOCKED: ATOM     16  C   UNL     1      28.695 -14.453   1.487 -0.18 -0.00    +0.000 A 
DOCKED: ATOM     17  C   UNL     1      28.481 -14.491   0.108 -0.17 -0.00    +0.000 A 
DOCKED: ATOM     18  C   UNL     1      27.318 -13.939  -0.452 -0.21 -0.00    +0.000 A 
DOCKED: ATOM     19  C   UNL     1      26.363 -13.366   0.404 -0.29 -0.00    +0.000 A 
DOCKED: ATOM     20  C   UNL     1      26.575 -13.330   1.785 -0.22 -0.00    +0.000 A 
DOCKED: BRANCH  15  22
DOCKED: ATOM     21  C   UNL     1      28.101 -12.546   4.486 -0.39 -0.00    +0.000 C 
DOCKED: ATOM     22  N   UNL     1      27.969 -13.830   3.786 -0.42 -0.00    +0.000 N 
DOCKED: ATOM     23  C   UNL     1      28.065 -15.073   4.562 -0.54 -0.00    +0.000 C 
DOCKED: ENDBRANCH  15  22
DOCKED: ENDBRANCH  13  18
DOCKED: ENDBRANCH   1  13
DOCKED: TORSDOF 6
DOCKED: TER
DOCKED: ENDMDL
________________________________________________________________________________


	BEGINNING GENETIC ALGORITHM DOCKING 49 of 100
Run: 49 Seed: 1819202227 1896051785 [ Run 49 of 100 GA/GALS ]
Beginning LAMARCKIAN GENETIC ALGORITHM (LGA), with a maximum of 2500000 energy evaluations.

Final-Value: -12.635


	FINAL GENETIC ALGORITHM DOCKED STATE
	_______________________________________________


Detailed state:  trans 26.672 -16.405 -2.098 quatxyzw 0.222317 0.168775 -0.077474 -0.957125 center -0.973 -0.390 0.234 ntor 6 102.2154 157.9624 72.1817 111.2512 70.1807 -7.7420
State:	 26.672 -16.405  -2.098   0.767  0.583 -0.267 -33.677    102.22  157.96   72.18  111.25   70.18   -7.74

DOCKED: MODEL       49
DOCKED: USER    Run = 49
DOCKED: USER    DPF = ligand_dock.biased.dpf
DOCKED: USER  
DOCKED: USER    Estimated Free Energy of Binding    =   -9.68 kcal/mol  [=(1)+(2)+(3)-(4)]
DOCKED: USER    Estimated Inhibition Constant, Ki   =   80.69 nM (nanomolar)  [Temperature = 298.15 K]
DOCKED: USER    
DOCKED: USER    (1) Final Intermolecular Energy     =  -11.47 kcal/mol
DOCKED: USER        vdW + Hbond + desolv Energy     =  -11.47 kcal/mol
DOCKED: USER        Electrostatic Energy            =   +0.00 kcal/mol
DOCKED: USER    (2) Final Total Internal Energy     =   -1.17 kcal/mol
DOCKED: USER    (3) Torsional Free Energy           =   +1.79 kcal/mol
DOCKED: USER    (4) Unbound System's Energy  [=(2)] =   -1.17 kcal/mol
DOCKED: USER    
DOCKED: USER    
DOCKED: USER    NEWDPF move ligand.pdbqt
DOCKED: USER    NEWDPF about -0.973000 -0.390000 0.234000
DOCKED: USER    NEWDPF tran0 26.671957 -16.405467 -2.097677
DOCKED: USER    NEWDPF quaternion0 0.222317 0.168775 -0.077474 -0.957125
DOCKED: USER    NEWDPF axisangle0 0.767468 0.582633 -0.267452 -33.677053
DOCKED: USER    NEWDPF quat0 0.767468 0.582633 -0.267452 -33.677053
DOCKED: USER    NEWDPF dihe0 102.22 157.96 72.18 111.25 70.18 -7.74 
DOCKED: USER  keepresnum = 1 
DOCKED: USER  
DOCKED: REMARK  Name = 
DOCKED: REMARK  10 active torsions:
DOCKED: REMARK  status: ('A' for Active; 'I' for Inactive)
DOCKED: REMARK    1  A    between atoms: C_1  and  N_2
DOCKED: REMARK    2  A    between atoms: N_2  and  C_3
DOCKED: REMARK    3  A    between atoms: N_2  and  C_22
DOCKED: REMARK    4  A    between atoms: C_6  and  C_9
DOCKED: REMARK    5  A    between atoms: C_9  and  C_10
DOCKED: REMARK    6  A    between atoms: C_10  and  C_11
DOCKED: REMARK    7  A    between atoms: C_10  and  C_20
DOCKED: REMARK    8  A    between atoms: C_12  and  C_13
DOCKED: REMARK    9  A    between atoms: C_12  and  C_19
DOCKED: REMARK   10  A    between atoms: C_14  and  C_15
DOCKED: REMARK                            x       y       z     vdW  Elec       q    Type
DOCKED: REMARK                         _______ _______ _______ _____ _____    ______ ____
DOCKED: USER                              x       y       z     vdW  Elec       q    Type
DOCKED: USER                           _______ _______ _______ _____ _____    ______ ____
DOCKED: ROOT
DOCKED: ATOM      1  C   UNL     1      27.259 -15.940  -0.685 -0.38 -0.00    +0.000 C 
DOCKED: ATOM      2  C   UNL     1      27.761 -15.566   0.713 -0.18 -0.00    +0.000 C 
DOCKED: ENDROOT
DOCKED: BRANCH   1   3
DOCKED: ATOM      3  C   UNL     1      25.794 -16.327  -0.624 -0.46 -0.00    +0.000 C 
DOCKED: ATOM      4  C   UNL     1      24.963 -16.372  -1.688 -0.59 -0.00    +0.000 C 
DOCKED: ATOM      5  C   UNL     1      25.437 -16.042  -3.086 -0.49 -0.00    +0.000 C 
DOCKED: BRANCH   4   6
DOCKED: ATOM      6  C   UNL     1      23.561 -16.804  -1.455 -0.37 -0.00    +0.000 C 
DOCKED: ATOM      7  C   UNL     1      23.200 -18.091  -1.358 -0.73 -0.00    +0.000 C 
DOCKED: BRANCH   7   8
DOCKED: ATOM      8  C   UNL     1      21.809 -18.533  -1.124 -0.74 -0.00    +0.000 C 
DOCKED: ATOM      9  N   UNL     1      21.245 -19.674  -1.783 -0.56 -0.00    +0.000 N 
DOCKED: ATOM     10  O   UNL     1      20.003 -20.100  -1.458 -2.10 -0.00    +0.000 OA
DOCKED: ATOM     11  O   UNL     1      21.092 -17.864  -0.333 -1.88 +0.00    +0.000 OA
DOCKED: ATOM     12  H   UNL     1      21.763 -20.148  -2.474 -0.61 -0.00    +0.000 HD
DOCKED: ENDBRANCH   7   8
DOCKED: ENDBRANCH   4   6
DOCKED: ENDBRANCH   1   3
DOCKED: BRANCH   1  13
DOCKED: ATOM     13  C   UNL     1      28.091 -17.077  -1.243 -0.37 -0.00    +0.000 C 
DOCKED: ATOM     14  O   UNL     1      28.011 -18.218  -0.705 -0.44 -0.00    +0.000 OA
DOCKED: BRANCH  13  18
DOCKED: ATOM     15  C   UNL     1      30.776 -16.517  -4.585 -0.16 -0.00    +0.000 A 
DOCKED: ATOM     16  C   UNL     1      29.492 -15.938  -4.573 -0.24 -0.00    +0.000 A 
DOCKED: ATOM     17  C   UNL     1      28.630 -16.125  -3.490 -0.22 -0.00    +0.000 A 
DOCKED: ATOM     18  C   UNL     1      29.028 -16.889  -2.381 -0.21 -0.00    +0.000 A 
DOCKED: ATOM     19  C   UNL     1      30.303 -17.478  -2.391 -0.17 -0.00    +0.000 A 
DOCKED: ATOM     20  C   UNL     1      31.165 -17.294  -3.475 -0.13 -0.00    +0.000 A 
DOCKED: BRANCH  15  22
DOCKED: ATOM     21  C   UNL     1      31.264 -16.709  -7.066 -0.28 -0.00    +0.000 C 
DOCKED: ATOM     22  N   UNL     1      31.673 -16.322  -5.710 -0.11 -0.00    +0.000 N 
DOCKED: ATOM     23  C   UNL     1      33.004 -15.735  -5.511 -0.04 -0.00    +0.000 C 
DOCKED: ENDBRANCH  15  22
DOCKED: ENDBRANCH  13  18
DOCKED: ENDBRANCH   1  13
DOCKED: TORSDOF 6
DOCKED: TER
DOCKED: ENDMDL
________________________________________________________________________________


	BEGINNING GENETIC ALGORITHM DOCKING 50 of 100
Run: 50 Seed: 1929091329 543136382 [ Run 50 of 100 GA/GALS ]
Beginning LAMARCKIAN GENETIC ALGORITHM (LGA), with a maximum of 2500000 energy evaluations.

Final-Value: -14.723


	FINAL GENETIC ALGORITHM DOCKED STATE
	_______________________________________________


Detailed state:  trans 26.084 -15.259 0.408 quatxyzw -0.907911 -0.348250 -0.212204 -0.096895 center -0.973 -0.390 0.234 ntor 6 157.7284 111.5854 3.6949 170.3829 -0.0023 -27.2354
State:	 26.084 -15.259   0.408  -0.912 -0.350 -0.213 -168.879    157.73  111.59    3.69  170.38   -0.00  -27.24

DOCKED: MODEL       50
DOCKED: USER    Run = 50
DOCKED: USER    DPF = ligand_dock.biased.dpf
DOCKED: USER  
DOCKED: USER    Estimated Free Energy of Binding    =  -11.89 kcal/mol  [=(1)+(2)+(3)-(4)]
DOCKED: USER    Estimated Inhibition Constant, Ki   =    1.93 nM (nanomolar)  [Temperature = 298.15 K]
DOCKED: USER    
DOCKED: USER    (1) Final Intermolecular Energy     =  -13.68 kcal/mol
DOCKED: USER        vdW + Hbond + desolv Energy     =  -13.68 kcal/mol
DOCKED: USER        Electrostatic Energy            =   +0.00 kcal/mol
DOCKED: USER    (2) Final Total Internal Energy     =   -1.04 kcal/mol
DOCKED: USER    (3) Torsional Free Energy           =   +1.79 kcal/mol
DOCKED: USER    (4) Unbound System's Energy  [=(2)] =   -1.04 kcal/mol
DOCKED: USER    
DOCKED: USER    
DOCKED: USER    NEWDPF move ligand.pdbqt
DOCKED: USER    NEWDPF about -0.973000 -0.390000 0.234000
DOCKED: USER    NEWDPF tran0 26.083535 -15.258645 0.408294
DOCKED: USER    NEWDPF quaternion0 -0.907911 -0.348250 -0.212204 -0.096895
DOCKED: USER    NEWDPF axisangle0 -0.912203 -0.349897 -0.213207 -168.879204
DOCKED: USER    NEWDPF quat0 -0.912203 -0.349897 -0.213207 -168.879204
DOCKED: USER    NEWDPF dihe0 157.73 111.59 3.69 170.38 -0.00 -27.24 
DOCKED: USER  keepresnum = 1 
DOCKED: USER  
DOCKED: REMARK  Name = 
DOCKED: REMARK  10 active torsions:
DOCKED: REMARK  status: ('A' for Active; 'I' for Inactive)
DOCKED: REMARK    1  A    between atoms: C_1  and  N_2
DOCKED: REMARK    2  A    between atoms: N_2  and  C_3
DOCKED: REMARK    3  A    between atoms: N_2  and  C_22
DOCKED: REMARK    4  A    between atoms: C_6  and  C_9
DOCKED: REMARK    5  A    between atoms: C_9  and  C_10
DOCKED: REMARK    6  A    between atoms: C_10  and  C_11
DOCKED: REMARK    7  A    between atoms: C_10  and  C_20
DOCKED: REMARK    8  A    between atoms: C_12  and  C_13
DOCKED: REMARK    9  A    between atoms: C_12  and  C_19
DOCKED: REMARK   10  A    between atoms: C_14  and  C_15
DOCKED: REMARK                            x       y       z     vdW  Elec       q    Type
DOCKED: REMARK                         _______ _______ _______ _____ _____    ______ ____
DOCKED: USER                              x       y       z     vdW  Elec       q    Type
DOCKED: USER                           _______ _______ _______ _____ _____    ______ ____
DOCKED: ROOT
DOCKED: ATOM      1  C   UNL     1      27.201 -15.701  -0.646 -0.36 -0.00    +0.000 C 
DOCKED: ATOM      2  C   UNL     1      28.205 -16.102  -1.731 -0.30 -0.00    +0.000 C 
DOCKED: ENDROOT
DOCKED: BRANCH   1   3
DOCKED: ATOM      3  C   UNL     1      25.797 -16.089  -1.067 -0.51 -0.00    +0.000 C 
DOCKED: ATOM      4  C   UNL     1      25.199 -17.262  -0.769 -0.65 -0.00    +0.000 C 
DOCKED: ATOM      5  C   UNL     1      25.893 -18.327   0.051 -0.64 -0.00    +0.000 C 
DOCKED: BRANCH   4   6
DOCKED: ATOM      6  C   UNL     1      23.803 -17.466  -1.234 -0.72 -0.00    +0.000 C 
DOCKED: ATOM      7  C   UNL     1      22.917 -18.227  -0.576 -0.83 -0.00    +0.000 C 
DOCKED: BRANCH   7   8
DOCKED: ATOM      8  C   UNL     1      21.525 -18.435  -1.028 -0.76 -0.00    +0.000 C 
DOCKED: ATOM      9  N   UNL     1      21.141 -19.554  -1.836 -0.62 -0.00    +0.000 N 
DOCKED: ATOM     10  O   UNL     1      19.838 -19.757  -2.138 -2.28 -0.00    +0.000 OA
DOCKED: ATOM     11  O   UNL     1      20.656 -17.581  -0.707 -2.15 +0.00    +0.000 OA
DOCKED: ATOM     12  H   UNL     1      21.826 -20.176  -2.173 -0.55 -0.00    +0.000 HD
DOCKED: ENDBRANCH   7   8
DOCKED: ENDBRANCH   4   6
DOCKED: ENDBRANCH   1   3
DOCKED: BRANCH   1  13
DOCKED: ATOM     13  C   UNL     1      27.291 -14.209  -0.390 -0.26 -0.00    +0.000 C 
DOCKED: ATOM     14  O   UNL     1      27.284 -13.416  -1.373 -0.20 -0.00    +0.000 OA
DOCKED: BRANCH  13  18
DOCKED: ATOM     15  C   UNL     1      27.671 -12.624   3.614 -0.30 -0.00    +0.000 A 
DOCKED: ATOM     16  C   UNL     1      27.932 -13.981   3.337 -0.38 -0.00    +0.000 A 
DOCKED: ATOM     17  C   UNL     1      27.805 -14.485   2.041 -0.24 -0.00    +0.000 A 
DOCKED: ATOM     18  C   UNL     1      27.424 -13.648   0.980 -0.25 -0.00    +0.000 A 
DOCKED: ATOM     19  C   UNL     1      27.152 -12.297   1.251 -0.24 -0.00    +0.000 A 
DOCKED: ATOM     20  C   UNL     1      27.276 -11.791   2.548 -0.26 +0.00    +0.000 A 
DOCKED: BRANCH  15  22
DOCKED: ATOM     21  C   UNL     1      28.175 -12.981   6.074 -0.44 -0.00    +0.000 C 
DOCKED: ATOM     22  N   UNL     1      27.803 -12.099   4.961 -0.39 +0.00    +0.000 N 
DOCKED: ATOM     23  C   UNL     1      27.567 -10.675   5.234 -0.37 +0.00    +0.000 C 
DOCKED: ENDBRANCH  15  22
DOCKED: ENDBRANCH  13  18
DOCKED: ENDBRANCH   1  13
DOCKED: TORSDOF 6
DOCKED: TER
DOCKED: ENDMDL
________________________________________________________________________________


	BEGINNING GENETIC ALGORITHM DOCKING 51 of 100
Run: 51 Seed: 438712370 1485127902 [ Run 51 of 100 GA/GALS ]
Beginning LAMARCKIAN GENETIC ALGORITHM (LGA), with a maximum of 2500000 energy evaluations.

Final-Value: -14.056


	FINAL GENETIC ALGORITHM DOCKED STATE
	_______________________________________________


Detailed state:  trans 26.144 -15.703 0.388 quatxyzw 0.887514 0.401886 -0.027736 0.223688 center -0.973 -0.390 0.234 ntor 6 -44.7141 -14.2157 -166.3242 177.7331 -1.9692 -45.6369
State:	 26.144 -15.703   0.388   0.911  0.412 -0.028 154.148    -44.71  -14.22 -166.32  177.73   -1.97  -45.64

DOCKED: MODEL       51
DOCKED: USER    Run = 51
DOCKED: USER    DPF = ligand_dock.biased.dpf
DOCKED: USER  
DOCKED: USER    Estimated Free Energy of Binding    =  -11.12 kcal/mol  [=(1)+(2)+(3)-(4)]
DOCKED: USER    Estimated Inhibition Constant, Ki   =    7.03 nM (nanomolar)  [Temperature = 298.15 K]
DOCKED: USER    
DOCKED: USER    (1) Final Intermolecular Energy     =  -12.91 kcal/mol
DOCKED: USER        vdW + Hbond + desolv Energy     =  -12.91 kcal/mol
DOCKED: USER        Electrostatic Energy            =   +0.00 kcal/mol
DOCKED: USER    (2) Final Total Internal Energy     =   -1.14 kcal/mol
DOCKED: USER    (3) Torsional Free Energy           =   +1.79 kcal/mol
DOCKED: USER    (4) Unbound System's Energy  [=(2)] =   -1.14 kcal/mol
DOCKED: USER    
DOCKED: USER    
DOCKED: USER    NEWDPF move ligand.pdbqt
DOCKED: USER    NEWDPF about -0.973000 -0.390000 0.234000
DOCKED: USER    NEWDPF tran0 26.143529 -15.702575 0.387770
DOCKED: USER    NEWDPF quaternion0 0.887514 0.401886 -0.027736 0.223688
DOCKED: USER    NEWDPF axisangle0 0.910588 0.412334 -0.028457 154.148485
DOCKED: USER    NEWDPF quat0 0.910588 0.412334 -0.028457 154.148485
DOCKED: USER    NEWDPF dihe0 -44.71 -14.22 -166.32 177.73 -1.97 -45.64 
DOCKED: USER  keepresnum = 1 
DOCKED: USER  
DOCKED: REMARK  Name = 
DOCKED: REMARK  10 active torsions:
DOCKED: REMARK  status: ('A' for Active; 'I' for Inactive)
DOCKED: REMARK    1  A    between atoms: C_1  and  N_2
DOCKED: REMARK    2  A    between atoms: N_2  and  C_3
DOCKED: REMARK    3  A    between atoms: N_2  and  C_22
DOCKED: REMARK    4  A    between atoms: C_6  and  C_9
DOCKED: REMARK    5  A    between atoms: C_9  and  C_10
DOCKED: REMARK    6  A    between atoms: C_10  and  C_11
DOCKED: REMARK    7  A    between atoms: C_10  and  C_20
DOCKED: REMARK    8  A    between atoms: C_12  and  C_13
DOCKED: REMARK    9  A    between atoms: C_12  and  C_19
DOCKED: REMARK   10  A    between atoms: C_14  and  C_15
DOCKED: REMARK                            x       y       z     vdW  Elec       q    Type
DOCKED: REMARK                         _______ _______ _______ _____ _____    ______ ____
DOCKED: USER                              x       y       z     vdW  Elec       q    Type
DOCKED: USER                           _______ _______ _______ _____ _____    ______ ____
DOCKED: ROOT
DOCKED: ATOM      1  C   UNL     1      26.662 -15.906  -1.111 -0.42 -0.00    +0.000 C 
DOCKED: ATOM      2  C   UNL     1      27.060 -16.094  -2.578 -0.36 -0.00    +0.000 C 
DOCKED: ENDROOT
DOCKED: BRANCH   1   3
DOCKED: ATOM      3  C   UNL     1      25.337 -16.591  -0.840 -0.56 -0.00    +0.000 C 
DOCKED: ATOM      4  C   UNL     1      25.199 -17.874  -0.441 -0.70 -0.00    +0.000 C 
DOCKED: ATOM      5  C   UNL     1      26.394 -18.771  -0.208 -0.47 -0.00    +0.000 C 
DOCKED: BRANCH   4   6
DOCKED: ATOM      6  C   UNL     1      23.824 -18.377  -0.189 -0.73 -0.00    +0.000 C 
DOCKED: ATOM      7  C   UNL     1      22.778 -18.068  -0.968 -0.80 -0.00    +0.000 C 
DOCKED: BRANCH   7   8
DOCKED: ATOM      8  C   UNL     1      21.407 -18.566  -0.729 -0.86 -0.00    +0.000 C 
DOCKED: ATOM      9  N   UNL     1      21.147 -19.847  -0.144 -0.66 -0.00    +0.000 N 
DOCKED: ATOM     10  O   UNL     1      19.879 -20.214   0.150 -1.09 -0.00    +0.000 OA
DOCKED: ATOM     11  O   UNL     1      20.437 -17.841  -1.077 -2.19 -0.00    +0.000 OA
DOCKED: ATOM     12  H   UNL     1      21.894 -20.462   0.045 -0.58 -0.00    +0.000 HD
DOCKED: ENDBRANCH   7   8
DOCKED: ENDBRANCH   4   6
DOCKED: ENDBRANCH   1   3
DOCKED: BRANCH   1  13
DOCKED: ATOM     13  C   UNL     1      26.577 -14.427  -0.788 -0.32 -0.00    +0.000 C 
DOCKED: ATOM     14  O   UNL     1      26.258 -13.616  -1.702 -0.24 -0.00    +0.000 OA
DOCKED: BRANCH  13  18
DOCKED: ATOM     15  C   UNL     1      27.504 -12.920   3.157 -0.31 -0.00    +0.000 A 
DOCKED: ATOM     16  C   UNL     1      28.031 -14.144   2.699 -0.31 -0.00    +0.000 A 
DOCKED: ATOM     17  C   UNL     1      27.725 -14.624   1.424 -0.22 -0.00    +0.000 A 
DOCKED: ATOM     18  C   UNL     1      26.891 -13.893   0.563 -0.26 -0.00    +0.000 A 
DOCKED: ATOM     19  C   UNL     1      26.353 -12.677   1.017 -0.31 -0.00    +0.000 A 
DOCKED: ATOM     20  C   UNL     1      26.656 -12.196   2.294 -0.28 +0.00    +0.000 A 
DOCKED: BRANCH  15  22
DOCKED: ATOM     21  C   UNL     1      27.741 -10.984   4.778 -0.38 +0.00    +0.000 C 
DOCKED: ATOM     22  N   UNL     1      27.821 -12.420   4.483 -0.36 +0.00    +0.000 N 
DOCKED: ATOM     23  C   UNL     1      28.227 -13.342   5.551 -0.48 -0.00    +0.000 C 
DOCKED: ENDBRANCH  15  22
DOCKED: ENDBRANCH  13  18
DOCKED: ENDBRANCH   1  13
DOCKED: TORSDOF 6
DOCKED: TER
DOCKED: ENDMDL
________________________________________________________________________________


	BEGINNING GENETIC ALGORITHM DOCKING 52 of 100
Run: 52 Seed: 1396938839 1499295044 [ Run 52 of 100 GA/GALS ]
Beginning LAMARCKIAN GENETIC ALGORITHM (LGA), with a maximum of 2500000 energy evaluations.

Final-Value: -13.865


	FINAL GENETIC ALGORITHM DOCKED STATE
	_______________________________________________


Detailed state:  trans 25.153 -14.778 -2.971 quatxyzw -0.728240 -0.481987 -0.046987 0.484919 center -0.973 -0.390 0.234 ntor 6 139.9433 88.9993 36.2666 -113.7383 -37.2977 -31.5063
State:	 25.153 -14.778  -2.971  -0.833 -0.551 -0.054 121.986    139.94   89.00   36.27 -113.74  -37.30  -31.51

DOCKED: MODEL       52
DOCKED: USER    Run = 52
DOCKED: USER    DPF = ligand_dock.biased.dpf
DOCKED: USER  
DOCKED: USER    Estimated Free Energy of Binding    =  -11.21 kcal/mol  [=(1)+(2)+(3)-(4)]
DOCKED: USER    Estimated Inhibition Constant, Ki   =    6.08 nM (nanomolar)  [Temperature = 298.15 K]
DOCKED: USER    
DOCKED: USER    (1) Final Intermolecular Energy     =  -13.00 kcal/mol
DOCKED: USER        vdW + Hbond + desolv Energy     =  -13.00 kcal/mol
DOCKED: USER        Electrostatic Energy            =   +0.00 kcal/mol
DOCKED: USER    (2) Final Total Internal Energy     =   -0.87 kcal/mol
DOCKED: USER    (3) Torsional Free Energy           =   +1.79 kcal/mol
DOCKED: USER    (4) Unbound System's Energy  [=(2)] =   -0.87 kcal/mol
DOCKED: USER    
DOCKED: USER    
DOCKED: USER    NEWDPF move ligand.pdbqt
DOCKED: USER    NEWDPF about -0.973000 -0.390000 0.234000
DOCKED: USER    NEWDPF tran0 25.152816 -14.777646 -2.970619
DOCKED: USER    NEWDPF quaternion0 -0.728240 -0.481987 -0.046987 0.484919
DOCKED: USER    NEWDPF axisangle0 -0.832694 -0.551120 -0.053727 121.985614
DOCKED: USER    NEWDPF quat0 -0.832694 -0.551120 -0.053727 121.985614
DOCKED: USER    NEWDPF dihe0 139.94 89.00 36.27 -113.74 -37.30 -31.51 
DOCKED: USER  keepresnum = 1 
DOCKED: USER  
DOCKED: REMARK  Name = 
DOCKED: REMARK  10 active torsions:
DOCKED: REMARK  status: ('A' for Active; 'I' for Inactive)
DOCKED: REMARK    1  A    between atoms: C_1  and  N_2
DOCKED: REMARK    2  A    between atoms: N_2  and  C_3
DOCKED: REMARK    3  A    between atoms: N_2  and  C_22
DOCKED: REMARK    4  A    between atoms: C_6  and  C_9
DOCKED: REMARK    5  A    between atoms: C_9  and  C_10
DOCKED: REMARK    6  A    between atoms: C_10  and  C_11
DOCKED: REMARK    7  A    between atoms: C_10  and  C_20
DOCKED: REMARK    8  A    between atoms: C_12  and  C_13
DOCKED: REMARK    9  A    between atoms: C_12  and  C_19
DOCKED: REMARK   10  A    between atoms: C_14  and  C_15
DOCKED: REMARK                            x       y       z     vdW  Elec       q    Type
DOCKED: REMARK                         _______ _______ _______ _____ _____    ______ ____
DOCKED: USER                              x       y       z     vdW  Elec       q    Type
DOCKED: USER                           _______ _______ _______ _____ _____    ______ ____
DOCKED: ROOT
DOCKED: ATOM      1  C   UNL     1      26.502 -15.606  -2.745 -0.45 -0.00    +0.000 C 
DOCKED: ATOM      2  C   UNL     1      27.748 -16.480  -2.575 -0.26 -0.00    +0.000 C 
DOCKED: ENDROOT
DOCKED: BRANCH   1   3
DOCKED: ATOM      3  C   UNL     1      25.251 -16.448  -2.586 -0.53 -0.00    +0.000 C 
DOCKED: ATOM      4  C   UNL     1      24.977 -17.229  -1.520 -0.66 -0.00    +0.000 C 
DOCKED: ATOM      5  C   UNL     1      25.918 -17.329  -0.339 -0.60 -0.00    +0.000 C 
DOCKED: BRANCH   4   6
DOCKED: ATOM      6  C   UNL     1      23.686 -17.965  -1.512 -0.72 -0.00    +0.000 C 
DOCKED: ATOM      7  C   UNL     1      22.729 -17.753  -0.598 -0.80 -0.00    +0.000 C 
DOCKED: BRANCH   7   8
DOCKED: ATOM      8  C   UNL     1      21.441 -18.477  -0.583 -0.83 -0.00    +0.000 C 
DOCKED: ATOM      9  N   UNL     1      21.342 -19.859  -0.219 -0.62 -0.00    +0.000 N 
DOCKED: ATOM     10  O   UNL     1      20.129 -20.449  -0.120 -1.23 -0.00    +0.000 OA
DOCKED: ATOM     11  O   UNL     1      20.400 -17.856  -0.927 -2.22 -0.00    +0.000 OA
DOCKED: ATOM     12  H   UNL     1      22.159 -20.380  -0.041 -0.52 -0.00    +0.000 HD
DOCKED: ENDBRANCH   7   8
DOCKED: ENDBRANCH   4   6
DOCKED: ENDBRANCH   1   3
DOCKED: BRANCH   1  13
DOCKED: ATOM     13  C   UNL     1      26.527 -14.934  -4.104 -0.51 -0.00    +0.000 C 
DOCKED: ATOM     14  O   UNL     1      26.853 -15.612  -5.118 -1.08 +0.00    +0.000 OA
DOCKED: BRANCH  13  18
DOCKED: ATOM     15  C   UNL     1      25.664 -10.726  -4.591 -0.28 -0.00    +0.000 A 
DOCKED: ATOM     16  C   UNL     1      26.983 -11.185  -4.403 -0.15 -0.00    +0.000 A 
DOCKED: ATOM     17  C   UNL     1      27.253 -12.546  -4.244 -0.19 -0.00    +0.000 A 
DOCKED: ATOM     18  C   UNL     1      26.215 -13.491  -4.279 -0.35 -0.00    +0.000 A 
DOCKED: ATOM     19  C   UNL     1      24.897 -13.040  -4.456 -0.16 -0.00    +0.000 A 
DOCKED: ATOM     20  C   UNL     1      24.625 -11.678  -4.612 -0.13 -0.00    +0.000 A 
DOCKED: BRANCH  15  22
DOCKED: ATOM     21  C   UNL     1      26.353  -8.300  -4.319 -0.11 -0.00    +0.000 C 
DOCKED: ATOM     22  N   UNL     1      25.383  -9.311  -4.757 -0.22 -0.00    +0.000 N 
DOCKED: ATOM     23  C   UNL     1      24.122  -8.866  -5.365 -0.37 -0.00    +0.000 C 
DOCKED: ENDBRANCH  15  22
DOCKED: ENDBRANCH  13  18
DOCKED: ENDBRANCH   1  13
DOCKED: TORSDOF 6
DOCKED: TER
DOCKED: ENDMDL
________________________________________________________________________________


	BEGINNING GENETIC ALGORITHM DOCKING 53 of 100
Run: 53 Seed: 1534740432 1221982581 [ Run 53 of 100 GA/GALS ]
Beginning LAMARCKIAN GENETIC ALGORITHM (LGA), with a maximum of 2500000 energy evaluations.

Final-Value: -14.382


	FINAL GENETIC ALGORITHM DOCKED STATE
	_______________________________________________


Detailed state:  trans 26.022 -15.853 -0.974 quatxyzw -0.868212 -0.375139 -0.030951 -0.323297 center -0.973 -0.390 0.234 ntor 6 116.2794 131.8965 3.0142 9.8965 50.1322 -47.2066
State:	 26.022 -15.853  -0.974  -0.917 -0.396 -0.033 -142.275    116.28  131.90    3.01    9.90   50.13  -47.21

DOCKED: MODEL       53
DOCKED: USER    Run = 53
DOCKED: USER    DPF = ligand_dock.biased.dpf
DOCKED: USER  
DOCKED: USER    Estimated Free Energy of Binding    =  -11.32 kcal/mol  [=(1)+(2)+(3)-(4)]
DOCKED: USER    Estimated Inhibition Constant, Ki   =    5.03 nM (nanomolar)  [Temperature = 298.15 K]
DOCKED: USER    
DOCKED: USER    (1) Final Intermolecular Energy     =  -13.11 kcal/mol
DOCKED: USER        vdW + Hbond + desolv Energy     =  -13.11 kcal/mol
DOCKED: USER        Electrostatic Energy            =   +0.00 kcal/mol
DOCKED: USER    (2) Final Total Internal Energy     =   -1.27 kcal/mol
DOCKED: USER    (3) Torsional Free Energy           =   +1.79 kcal/mol
DOCKED: USER    (4) Unbound System's Energy  [=(2)] =   -1.27 kcal/mol
DOCKED: USER    
DOCKED: USER    
DOCKED: USER    NEWDPF move ligand.pdbqt
DOCKED: USER    NEWDPF about -0.973000 -0.390000 0.234000
DOCKED: USER    NEWDPF tran0 26.021604 -15.852694 -0.973833
DOCKED: USER    NEWDPF quaternion0 -0.868212 -0.375139 -0.030951 -0.323297
DOCKED: USER    NEWDPF axisangle0 -0.917483 -0.396429 -0.032708 -142.275135
DOCKED: USER    NEWDPF quat0 -0.917483 -0.396429 -0.032708 -142.275135
DOCKED: USER    NEWDPF dihe0 116.28 131.90 3.01 9.90 50.13 -47.21 
DOCKED: USER  keepresnum = 1 
DOCKED: USER  
DOCKED: REMARK  Name = 
DOCKED: REMARK  10 active torsions:
DOCKED: REMARK  status: ('A' for Active; 'I' for Inactive)
DOCKED: REMARK    1  A    between atoms: C_1  and  N_2
DOCKED: REMARK    2  A    between atoms: N_2  and  C_3
DOCKED: REMARK    3  A    between atoms: N_2  and  C_22
DOCKED: REMARK    4  A    between atoms: C_6  and  C_9
DOCKED: REMARK    5  A    between atoms: C_9  and  C_10
DOCKED: REMARK    6  A    between atoms: C_10  and  C_11
DOCKED: REMARK    7  A    between atoms: C_10  and  C_20
DOCKED: REMARK    8  A    between atoms: C_12  and  C_13
DOCKED: REMARK    9  A    between atoms: C_12  and  C_19
DOCKED: REMARK   10  A    between atoms: C_14  and  C_15
DOCKED: REMARK                            x       y       z     vdW  Elec       q    Type
DOCKED: REMARK                         _______ _______ _______ _____ _____    ______ ____
DOCKED: USER                              x       y       z     vdW  Elec       q    Type
DOCKED: USER                           _______ _______ _______ _____ _____    ______ ____
DOCKED: ROOT
DOCKED: ATOM      1  C   UNL     1      26.554 -15.740  -2.478 -0.43 -0.00    +0.000 C 
DOCKED: ATOM      2  C   UNL     1      26.967 -15.612  -3.947 -0.41 -0.00    +0.000 C 
DOCKED: ENDROOT
DOCKED: BRANCH   1   3
DOCKED: ATOM      3  C   UNL     1      25.184 -16.382  -2.376 -0.56 -0.00    +0.000 C 
DOCKED: ATOM      4  C   UNL     1      24.816 -17.270  -1.427 -0.67 -0.00    +0.000 C 
DOCKED: ATOM      5  C   UNL     1      25.765 -17.710  -0.334 -0.65 -0.00    +0.000 C 
DOCKED: BRANCH   4   6
DOCKED: ATOM      6  C   UNL     1      23.421 -17.778  -1.456 -0.69 -0.00    +0.000 C 
DOCKED: ATOM      7  C   UNL     1      22.758 -18.159  -0.355 -0.82 -0.00    +0.000 C 
DOCKED: BRANCH   7   8
DOCKED: ATOM      8  C   UNL     1      21.369 -18.663  -0.372 -0.82 -0.00    +0.000 C 
DOCKED: ATOM      9  N   UNL     1      21.039 -20.012  -0.019 -0.64 -0.00    +0.000 N 
DOCKED: ATOM     10  O   UNL     1      19.744 -20.397   0.050 -1.17 -0.00    +0.000 OA
DOCKED: ATOM     11  O   UNL     1      20.451 -17.880  -0.734 -2.27 -0.00    +0.000 OA
DOCKED: ATOM     12  H   UNL     1      21.755 -20.660   0.174 -0.58 -0.00    +0.000 HD
DOCKED: ENDBRANCH   7   8
DOCKED: ENDBRANCH   4   6
DOCKED: ENDBRANCH   1   3
DOCKED: BRANCH   1  13
DOCKED: ATOM     13  C   UNL     1      26.555 -14.372  -1.823 -0.31 -0.00    +0.000 C 
DOCKED: ATOM     14  O   UNL     1      26.333 -13.352  -2.534 -0.25 -0.00    +0.000 OA
DOCKED: BRANCH  13  18
DOCKED: ATOM     15  C   UNL     1      27.376 -13.784   2.380 -0.29 -0.00    +0.000 A 
DOCKED: ATOM     16  C   UNL     1      26.426 -12.994   1.703 -0.28 -0.00    +0.000 A 
DOCKED: ATOM     17  C   UNL     1      26.168 -13.190   0.345 -0.25 -0.00    +0.000 A 
DOCKED: ATOM     18  C   UNL     1      26.843 -14.187  -0.377 -0.26 -0.00    +0.000 A 
DOCKED: ATOM     19  C   UNL     1      27.800 -14.970   0.289 -0.25 -0.00    +0.000 A 
DOCKED: ATOM     20  C   UNL     1      28.061 -14.774   1.648 -0.10 -0.00    +0.000 A 
DOCKED: BRANCH  15  22
DOCKED: ATOM     21  C   UNL     1      27.778 -12.226   4.341 -0.36 +0.00    +0.000 C 
DOCKED: ATOM     22  N   UNL     1      27.645 -13.582   3.793 -0.43 -0.00    +0.000 N 
DOCKED: ATOM     23  C   UNL     1      27.787 -14.730   4.698 -0.60 -0.00    +0.000 C 
DOCKED: ENDBRANCH  15  22
DOCKED: ENDBRANCH  13  18
DOCKED: ENDBRANCH   1  13
DOCKED: TORSDOF 6
DOCKED: TER
DOCKED: ENDMDL
________________________________________________________________________________


	BEGINNING GENETIC ALGORITHM DOCKING 54 of 100
Run: 54 Seed: 1325459962 1334920306 [ Run 54 of 100 GA/GALS ]
Beginning LAMARCKIAN GENETIC ALGORITHM (LGA), with a maximum of 2500000 energy evaluations.

Final-Value: -14.859


	FINAL GENETIC ALGORITHM DOCKED STATE
	_______________________________________________


Detailed state:  trans 26.276 -15.837 -0.279 quatxyzw -0.853317 -0.443030 -0.095571 -0.257760 center -0.973 -0.390 0.234 ntor 6 -45.7023 28.7982 75.0517 177.3712 32.9069 -32.4229
State:	 26.276 -15.837  -0.279  -0.883 -0.459 -0.099 -150.126    -45.70   28.80   75.05  177.37   32.91  -32.42

DOCKED: MODEL       54
DOCKED: USER    Run = 54
DOCKED: USER    DPF = ligand_dock.biased.dpf
DOCKED: USER  
DOCKED: USER    Estimated Free Energy of Binding    =  -11.85 kcal/mol  [=(1)+(2)+(3)-(4)]
DOCKED: USER    Estimated Inhibition Constant, Ki   =    2.05 nM (nanomolar)  [Temperature = 298.15 K]
DOCKED: USER    
DOCKED: USER    (1) Final Intermolecular Energy     =  -13.64 kcal/mol
DOCKED: USER        vdW + Hbond + desolv Energy     =  -13.64 kcal/mol
DOCKED: USER        Electrostatic Energy            =   +0.00 kcal/mol
DOCKED: USER    (2) Final Total Internal Energy     =   -1.22 kcal/mol
DOCKED: USER    (3) Torsional Free Energy           =   +1.79 kcal/mol
DOCKED: USER    (4) Unbound System's Energy  [=(2)] =   -1.22 kcal/mol
DOCKED: USER    
DOCKED: USER    
DOCKED: USER    NEWDPF move ligand.pdbqt
DOCKED: USER    NEWDPF about -0.973000 -0.390000 0.234000
DOCKED: USER    NEWDPF tran0 26.275821 -15.836844 -0.279453
DOCKED: USER    NEWDPF quaternion0 -0.853317 -0.443030 -0.095571 -0.257760
DOCKED: USER    NEWDPF axisangle0 -0.883160 -0.458524 -0.098913 -150.125642
DOCKED: USER    NEWDPF quat0 -0.883160 -0.458524 -0.098913 -150.125642
DOCKED: USER    NEWDPF dihe0 -45.70 28.80 75.05 177.37 32.91 -32.42 
DOCKED: USER  keepresnum = 1 
DOCKED: USER  
DOCKED: REMARK  Name = 
DOCKED: REMARK  10 active torsions:
DOCKED: REMARK  status: ('A' for Active; 'I' for Inactive)
DOCKED: REMARK    1  A    between atoms: C_1  and  N_2
DOCKED: REMARK    2  A    between atoms: N_2  and  C_3
DOCKED: REMARK    3  A    between atoms: N_2  and  C_22
DOCKED: REMARK    4  A    between atoms: C_6  and  C_9
DOCKED: REMARK    5  A    between atoms: C_9  and  C_10
DOCKED: REMARK    6  A    between atoms: C_10  and  C_11
DOCKED: REMARK    7  A    between atoms: C_10  and  C_20
DOCKED: REMARK    8  A    between atoms: C_12  and  C_13
DOCKED: REMARK    9  A    between atoms: C_12  and  C_19
DOCKED: REMARK   10  A    between atoms: C_14  and  C_15
DOCKED: REMARK                            x       y       z     vdW  Elec       q    Type
DOCKED: REMARK                         _______ _______ _______ _____ _____    ______ ____
DOCKED: USER                              x       y       z     vdW  Elec       q    Type
DOCKED: USER                           _______ _______ _______ _____ _____    ______ ____
DOCKED: ROOT
DOCKED: ATOM      1  C   UNL     1      27.098 -15.754  -1.649 -0.36 -0.00    +0.000 C 
DOCKED: ATOM      2  C   UNL     1      27.795 -15.665  -3.009 -0.31 -0.00    +0.000 C 
DOCKED: ENDROOT
DOCKED: BRANCH   1   3
DOCKED: ATOM      3  C   UNL     1      25.790 -16.509  -1.783 -0.56 -0.00    +0.000 C 
DOCKED: ATOM      4  C   UNL     1      25.452 -17.601  -1.063 -0.65 -0.00    +0.000 C 
DOCKED: ATOM      5  C   UNL     1      26.373 -18.182  -0.013 -0.62 -0.00    +0.000 C 
DOCKED: BRANCH   4   6
DOCKED: ATOM      6  C   UNL     1      24.114 -18.200  -1.300 -0.76 -0.00    +0.000 C 
DOCKED: ATOM      7  C   UNL     1      22.984 -17.689  -0.792 -0.78 -0.00    +0.000 C 
DOCKED: BRANCH   7   8
DOCKED: ATOM      8  C   UNL     1      21.647 -18.275  -1.023 -0.74 -0.00    +0.000 C 
DOCKED: ATOM      9  N   UNL     1      21.467 -19.566  -1.616 -0.58 -0.00    +0.000 N 
DOCKED: ATOM     10  O   UNL     1      20.229 -20.103  -1.712 -2.25 -0.00    +0.000 OA
DOCKED: ATOM     11  O   UNL     1      20.632 -17.597  -0.707 -2.16 +0.00    +0.000 OA
DOCKED: ATOM     12  H   UNL     1      22.247 -20.065  -1.954 -0.49 -0.00    +0.000 HD
DOCKED: ENDBRANCH   7   8
DOCKED: ENDBRANCH   4   6
DOCKED: ENDBRANCH   1   3
DOCKED: BRANCH   1  13
DOCKED: ATOM     13  C   UNL     1      26.859 -14.360  -1.102 -0.29 -0.00    +0.000 C 
DOCKED: ATOM     14  O   UNL     1      26.436 -13.460  -1.881 -0.22 -0.00    +0.000 OA
DOCKED: BRANCH  13  18
DOCKED: ATOM     15  C   UNL     1      27.692 -13.377   3.024 -0.32 -0.00    +0.000 A 
DOCKED: ATOM     16  C   UNL     1      28.335 -14.456   2.385 -0.20 -0.00    +0.000 A 
DOCKED: ATOM     17  C   UNL     1      28.059 -14.767   1.052 -0.21 -0.00    +0.000 A 
DOCKED: ATOM     18  C   UNL     1      27.139 -14.006   0.314 -0.25 -0.00    +0.000 A 
DOCKED: ATOM     19  C   UNL     1      26.486 -12.936   0.948 -0.30 -0.00    +0.000 A 
DOCKED: ATOM     20  C   UNL     1      26.760 -12.624   2.282 -0.29 -0.00    +0.000 A 
DOCKED: BRANCH  15  22
DOCKED: ATOM     21  C   UNL     1      27.776 -11.689   4.915 -0.39 +0.00    +0.000 C 
DOCKED: ATOM     22  N   UNL     1      27.979 -13.052   4.410 -0.39 -0.00    +0.000 N 
DOCKED: ATOM     23  C   UNL     1      28.475 -14.082   5.332 -0.51 -0.00    +0.000 C 
DOCKED: ENDBRANCH  15  22
DOCKED: ENDBRANCH  13  18
DOCKED: ENDBRANCH   1  13
DOCKED: TORSDOF 6
DOCKED: TER
DOCKED: ENDMDL
________________________________________________________________________________


	BEGINNING GENETIC ALGORITHM DOCKING 55 of 100
Run: 55 Seed: 769301156 1713006257 [ Run 55 of 100 GA/GALS ]
Beginning LAMARCKIAN GENETIC ALGORITHM (LGA), with a maximum of 2500000 energy evaluations.

Final-Value: -14.309


	FINAL GENETIC ALGORITHM DOCKED STATE
	_______________________________________________


Detailed state:  trans 26.703 -15.492 -0.343 quatxyzw -0.928808 -0.289280 -0.090308 -0.213253 center -0.973 -0.390 0.234 ntor 6 87.6713 166.9976 -63.9845 -126.6347 27.2702 -54.0427
State:	 26.703 -15.492  -0.343  -0.951 -0.296 -0.092 -155.374     87.67  167.00  -63.98 -126.63   27.27  -54.04

DOCKED: MODEL       55
DOCKED: USER    Run = 55
DOCKED: USER    DPF = ligand_dock.biased.dpf
DOCKED: USER  
DOCKED: USER    Estimated Free Energy of Binding    =  -11.34 kcal/mol  [=(1)+(2)+(3)-(4)]
DOCKED: USER    Estimated Inhibition Constant, Ki   =    4.90 nM (nanomolar)  [Temperature = 298.15 K]
DOCKED: USER    
DOCKED: USER    (1) Final Intermolecular Energy     =  -13.13 kcal/mol
DOCKED: USER        vdW + Hbond + desolv Energy     =  -13.13 kcal/mol
DOCKED: USER        Electrostatic Energy            =   +0.00 kcal/mol
DOCKED: USER    (2) Final Total Internal Energy     =   -1.18 kcal/mol
DOCKED: USER    (3) Torsional Free Energy           =   +1.79 kcal/mol
DOCKED: USER    (4) Unbound System's Energy  [=(2)] =   -1.18 kcal/mol
DOCKED: USER    
DOCKED: USER    
DOCKED: USER    NEWDPF move ligand.pdbqt
DOCKED: USER    NEWDPF about -0.973000 -0.390000 0.234000
DOCKED: USER    NEWDPF tran0 26.703030 -15.491709 -0.342962
DOCKED: USER    NEWDPF quaternion0 -0.928808 -0.289280 -0.090308 -0.213253
DOCKED: USER    NEWDPF axisangle0 -0.950677 -0.296091 -0.092434 -155.373896
DOCKED: USER    NEWDPF quat0 -0.950677 -0.296091 -0.092434 -155.373896
DOCKED: USER    NEWDPF dihe0 87.67 167.00 -63.98 -126.63 27.27 -54.04 
DOCKED: USER  keepresnum = 1 
DOCKED: USER  
DOCKED: REMARK  Name = 
DOCKED: REMARK  10 active torsions:
DOCKED: REMARK  status: ('A' for Active; 'I' for Inactive)
DOCKED: REMARK    1  A    between atoms: C_1  and  N_2
DOCKED: REMARK    2  A    between atoms: N_2  and  C_3
DOCKED: REMARK    3  A    between atoms: N_2  and  C_22
DOCKED: REMARK    4  A    between atoms: C_6  and  C_9
DOCKED: REMARK    5  A    between atoms: C_9  and  C_10
DOCKED: REMARK    6  A    between atoms: C_10  and  C_11
DOCKED: REMARK    7  A    between atoms: C_10  and  C_20
DOCKED: REMARK    8  A    between atoms: C_12  and  C_13
DOCKED: REMARK    9  A    between atoms: C_12  and  C_19
DOCKED: REMARK   10  A    between atoms: C_14  and  C_15
DOCKED: REMARK                            x       y       z     vdW  Elec       q    Type
DOCKED: REMARK                         _______ _______ _______ _____ _____    ______ ____
DOCKED: USER                              x       y       z     vdW  Elec       q    Type
DOCKED: USER                           _______ _______ _______ _____ _____    ______ ____
DOCKED: ROOT
DOCKED: ATOM      1  C   UNL     1      27.399 -15.794  -1.751 -0.33 -0.00    +0.000 C 
DOCKED: ATOM      2  C   UNL     1      27.979 -16.049  -3.145 -0.27 -0.00    +0.000 C 
DOCKED: ENDROOT
DOCKED: BRANCH   1   3
DOCKED: ATOM      3  C   UNL     1      25.909 -16.080  -1.747 -0.52 -0.00    +0.000 C 
DOCKED: ATOM      4  C   UNL     1      25.304 -17.014  -0.983 -0.63 -0.00    +0.000 C 
DOCKED: ATOM      5  C   UNL     1      26.081 -17.883  -0.019 -0.63 -0.00    +0.000 C 
DOCKED: BRANCH   4   6
DOCKED: ATOM      6  C   UNL     1      23.828 -17.140  -1.081 -0.70 -0.00    +0.000 C 
DOCKED: ATOM      7  C   UNL     1      23.189 -18.318  -1.028 -0.81 -0.00    +0.000 C 
DOCKED: BRANCH   7   8
DOCKED: ATOM      8  C   UNL     1      21.721 -18.455  -1.122 -0.71 -0.00    +0.000 C 
DOCKED: ATOM      9  N   UNL     1      21.093 -19.610  -1.692 -0.68 -0.00    +0.000 N 
DOCKED: ATOM     10  O   UNL     1      19.746 -19.735  -1.661 -2.26 -0.00    +0.000 OA
DOCKED: ATOM     11  O   UNL     1      21.002 -17.507  -0.707 -2.08 -0.00    +0.000 OA
DOCKED: ATOM     12  H   UNL     1      21.643 -20.314  -2.107 -0.52 -0.00    +0.000 HD
DOCKED: ENDBRANCH   7   8
DOCKED: ENDBRANCH   4   6
DOCKED: ENDBRANCH   1   3
DOCKED: BRANCH   1  13
DOCKED: ATOM     13  C   UNL     1      27.671 -14.362  -1.335 -0.21 -0.00    +0.000 C 
DOCKED: ATOM     14  O   UNL     1      27.913 -13.500  -2.226 -0.14 -0.00    +0.000 OA
DOCKED: BRANCH  13  18
DOCKED: ATOM     15  C   UNL     1      27.789 -13.178   2.821 -0.29 -0.00    +0.000 A 
DOCKED: ATOM     16  C   UNL     1      28.885 -13.821   2.213 -0.20 -0.00    +0.000 A 
DOCKED: ATOM     17  C   UNL     1      28.838 -14.202   0.870 -0.16 -0.00    +0.000 A 
DOCKED: ATOM     18  C   UNL     1      27.699 -13.943   0.091 -0.20 -0.00    +0.000 A 
DOCKED: ATOM     19  C   UNL     1      26.598 -13.313   0.694 -0.29 -0.00    +0.000 A 
DOCKED: ATOM     20  C   UNL     1      26.643 -12.933   2.038 -0.30 -0.00    +0.000 A 
DOCKED: BRANCH  15  22
DOCKED: ATOM     21  C   UNL     1      27.778 -13.790   5.283 -0.48 -0.00    +0.000 C 
DOCKED: ATOM     22  N   UNL     1      27.837 -12.782   4.217 -0.37 -0.00    +0.000 N 
DOCKED: ATOM     23  C   UNL     1      27.945 -11.365   4.588 -0.35 +0.00    +0.000 C 
DOCKED: ENDBRANCH  15  22
DOCKED: ENDBRANCH  13  18
DOCKED: ENDBRANCH   1  13
DOCKED: TORSDOF 6
DOCKED: TER
DOCKED: ENDMDL
________________________________________________________________________________


	BEGINNING GENETIC ALGORITHM DOCKING 56 of 100
Run: 56 Seed: 1607880505 1113556007 [ Run 56 of 100 GA/GALS ]
Beginning LAMARCKIAN GENETIC ALGORITHM (LGA), with a maximum of 2500000 energy evaluations.

Final-Value: -13.437


	FINAL GENETIC ALGORITHM DOCKED STATE
	_______________________________________________


Detailed state:  trans 25.974 -15.265 -2.479 quatxyzw -0.512764 -0.250172 -0.068472 0.818412 center -0.973 -0.390 0.234 ntor 6 -40.9027 118.6752 54.9103 173.1692 -135.9441 -44.3906
State:	 25.974 -15.265  -2.479  -0.892 -0.435 -0.119 70.148    -40.90  118.68   54.91  173.17 -135.94  -44.39

DOCKED: MODEL       56
DOCKED: USER    Run = 56
DOCKED: USER    DPF = ligand_dock.biased.dpf
DOCKED: USER  
DOCKED: USER    Estimated Free Energy of Binding    =  -10.89 kcal/mol  [=(1)+(2)+(3)-(4)]
DOCKED: USER    Estimated Inhibition Constant, Ki   =   10.44 nM (nanomolar)  [Temperature = 298.15 K]
DOCKED: USER    
DOCKED: USER    (1) Final Intermolecular Energy     =  -12.68 kcal/mol
DOCKED: USER        vdW + Hbond + desolv Energy     =  -12.68 kcal/mol
DOCKED: USER        Electrostatic Energy            =   +0.00 kcal/mol
DOCKED: USER    (2) Final Total Internal Energy     =   -0.76 kcal/mol
DOCKED: USER    (3) Torsional Free Energy           =   +1.79 kcal/mol
DOCKED: USER    (4) Unbound System's Energy  [=(2)] =   -0.76 kcal/mol
DOCKED: USER    
DOCKED: USER    
DOCKED: USER    NEWDPF move ligand.pdbqt
DOCKED: USER    NEWDPF about -0.973000 -0.390000 0.234000
DOCKED: USER    NEWDPF tran0 25.974182 -15.265482 -2.479006
DOCKED: USER    NEWDPF quaternion0 -0.512764 -0.250172 -0.068472 0.818412
DOCKED: USER    NEWDPF axisangle0 -0.892336 -0.435360 -0.119158 70.147620
DOCKED: USER    NEWDPF quat0 -0.892336 -0.435360 -0.119158 70.147620
DOCKED: USER    NEWDPF dihe0 -40.90 118.68 54.91 173.17 -135.94 -44.39 
DOCKED: USER  keepresnum = 1 
DOCKED: USER  
DOCKED: REMARK  Name = 
DOCKED: REMARK  10 active torsions:
DOCKED: REMARK  status: ('A' for Active; 'I' for Inactive)
DOCKED: REMARK    1  A    between atoms: C_1  and  N_2
DOCKED: REMARK    2  A    between atoms: N_2  and  C_3
DOCKED: REMARK    3  A    between atoms: N_2  and  C_22
DOCKED: REMARK    4  A    between atoms: C_6  and  C_9
DOCKED: REMARK    5  A    between atoms: C_9  and  C_10
DOCKED: REMARK    6  A    between atoms: C_10  and  C_11
DOCKED: REMARK    7  A    between atoms: C_10  and  C_20
DOCKED: REMARK    8  A    between atoms: C_12  and  C_13
DOCKED: REMARK    9  A    between atoms: C_12  and  C_19
DOCKED: REMARK   10  A    between atoms: C_14  and  C_15
DOCKED: REMARK                            x       y       z     vdW  Elec       q    Type
DOCKED: REMARK                         _______ _______ _______ _____ _____    ______ ____
DOCKED: USER                              x       y       z     vdW  Elec       q    Type
DOCKED: USER                           _______ _______ _______ _____ _____    ______ ____
DOCKED: ROOT
DOCKED: ATOM      1  C   UNL     1      26.693 -15.675  -1.111 -0.40 -0.00    +0.000 C 
DOCKED: ATOM      2  C   UNL     1      27.341 -16.161   0.189 -0.33 -0.00    +0.000 C 
DOCKED: ENDROOT
DOCKED: BRANCH   1   3
DOCKED: ATOM      3  C   UNL     1      25.331 -16.317  -1.284 -0.57 -0.00    +0.000 C 
DOCKED: ATOM      4  C   UNL     1      25.060 -17.623  -1.071 -0.69 -0.00    +0.000 C 
DOCKED: ATOM      5  C   UNL     1      26.125 -18.594  -0.610 -0.52 -0.00    +0.000 C 
DOCKED: BRANCH   4   6
DOCKED: ATOM      6  C   UNL     1      23.659 -18.080  -1.257 -0.78 -0.00    +0.000 C 
DOCKED: ATOM      7  C   UNL     1      22.801 -18.240  -0.241 -0.81 -0.00    +0.000 C 
DOCKED: BRANCH   7   8
DOCKED: ATOM      8  C   UNL     1      21.404 -18.692  -0.415 -0.84 -0.00    +0.000 C 
DOCKED: ATOM      9  N   UNL     1      20.997 -20.041  -0.159 -0.66 -0.00    +0.000 N 
DOCKED: ATOM     10  O   UNL     1      19.690 -20.382  -0.233 -1.27 -0.00    +0.000 OA
DOCKED: ATOM     11  O   UNL     1      20.552 -17.861  -0.827 -2.29 -0.00    +0.000 OA
DOCKED: ATOM     12  H   UNL     1      21.671 -20.723   0.071 -0.54 -0.00    +0.000 HD
DOCKED: ENDBRANCH   7   8
DOCKED: ENDBRANCH   4   6
DOCKED: ENDBRANCH   1   3
DOCKED: BRANCH   1  13
DOCKED: ATOM     13  C   UNL     1      27.593 -16.000  -2.286 -0.33 -0.00    +0.000 C 
DOCKED: ATOM     14  O   UNL     1      28.325 -17.027  -2.233 -0.35 -0.00    +0.000 OA
DOCKED: BRANCH  13  18
DOCKED: ATOM     15  C   UNL     1      27.781 -13.438  -5.763 -0.24 -0.00    +0.000 A 
DOCKED: ATOM     16  C   UNL     1      27.285 -12.965  -4.532 -0.22 -0.00    +0.000 A 
DOCKED: ATOM     17  C   UNL     1      27.226 -13.800  -3.415 -0.23 -0.00    +0.000 A 
DOCKED: ATOM     18  C   UNL     1      27.670 -15.129  -3.489 -0.28 -0.00    +0.000 A 
DOCKED: ATOM     19  C   UNL     1      28.156 -15.611  -4.716 -0.33 -0.00    +0.000 A 
DOCKED: ATOM     20  C   UNL     1      28.213 -14.777  -5.836 -0.36 -0.00    +0.000 A 
DOCKED: BRANCH  15  22
DOCKED: ATOM     21  C   UNL     1      28.737 -12.886  -8.047 -0.26 -0.00    +0.000 C 
DOCKED: ATOM     22  N   UNL     1      27.843 -12.570  -6.926 -0.21 -0.00    +0.000 N 
DOCKED: ATOM     23  C   UNL     1      27.012 -11.361  -7.001 -0.19 -0.00    +0.000 C 
DOCKED: ENDBRANCH  15  22
DOCKED: ENDBRANCH  13  18
DOCKED: ENDBRANCH   1  13
DOCKED: TORSDOF 6
DOCKED: TER
DOCKED: ENDMDL
________________________________________________________________________________


	BEGINNING GENETIC ALGORITHM DOCKING 57 of 100
Run: 57 Seed: 1498225154 582263287 [ Run 57 of 100 GA/GALS ]
Beginning LAMARCKIAN GENETIC ALGORITHM (LGA), with a maximum of 2500000 energy evaluations.

Final-Value: -14.217


	FINAL GENETIC ALGORITHM DOCKED STATE
	_______________________________________________


Detailed state:  trans 26.339 -15.825 0.069 quatxyzw 0.818969 0.407362 0.160359 0.370986 center -0.973 -0.390 0.234 ntor 6 180.0000 82.9580 25.6558 13.0114 44.0985 -11.8765
State:	 26.339 -15.825   0.069   0.882  0.439  0.173 136.447    180.00   82.96   25.66   13.01   44.10  -11.88

DOCKED: MODEL       57
DOCKED: USER    Run = 57
DOCKED: USER    DPF = ligand_dock.biased.dpf
DOCKED: USER  
DOCKED: USER    Estimated Free Energy of Binding    =  -11.28 kcal/mol  [=(1)+(2)+(3)-(4)]
DOCKED: USER    Estimated Inhibition Constant, Ki   =    5.36 nM (nanomolar)  [Temperature = 298.15 K]
DOCKED: USER    
DOCKED: USER    (1) Final Intermolecular Energy     =  -13.07 kcal/mol
DOCKED: USER        vdW + Hbond + desolv Energy     =  -13.07 kcal/mol
DOCKED: USER        Electrostatic Energy            =   +0.00 kcal/mol
DOCKED: USER    (2) Final Total Internal Energy     =   -1.14 kcal/mol
DOCKED: USER    (3) Torsional Free Energy           =   +1.79 kcal/mol
DOCKED: USER    (4) Unbound System's Energy  [=(2)] =   -1.14 kcal/mol
DOCKED: USER    
DOCKED: USER    
DOCKED: USER    NEWDPF move ligand.pdbqt
DOCKED: USER    NEWDPF about -0.973000 -0.390000 0.234000
DOCKED: USER    NEWDPF tran0 26.338694 -15.825010 0.069441
DOCKED: USER    NEWDPF quaternion0 0.818969 0.407362 0.160359 0.370986
DOCKED: USER    NEWDPF axisangle0 0.881903 0.438666 0.172682 136.447101
DOCKED: USER    NEWDPF quat0 0.881903 0.438666 0.172682 136.447101
DOCKED: USER    NEWDPF dihe0 180.00 82.96 25.66 13.01 44.10 -11.88 
DOCKED: USER  keepresnum = 1 
DOCKED: USER  
DOCKED: REMARK  Name = 
DOCKED: REMARK  10 active torsions:
DOCKED: REMARK  status: ('A' for Active; 'I' for Inactive)
DOCKED: REMARK    1  A    between atoms: C_1  and  N_2
DOCKED: REMARK    2  A    between atoms: N_2  and  C_3
DOCKED: REMARK    3  A    between atoms: N_2  and  C_22
DOCKED: REMARK    4  A    between atoms: C_6  and  C_9
DOCKED: REMARK    5  A    between atoms: C_9  and  C_10
DOCKED: REMARK    6  A    between atoms: C_10  and  C_11
DOCKED: REMARK    7  A    between atoms: C_10  and  C_20
DOCKED: REMARK    8  A    between atoms: C_12  and  C_13
DOCKED: REMARK    9  A    between atoms: C_12  and  C_19
DOCKED: REMARK   10  A    between atoms: C_14  and  C_15
DOCKED: REMARK                            x       y       z     vdW  Elec       q    Type
DOCKED: REMARK                         _______ _______ _______ _____ _____    ______ ____
DOCKED: USER                              x       y       z     vdW  Elec       q    Type
DOCKED: USER                           _______ _______ _______ _____ _____    ______ ____
DOCKED: ROOT
DOCKED: ATOM      1  C   UNL     1      27.169 -15.406  -1.231 -0.33 -0.00    +0.000 C 
DOCKED: ATOM      2  C   UNL     1      27.876 -14.979  -2.521 -0.24 -0.00    +0.000 C 
DOCKED: ENDROOT
DOCKED: BRANCH   1   3
DOCKED: ATOM      3  C   UNL     1      25.832 -16.042  -1.557 -0.52 -0.00    +0.000 C 
DOCKED: ATOM      4  C   UNL     1      25.356 -17.172  -0.991 -0.64 -0.00    +0.000 C 
DOCKED: ATOM      5  C   UNL     1      26.134 -17.925   0.065 -0.62 -0.00    +0.000 C 
DOCKED: BRANCH   4   6
DOCKED: ATOM      6  C   UNL     1      24.008 -17.639  -1.403 -0.73 -0.00    +0.000 C 
DOCKED: ATOM      7  C   UNL     1      23.034 -17.925  -0.528 -0.80 -0.00    +0.000 C 
DOCKED: BRANCH   7   8
DOCKED: ATOM      8  C   UNL     1      21.688 -18.388  -0.927 -0.79 -0.00    +0.000 C 
DOCKED: ATOM      9  N   UNL     1      21.471 -19.646  -1.576 -0.55 -0.00    +0.000 N 
DOCKED: ATOM     10  O   UNL     1      20.212 -20.072  -1.829 -2.28 -0.00    +0.000 OA
DOCKED: ATOM     11  O   UNL     1      20.704 -17.633  -0.707 -2.17 +0.00    +0.000 OA
DOCKED: ATOM     12  H   UNL     1      22.240 -20.203  -1.840 -0.45 -0.00    +0.000 HD
DOCKED: ENDBRANCH   7   8
DOCKED: ENDBRANCH   4   6
DOCKED: ENDBRANCH   1   3
DOCKED: BRANCH   1  13
DOCKED: ATOM     13  C   UNL     1      26.987 -14.206  -0.324 -0.29 -0.00    +0.000 C 
DOCKED: ATOM     14  O   UNL     1      26.255 -13.251  -0.710 -0.23 -0.00    +0.000 OA
DOCKED: BRANCH  13  18
DOCKED: ATOM     15  C   UNL     1      28.936 -13.851   3.518 -0.30 -0.00    +0.000 A 
DOCKED: ATOM     16  C   UNL     1      27.606 -13.425   3.331 -0.36 -0.00    +0.000 A 
DOCKED: ATOM     17  C   UNL     1      26.985 -13.542   2.086 -0.25 -0.00    +0.000 A 
DOCKED: ATOM     18  C   UNL     1      27.668 -14.097   0.992 -0.24 -0.00    +0.000 A 
DOCKED: ATOM     19  C   UNL     1      28.998 -14.513   1.169 -0.16 -0.00    +0.000 A 
DOCKED: ATOM     20  C   UNL     1      29.622 -14.396   2.414 -0.13 -0.00    +0.000 A 
DOCKED: BRANCH  15  22
DOCKED: ATOM     21  C   UNL     1      28.785 -13.597   6.038 -0.43 -0.00    +0.000 C 
DOCKED: ATOM     22  N   UNL     1      29.583 -13.731   4.813 -0.32 -0.00    +0.000 N 
DOCKED: ATOM     23  C   UNL     1      31.048 -13.742   4.919 -0.23 -0.00    +0.000 C 
DOCKED: ENDBRANCH  15  22
DOCKED: ENDBRANCH  13  18
DOCKED: ENDBRANCH   1  13
DOCKED: TORSDOF 6
DOCKED: TER
DOCKED: ENDMDL
________________________________________________________________________________


	BEGINNING GENETIC ALGORITHM DOCKING 58 of 100
Run: 58 Seed: 718184704 1665174453 [ Run 58 of 100 GA/GALS ]
Beginning LAMARCKIAN GENETIC ALGORITHM (LGA), with a maximum of 2500000 energy evaluations.

Final-Value: -13.613


	FINAL GENETIC ALGORITHM DOCKED STATE
	_______________________________________________


Detailed state:  trans 26.421 -16.386 -2.878 quatxyzw -0.177357 -0.208896 -0.051343 0.960349 center -0.973 -0.390 0.234 ntor 6 -169.0525 -30.7476 138.9629 -28.4551 -148.4173 -18.3178
State:	 26.421 -16.386  -2.878  -0.636 -0.749 -0.184 32.377   -169.05  -30.75  138.96  -28.46 -148.42  -18.32

DOCKED: MODEL       58
DOCKED: USER    Run = 58
DOCKED: USER    DPF = ligand_dock.biased.dpf
DOCKED: USER  
DOCKED: USER    Estimated Free Energy of Binding    =  -11.11 kcal/mol  [=(1)+(2)+(3)-(4)]
DOCKED: USER    Estimated Inhibition Constant, Ki   =    7.18 nM (nanomolar)  [Temperature = 298.15 K]
DOCKED: USER    
DOCKED: USER    (1) Final Intermolecular Energy     =  -12.90 kcal/mol
DOCKED: USER        vdW + Hbond + desolv Energy     =  -12.90 kcal/mol
DOCKED: USER        Electrostatic Energy            =   +0.00 kcal/mol
DOCKED: USER    (2) Final Total Internal Energy     =   -0.71 kcal/mol
DOCKED: USER    (3) Torsional Free Energy           =   +1.79 kcal/mol
DOCKED: USER    (4) Unbound System's Energy  [=(2)] =   -0.71 kcal/mol
DOCKED: USER    
DOCKED: USER    
DOCKED: USER    NEWDPF move ligand.pdbqt
DOCKED: USER    NEWDPF about -0.973000 -0.390000 0.234000
DOCKED: USER    NEWDPF tran0 26.420911 -16.386195 -2.877646
DOCKED: USER    NEWDPF quaternion0 -0.177357 -0.208896 -0.051343 0.960349
DOCKED: USER    NEWDPF axisangle0 -0.636146 -0.749269 -0.184158 32.377121
DOCKED: USER    NEWDPF quat0 -0.636146 -0.749269 -0.184158 32.377121
DOCKED: USER    NEWDPF dihe0 -169.05 -30.75 138.96 -28.46 -148.42 -18.32 
DOCKED: USER  keepresnum = 1 
DOCKED: USER  
DOCKED: REMARK  Name = 
DOCKED: REMARK  10 active torsions:
DOCKED: REMARK  status: ('A' for Active; 'I' for Inactive)
DOCKED: REMARK    1  A    between atoms: C_1  and  N_2
DOCKED: REMARK    2  A    between atoms: N_2  and  C_3
DOCKED: REMARK    3  A    between atoms: N_2  and  C_22
DOCKED: REMARK    4  A    between atoms: C_6  and  C_9
DOCKED: REMARK    5  A    between atoms: C_9  and  C_10
DOCKED: REMARK    6  A    between atoms: C_10  and  C_11
DOCKED: REMARK    7  A    between atoms: C_10  and  C_20
DOCKED: REMARK    8  A    between atoms: C_12  and  C_13
DOCKED: REMARK    9  A    between atoms: C_12  and  C_19
DOCKED: REMARK   10  A    between atoms: C_14  and  C_15
DOCKED: REMARK                            x       y       z     vdW  Elec       q    Type
DOCKED: REMARK                         _______ _______ _______ _____ _____    ______ ____
DOCKED: USER                              x       y       z     vdW  Elec       q    Type
DOCKED: USER                           _______ _______ _______ _____ _____    ______ ____
DOCKED: ROOT
DOCKED: ATOM      1  C   UNL     1      26.883 -15.719  -1.500 -0.38 -0.00    +0.000 C 
DOCKED: ATOM      2  C   UNL     1      27.290 -15.164  -0.132 -0.32 -0.00    +0.000 C 
DOCKED: ENDROOT
DOCKED: BRANCH   1   3
DOCKED: ATOM      3  C   UNL     1      25.585 -16.494  -1.382 -0.57 -0.00    +0.000 C 
DOCKED: ATOM      4  C   UNL     1      25.384 -17.541  -0.553 -0.66 -0.00    +0.000 C 
DOCKED: ATOM      5  C   UNL     1      26.467 -18.046   0.374 -0.46 -0.00    +0.000 C 
DOCKED: BRANCH   4   6
DOCKED: ATOM      6  C   UNL     1      24.036 -18.166  -0.541 -0.78 -0.00    +0.000 C 
DOCKED: ATOM      7  C   UNL     1      22.956 -17.586  -1.082 -0.72 -0.00    +0.000 C 
DOCKED: BRANCH   7   8
DOCKED: ATOM      8  C   UNL     1      21.612 -18.199  -1.079 -0.69 -0.00    +0.000 C 
DOCKED: ATOM      9  N   UNL     1      21.387 -19.557  -1.478 -0.67 -0.00    +0.000 N 
DOCKED: ATOM     10  O   UNL     1      20.155 -20.104  -1.359 -2.10 -0.00    +0.000 OA
DOCKED: ATOM     11  O   UNL     1      20.629 -17.489  -0.735 -2.08 +0.00    +0.000 OA
DOCKED: ATOM     12  H   UNL     1      22.131 -20.093  -1.839 -0.48 -0.00    +0.000 HD
DOCKED: ENDBRANCH   7   8
DOCKED: ENDBRANCH   4   6
DOCKED: ENDBRANCH   1   3
DOCKED: BRANCH   1  13
DOCKED: ATOM     13  C   UNL     1      27.988 -16.603  -2.044 -0.33 -0.00    +0.000 C 
DOCKED: ATOM     14  O   UNL     1      28.376 -17.592  -1.360 -0.37 -0.00    +0.000 OA
DOCKED: BRANCH  13  18
DOCKED: ATOM     15  C   UNL     1      29.975 -15.824  -5.803 -0.27 -0.00    +0.000 A 
DOCKED: ATOM     16  C   UNL     1      30.360 -16.902  -4.982 -0.24 -0.00    +0.000 A 
DOCKED: ATOM     17  C   UNL     1      29.714 -17.146  -3.769 -0.20 -0.00    +0.000 A 
DOCKED: ATOM     18  C   UNL     1      28.657 -16.326  -3.342 -0.21 -0.00    +0.000 A 
DOCKED: ATOM     19  C   UNL     1      28.275 -15.243  -4.150 -0.28 -0.00    +0.000 A 
DOCKED: ATOM     20  C   UNL     1      28.922 -14.996  -5.364 -0.30 -0.00    +0.000 A 
DOCKED: BRANCH  15  22
DOCKED: ATOM     21  C   UNL     1      31.200 -16.678  -7.854 -0.30 -0.00    +0.000 C 
DOCKED: ATOM     22  N   UNL     1      30.646 -15.570  -7.066 -0.28 -0.00    +0.000 N 
DOCKED: ATOM     23  C   UNL     1      30.782 -14.199  -7.577 -0.20 -0.00    +0.000 C 
DOCKED: ENDBRANCH  15  22
DOCKED: ENDBRANCH  13  18
DOCKED: ENDBRANCH   1  13
DOCKED: TORSDOF 6
DOCKED: TER
DOCKED: ENDMDL
________________________________________________________________________________


	BEGINNING GENETIC ALGORITHM DOCKING 59 of 100
Run: 59 Seed: 1382794408 1399830998 [ Run 59 of 100 GA/GALS ]
Beginning LAMARCKIAN GENETIC ALGORITHM (LGA), with a maximum of 2500000 energy evaluations.

Final-Value: -13.371


	FINAL GENETIC ALGORITHM DOCKED STATE
	_______________________________________________


Detailed state:  trans 26.080 -17.574 -1.032 quatxyzw 0.711584 0.227396 -0.084505 0.659392 center -0.973 -0.390 0.234 ntor 6 -135.6334 21.6182 178.3751 135.0456 92.4224 -8.5515
State:	 26.080 -17.574  -1.032   0.947  0.302 -0.112 97.493   -135.63   21.62  178.38  135.05   92.42   -8.55

DOCKED: MODEL       59
DOCKED: USER    Run = 59
DOCKED: USER    DPF = ligand_dock.biased.dpf
DOCKED: USER  
DOCKED: USER    Estimated Free Energy of Binding    =  -10.48 kcal/mol  [=(1)+(2)+(3)-(4)]
DOCKED: USER    Estimated Inhibition Constant, Ki   =   20.74 nM (nanomolar)  [Temperature = 298.15 K]
DOCKED: USER    
DOCKED: USER    (1) Final Intermolecular Energy     =  -12.27 kcal/mol
DOCKED: USER        vdW + Hbond + desolv Energy     =  -12.27 kcal/mol
DOCKED: USER        Electrostatic Energy            =   +0.00 kcal/mol
DOCKED: USER    (2) Final Total Internal Energy     =   -1.10 kcal/mol
DOCKED: USER    (3) Torsional Free Energy           =   +1.79 kcal/mol
DOCKED: USER    (4) Unbound System's Energy  [=(2)] =   -1.10 kcal/mol
DOCKED: USER    
DOCKED: USER    
DOCKED: USER    NEWDPF move ligand.pdbqt
DOCKED: USER    NEWDPF about -0.973000 -0.390000 0.234000
DOCKED: USER    NEWDPF tran0 26.080007 -17.573801 -1.032395
DOCKED: USER    NEWDPF quaternion0 0.711584 0.227396 -0.084505 0.659392
DOCKED: USER    NEWDPF axisangle0 0.946508 0.302469 -0.112403 97.492953
DOCKED: USER    NEWDPF quat0 0.946508 0.302469 -0.112403 97.492953
DOCKED: USER    NEWDPF dihe0 -135.63 21.62 178.38 135.05 92.42 -8.55 
DOCKED: USER  keepresnum = 1 
DOCKED: USER  
DOCKED: REMARK  Name = 
DOCKED: REMARK  10 active torsions:
DOCKED: REMARK  status: ('A' for Active; 'I' for Inactive)
DOCKED: REMARK    1  A    between atoms: C_1  and  N_2
DOCKED: REMARK    2  A    between atoms: N_2  and  C_3
DOCKED: REMARK    3  A    between atoms: N_2  and  C_22
DOCKED: REMARK    4  A    between atoms: C_6  and  C_9
DOCKED: REMARK    5  A    between atoms: C_9  and  C_10
DOCKED: REMARK    6  A    between atoms: C_10  and  C_11
DOCKED: REMARK    7  A    between atoms: C_10  and  C_20
DOCKED: REMARK    8  A    between atoms: C_12  and  C_13
DOCKED: REMARK    9  A    between atoms: C_12  and  C_19
DOCKED: REMARK   10  A    between atoms: C_14  and  C_15
DOCKED: REMARK                            x       y       z     vdW  Elec       q    Type
DOCKED: REMARK                         _______ _______ _______ _____ _____    ______ ____
DOCKED: USER                              x       y       z     vdW  Elec       q    Type
DOCKED: USER                           _______ _______ _______ _____ _____    ______ ____
DOCKED: ROOT
DOCKED: ATOM      1  C   UNL     1      25.837 -16.564  -2.248 -0.53 -0.00    +0.000 C 
DOCKED: ATOM      2  C   UNL     1      25.513 -15.576  -3.373 -0.57 -0.00    +0.000 C 
DOCKED: ENDROOT
DOCKED: BRANCH   1   3
DOCKED: ATOM      3  C   UNL     1      24.586 -17.314  -1.837 -0.65 -0.00    +0.000 C 
DOCKED: ATOM      4  C   UNL     1      24.515 -18.198  -0.819 -0.76 -0.00    +0.000 C 
DOCKED: ATOM      5  C   UNL     1      25.716 -18.523   0.042 -0.56 -0.00    +0.000 C 
DOCKED: BRANCH   4   6
DOCKED: ATOM      6  C   UNL     1      23.198 -18.821  -0.531 -0.79 -0.00    +0.000 C 
DOCKED: ATOM      7  C   UNL     1      22.234 -18.952  -1.454 -0.71 -0.00    +0.000 C 
DOCKED: BRANCH   7   8
DOCKED: ATOM      8  C   UNL     1      20.921 -19.572  -1.180 -0.79 -0.00    +0.000 C 
DOCKED: ATOM      9  N   UNL     1      20.539 -20.014   0.128 -0.72 -0.00    +0.000 N 
DOCKED: ATOM     10  O   UNL     1      19.288 -20.480   0.349 -0.97 -0.00    +0.000 OA
DOCKED: ATOM     11  O   UNL     1      20.123 -19.738  -2.141 -2.33 -0.00    +0.000 OA
DOCKED: ATOM     12  H   UNL     1      21.188 -19.978   0.868 -0.51 -0.00    +0.000 HD
DOCKED: ENDBRANCH   7   8
DOCKED: ENDBRANCH   4   6
DOCKED: ENDBRANCH   1   3
DOCKED: BRANCH   1  13
DOCKED: ATOM     13  C   UNL     1      26.430 -15.821  -1.067 -0.43 -0.00    +0.000 C 
DOCKED: ATOM     14  O   UNL     1      25.702 -15.016  -0.421 -0.41 -0.00    +0.000 OA
DOCKED: BRANCH  13  18
DOCKED: ATOM     15  C   UNL     1      30.561 -16.335   0.098 -0.12 -0.00    +0.000 A 
DOCKED: ATOM     16  C   UNL     1      29.910 -17.276  -0.724 -0.20 -0.00    +0.000 A 
DOCKED: ATOM     17  C   UNL     1      28.575 -17.103  -1.094 -0.29 -0.00    +0.000 A 
DOCKED: ATOM     18  C   UNL     1      27.851 -15.980  -0.664 -0.29 -0.00    +0.000 A 
DOCKED: ATOM     19  C   UNL     1      28.490 -15.043   0.165 -0.20 -0.00    +0.000 A 
DOCKED: ATOM     20  C   UNL     1      29.826 -15.216   0.539 -0.11 -0.00    +0.000 A 
DOCKED: BRANCH  15  22
DOCKED: ATOM     21  C   UNL     1      33.015 -16.482  -0.526 -0.04 -0.00    +0.000 C 
DOCKED: ATOM     22  N   UNL     1      31.950 -16.513   0.484 -0.11 -0.00    +0.000 N 
DOCKED: ATOM     23  C   UNL     1      32.312 -16.728   1.890 -0.19 -0.00    +0.000 C 
DOCKED: ENDBRANCH  15  22
DOCKED: ENDBRANCH  13  18
DOCKED: ENDBRANCH   1  13
DOCKED: TORSDOF 6
DOCKED: TER
DOCKED: ENDMDL
________________________________________________________________________________


	BEGINNING GENETIC ALGORITHM DOCKING 60 of 100
Run: 60 Seed: 1967045966 1164957481 [ Run 60 of 100 GA/GALS ]
Beginning LAMARCKIAN GENETIC ALGORITHM (LGA), with a maximum of 2500000 energy evaluations.

Final-Value: -13.977


	FINAL GENETIC ALGORITHM DOCKED STATE
	_______________________________________________


Detailed state:  trans 26.444 -15.978 -1.308 quatxyzw 0.850727 0.262251 -0.166242 0.424089 center -0.973 -0.390 0.234 ntor 6 -165.0305 -51.3622 -159.3950 -140.5433 50.6404 -74.0898
State:	 26.444 -15.978  -1.308   0.939  0.290 -0.184 129.814   -165.03  -51.36 -159.39 -140.54   50.64  -74.09

DOCKED: MODEL       60
DOCKED: USER    Run = 60
DOCKED: USER    DPF = ligand_dock.biased.dpf
DOCKED: USER  
DOCKED: USER    Estimated Free Energy of Binding    =  -10.79 kcal/mol  [=(1)+(2)+(3)-(4)]
DOCKED: USER    Estimated Inhibition Constant, Ki   =   12.30 nM (nanomolar)  [Temperature = 298.15 K]
DOCKED: USER    
DOCKED: USER    (1) Final Intermolecular Energy     =  -12.58 kcal/mol
DOCKED: USER        vdW + Hbond + desolv Energy     =  -12.58 kcal/mol
DOCKED: USER        Electrostatic Energy            =   +0.00 kcal/mol
DOCKED: USER    (2) Final Total Internal Energy     =   -1.40 kcal/mol
DOCKED: USER    (3) Torsional Free Energy           =   +1.79 kcal/mol
DOCKED: USER    (4) Unbound System's Energy  [=(2)] =   -1.40 kcal/mol
DOCKED: USER    
DOCKED: USER    
DOCKED: USER    NEWDPF move ligand.pdbqt
DOCKED: USER    NEWDPF about -0.973000 -0.390000 0.234000
DOCKED: USER    NEWDPF tran0 26.443843 -15.978488 -1.308299
DOCKED: USER    NEWDPF quaternion0 0.850727 0.262251 -0.166242 0.424089
DOCKED: USER    NEWDPF axisangle0 0.939386 0.289582 -0.183568 129.813915
DOCKED: USER    NEWDPF quat0 0.939386 0.289582 -0.183568 129.813915
DOCKED: USER    NEWDPF dihe0 -165.03 -51.36 -159.39 -140.54 50.64 -74.09 
DOCKED: USER  keepresnum = 1 
DOCKED: USER  
DOCKED: REMARK  Name = 
DOCKED: REMARK  10 active torsions:
DOCKED: REMARK  status: ('A' for Active; 'I' for Inactive)
DOCKED: REMARK    1  A    between atoms: C_1  and  N_2
DOCKED: REMARK    2  A    between atoms: N_2  and  C_3
DOCKED: REMARK    3  A    between atoms: N_2  and  C_22
DOCKED: REMARK    4  A    between atoms: C_6  and  C_9
DOCKED: REMARK    5  A    between atoms: C_9  and  C_10
DOCKED: REMARK    6  A    between atoms: C_10  and  C_11
DOCKED: REMARK    7  A    between atoms: C_10  and  C_20
DOCKED: REMARK    8  A    between atoms: C_12  and  C_13
DOCKED: REMARK    9  A    between atoms: C_12  and  C_19
DOCKED: REMARK   10  A    between atoms: C_14  and  C_15
DOCKED: REMARK                            x       y       z     vdW  Elec       q    Type
DOCKED: REMARK                         _______ _______ _______ _____ _____    ______ ____
DOCKED: USER                              x       y       z     vdW  Elec       q    Type
DOCKED: USER                           _______ _______ _______ _____ _____    ______ ____
DOCKED: ROOT
DOCKED: ATOM      1  C   UNL     1      26.206 -15.801  -2.880 -0.49 -0.00    +0.000 C 
DOCKED: ATOM      2  C   UNL     1      25.880 -15.607  -4.363 -0.59 -0.00    +0.000 C 
DOCKED: ENDROOT
DOCKED: BRANCH   1   3
DOCKED: ATOM      3  C   UNL     1      25.013 -16.398  -2.159 -0.57 -0.00    +0.000 C 
DOCKED: ATOM      4  C   UNL     1      25.087 -17.316  -1.172 -0.67 -0.00    +0.000 C 
DOCKED: ATOM      5  C   UNL     1      26.413 -17.841  -0.668 -0.60 -0.00    +0.000 C 
DOCKED: BRANCH   4   6
DOCKED: ATOM      6  C   UNL     1      23.817 -17.771  -0.551 -0.76 -0.00    +0.000 C 
DOCKED: ATOM      7  C   UNL     1      22.744 -18.136  -1.266 -0.69 -0.00    +0.000 C 
DOCKED: BRANCH   7   8
DOCKED: ATOM      8  C   UNL     1      21.476 -18.593  -0.659 -0.86 -0.00    +0.000 C 
DOCKED: ATOM      9  N   UNL     1      21.363 -19.843   0.031 -0.57 -0.00    +0.000 N 
DOCKED: ATOM     10  O   UNL     1      20.209 -20.171   0.658 -0.81 -0.00    +0.000 OA
DOCKED: ATOM     11  O   UNL     1      20.456 -17.863  -0.779 -2.27 -0.00    +0.000 OA
DOCKED: ATOM     12  H   UNL     1      22.126 -20.466   0.049 -0.58 -0.00    +0.000 HD
DOCKED: ENDBRANCH   7   8
DOCKED: ENDBRANCH   4   6
DOCKED: ENDBRANCH   1   3
DOCKED: BRANCH   1  13
DOCKED: ATOM     13  C   UNL     1      26.597 -14.473  -2.261 -0.33 -0.00    +0.000 C 
DOCKED: ATOM     14  O   UNL     1      26.583 -13.434  -2.979 -0.27 -0.00    +0.000 OA
DOCKED: BRANCH  13  18
DOCKED: ATOM     15  C   UNL     1      27.891 -14.177   1.853 -0.26 -0.00    +0.000 A 
DOCKED: ATOM     16  C   UNL     1      28.649 -14.881   0.896 -0.15 -0.00    +0.000 A 
DOCKED: ATOM     17  C   UNL     1      28.223 -14.974  -0.430 -0.20 -0.00    +0.000 A 
DOCKED: ATOM     18  C   UNL     1      27.032 -14.357  -0.845 -0.24 -0.00    +0.000 A 
DOCKED: ATOM     19  C   UNL     1      26.265 -13.662   0.105 -0.27 -0.00    +0.000 A 
DOCKED: ATOM     20  C   UNL     1      26.690 -13.571   1.434 -0.19 -0.00    +0.000 A 
DOCKED: BRANCH  15  22
DOCKED: ATOM     21  C   UNL     1      29.763 -13.974   3.553 -0.28 -0.00    +0.000 C 
DOCKED: ATOM     22  N   UNL     1      28.334 -14.080   3.232 -0.35 -0.00    +0.000 N 
DOCKED: ATOM     23  C   UNL     1      27.360 -14.085   4.331 -0.59 -0.00    +0.000 C 
DOCKED: ENDBRANCH  15  22
DOCKED: ENDBRANCH  13  18
DOCKED: ENDBRANCH   1  13
DOCKED: TORSDOF 6
DOCKED: TER
DOCKED: ENDMDL
________________________________________________________________________________


	BEGINNING GENETIC ALGORITHM DOCKING 61 of 100
Run: 61 Seed: 1279951268 1099630323 [ Run 61 of 100 GA/GALS ]
Beginning LAMARCKIAN GENETIC ALGORITHM (LGA), with a maximum of 2500000 energy evaluations.

Final-Value: -14.198


	FINAL GENETIC ALGORITHM DOCKED STATE
	_______________________________________________


Detailed state:  trans 26.294 -15.828 -0.717 quatxyzw -0.853756 -0.364848 0.124874 -0.349848 center -0.973 -0.390 0.234 ntor 6 115.0793 -14.9825 166.5975 -160.7198 38.4014 -64.2457
State:	 26.294 -15.828  -0.717  -0.911 -0.389  0.133 -139.044    115.08  -14.98  166.60 -160.72   38.40  -64.25

DOCKED: MODEL       61
DOCKED: USER    Run = 61
DOCKED: USER    DPF = ligand_dock.biased.dpf
DOCKED: USER  
DOCKED: USER    Estimated Free Energy of Binding    =  -11.06 kcal/mol  [=(1)+(2)+(3)-(4)]
DOCKED: USER    Estimated Inhibition Constant, Ki   =    7.77 nM (nanomolar)  [Temperature = 298.15 K]
DOCKED: USER    
DOCKED: USER    (1) Final Intermolecular Energy     =  -12.85 kcal/mol
DOCKED: USER        vdW + Hbond + desolv Energy     =  -12.85 kcal/mol
DOCKED: USER        Electrostatic Energy            =   +0.00 kcal/mol
DOCKED: USER    (2) Final Total Internal Energy     =   -1.34 kcal/mol
DOCKED: USER    (3) Torsional Free Energy           =   +1.79 kcal/mol
DOCKED: USER    (4) Unbound System's Energy  [=(2)] =   -1.34 kcal/mol
DOCKED: USER    
DOCKED: USER    
DOCKED: USER    NEWDPF move ligand.pdbqt
DOCKED: USER    NEWDPF about -0.973000 -0.390000 0.234000
DOCKED: USER    NEWDPF tran0 26.294322 -15.828175 -0.717128
DOCKED: USER    NEWDPF quaternion0 -0.853756 -0.364848 0.124874 -0.349848
DOCKED: USER    NEWDPF axisangle0 -0.911347 -0.389459 0.133298 -139.043941
DOCKED: USER    NEWDPF quat0 -0.911347 -0.389459 0.133298 -139.043941
DOCKED: USER    NEWDPF dihe0 115.08 -14.98 166.60 -160.72 38.40 -64.25 
DOCKED: USER  keepresnum = 1 
DOCKED: USER  
DOCKED: REMARK  Name = 
DOCKED: REMARK  10 active torsions:
DOCKED: REMARK  status: ('A' for Active; 'I' for Inactive)
DOCKED: REMARK    1  A    between atoms: C_1  and  N_2
DOCKED: REMARK    2  A    between atoms: N_2  and  C_3
DOCKED: REMARK    3  A    between atoms: N_2  and  C_22
DOCKED: REMARK    4  A    between atoms: C_6  and  C_9
DOCKED: REMARK    5  A    between atoms: C_9  and  C_10
DOCKED: REMARK    6  A    between atoms: C_10  and  C_11
DOCKED: REMARK    7  A    between atoms: C_10  and  C_20
DOCKED: REMARK    8  A    between atoms: C_12  and  C_13
DOCKED: REMARK    9  A    between atoms: C_12  and  C_19
DOCKED: REMARK   10  A    between atoms: C_14  and  C_15
DOCKED: REMARK                            x       y       z     vdW  Elec       q    Type
DOCKED: REMARK                         _______ _______ _______ _____ _____    ______ ____
DOCKED: USER                              x       y       z     vdW  Elec       q    Type
DOCKED: USER                           _______ _______ _______ _____ _____    ______ ____
DOCKED: ROOT
DOCKED: ATOM      1  C   UNL     1      26.354 -15.782  -2.314 -0.46 -0.00    +0.000 C 
DOCKED: ATOM      2  C   UNL     1      26.308 -15.729  -3.844 -0.43 -0.00    +0.000 C 
DOCKED: ENDROOT
DOCKED: BRANCH   1   3
DOCKED: ATOM      3  C   UNL     1      25.146 -16.530  -1.783 -0.61 -0.00    +0.000 C 
DOCKED: ATOM      4  C   UNL     1      25.195 -17.535  -0.883 -0.68 -0.00    +0.000 C 
DOCKED: ATOM      5  C   UNL     1      26.502 -18.015  -0.292 -0.61 -0.00    +0.000 C 
DOCKED: BRANCH   4   6
DOCKED: ATOM      6  C   UNL     1      23.909 -18.137  -0.446 -0.78 -0.00    +0.000 C 
DOCKED: ATOM      7  C   UNL     1      22.747 -17.918  -1.077 -0.76 -0.00    +0.000 C 
DOCKED: BRANCH   7   8
DOCKED: ATOM      8  C   UNL     1      21.463 -18.513  -0.653 -0.85 -0.00    +0.000 C 
DOCKED: ATOM      9  N   UNL     1      21.381 -19.810  -0.049 -0.60 -0.00    +0.000 N 
DOCKED: ATOM     10  O   UNL     1      20.197 -20.269   0.416 -0.89 -0.00    +0.000 OA
DOCKED: ATOM     11  O   UNL     1      20.404 -17.862  -0.855 -2.24 -0.00    +0.000 OA
DOCKED: ATOM     12  H   UNL     1      22.189 -20.369   0.027 -0.56 -0.00    +0.000 HD
DOCKED: ENDBRANCH   7   8
DOCKED: ENDBRANCH   4   6
DOCKED: ENDBRANCH   1   3
DOCKED: BRANCH   1  13
DOCKED: ATOM     13  C   UNL     1      26.403 -14.375  -1.753 -0.32 -0.00    +0.000 C 
DOCKED: ATOM     14  O   UNL     1      26.186 -13.399  -2.525 -0.22 -0.00    +0.000 OA
DOCKED: BRANCH  13  18
DOCKED: ATOM     15  C   UNL     1      27.389 -13.624   2.388 -0.30 -0.00    +0.000 A 
DOCKED: ATOM     16  C   UNL     1      28.137 -14.530   1.611 -0.21 -0.00    +0.000 A 
DOCKED: ATOM     17  C   UNL     1      27.811 -14.768   0.275 -0.24 -0.00    +0.000 A 
DOCKED: ATOM     18  C   UNL     1      26.733 -14.101  -0.330 -0.27 -0.00    +0.000 A 
DOCKED: ATOM     19  C   UNL     1      25.976 -13.205   0.442 -0.24 -0.00    +0.000 A 
DOCKED: ATOM     20  C   UNL     1      26.299 -12.967   1.780 -0.26 -0.00    +0.000 A 
DOCKED: BRANCH  15  22
DOCKED: ATOM     21  C   UNL     1      28.050 -14.488   4.680 -0.60 -0.00    +0.000 C 
DOCKED: ATOM     22  N   UNL     1      27.727 -13.375   3.778 -0.40 -0.00    +0.000 N 
DOCKED: ATOM     23  C   UNL     1      27.753 -12.005   4.307 -0.35 +0.00    +0.000 C 
DOCKED: ENDBRANCH  15  22
DOCKED: ENDBRANCH  13  18
DOCKED: ENDBRANCH   1  13
DOCKED: TORSDOF 6
DOCKED: TER
DOCKED: ENDMDL
________________________________________________________________________________


	BEGINNING GENETIC ALGORITHM DOCKING 62 of 100
Run: 62 Seed: 2080408198 1278523396 [ Run 62 of 100 GA/GALS ]
Beginning LAMARCKIAN GENETIC ALGORITHM (LGA), with a maximum of 2500000 energy evaluations.

Final-Value: -14.130


	FINAL GENETIC ALGORITHM DOCKED STATE
	_______________________________________________


Detailed state:  trans 26.261 -15.848 -0.975 quatxyzw -0.846891 -0.329184 0.156194 -0.387321 center -0.973 -0.390 0.234 ntor 6 -79.1309 -23.0451 177.8040 -161.8667 40.0996 -69.6188
State:	 26.261 -15.848  -0.975  -0.919 -0.357  0.169 -134.424    -79.13  -23.05  177.80 -161.87   40.10  -69.62

DOCKED: MODEL       62
DOCKED: USER    Run = 62
DOCKED: USER    DPF = ligand_dock.biased.dpf
DOCKED: USER  
DOCKED: USER    Estimated Free Energy of Binding    =  -10.99 kcal/mol  [=(1)+(2)+(3)-(4)]
DOCKED: USER    Estimated Inhibition Constant, Ki   =    8.86 nM (nanomolar)  [Temperature = 298.15 K]
DOCKED: USER    
DOCKED: USER    (1) Final Intermolecular Energy     =  -12.78 kcal/mol
DOCKED: USER        vdW + Hbond + desolv Energy     =  -12.78 kcal/mol
DOCKED: USER        Electrostatic Energy            =   +0.00 kcal/mol
DOCKED: USER    (2) Final Total Internal Energy     =   -1.36 kcal/mol
DOCKED: USER    (3) Torsional Free Energy           =   +1.79 kcal/mol
DOCKED: USER    (4) Unbound System's Energy  [=(2)] =   -1.36 kcal/mol
DOCKED: USER    
DOCKED: USER    
DOCKED: USER    NEWDPF move ligand.pdbqt
DOCKED: USER    NEWDPF about -0.973000 -0.390000 0.234000
DOCKED: USER    NEWDPF tran0 26.261081 -15.847797 -0.974794
DOCKED: USER    NEWDPF quaternion0 -0.846891 -0.329184 0.156194 -0.387321
DOCKED: USER    NEWDPF axisangle0 -0.918591 -0.357054 0.169418 -134.424242
DOCKED: USER    NEWDPF quat0 -0.918591 -0.357054 0.169418 -134.424242
DOCKED: USER    NEWDPF dihe0 -79.13 -23.05 177.80 -161.87 40.10 -69.62 
DOCKED: USER  keepresnum = 1 
DOCKED: USER  
DOCKED: REMARK  Name = 
DOCKED: REMARK  10 active torsions:
DOCKED: REMARK  status: ('A' for Active; 'I' for Inactive)
DOCKED: REMARK    1  A    between atoms: C_1  and  N_2
DOCKED: REMARK    2  A    between atoms: N_2  and  C_3
DOCKED: REMARK    3  A    between atoms: N_2  and  C_22
DOCKED: REMARK    4  A    between atoms: C_6  and  C_9
DOCKED: REMARK    5  A    between atoms: C_9  and  C_10
DOCKED: REMARK    6  A    between atoms: C_10  and  C_11
DOCKED: REMARK    7  A    between atoms: C_10  and  C_20
DOCKED: REMARK    8  A    between atoms: C_12  and  C_13
DOCKED: REMARK    9  A    between atoms: C_12  and  C_19
DOCKED: REMARK   10  A    between atoms: C_14  and  C_15
DOCKED: REMARK                            x       y       z     vdW  Elec       q    Type
DOCKED: REMARK                         _______ _______ _______ _____ _____    ______ ____
DOCKED: USER                              x       y       z     vdW  Elec       q    Type
DOCKED: USER                           _______ _______ _______ _____ _____    ______ ____
DOCKED: ROOT
DOCKED: ATOM      1  C   UNL     1      26.152 -15.742  -2.567 -0.49 -0.00    +0.000 C 
DOCKED: ATOM      2  C   UNL     1      25.946 -15.627  -4.080 -0.57 -0.00    +0.000 C 
DOCKED: ENDROOT
DOCKED: BRANCH   1   3
DOCKED: ATOM      3  C   UNL     1      24.975 -16.459  -1.934 -0.59 -0.00    +0.000 C 
DOCKED: ATOM      4  C   UNL     1      25.075 -17.479  -1.055 -0.69 -0.00    +0.000 C 
DOCKED: ATOM      5  C   UNL     1      26.415 -18.008  -0.594 -0.59 -0.00    +0.000 C 
DOCKED: BRANCH   4   6
DOCKED: ATOM      6  C   UNL     1      23.816 -18.047  -0.507 -0.78 -0.00    +0.000 C 
DOCKED: ATOM      7  C   UNL     1      22.639 -17.964  -1.142 -0.70 -0.00    +0.000 C 
DOCKED: BRANCH   7   8
DOCKED: ATOM      8  C   UNL     1      21.382 -18.528  -0.608 -0.84 -0.00    +0.000 C 
DOCKED: ATOM      9  N   UNL     1      21.328 -19.803   0.042 -0.60 -0.00    +0.000 N 
DOCKED: ATOM     10  O   UNL     1      20.175 -20.230   0.605 -0.83 -0.00    +0.000 OA
DOCKED: ATOM     11  O   UNL     1      20.318 -17.869  -0.756 -2.23 +0.00    +0.000 OA
DOCKED: ATOM     12  H   UNL     1      22.133 -20.370   0.079 -0.57 -0.00    +0.000 HD
DOCKED: ENDBRANCH   7   8
DOCKED: ENDBRANCH   4   6
DOCKED: ENDBRANCH   1   3
DOCKED: BRANCH   1  13
DOCKED: ATOM     13  C   UNL     1      26.324 -14.361  -1.966 -0.33 -0.00    +0.000 C 
DOCKED: ATOM     14  O   UNL     1      26.171 -13.347  -2.703 -0.23 -0.00    +0.000 OA
DOCKED: BRANCH  13  18
DOCKED: ATOM     15  C   UNL     1      27.448 -13.819   2.173 -0.28 -0.00    +0.000 A 
DOCKED: ATOM     16  C   UNL     1      28.091 -14.773   1.360 -0.17 -0.00    +0.000 A 
DOCKED: ATOM     17  C   UNL     1      27.720 -14.943   0.025 -0.24 -0.00    +0.000 A 
DOCKED: ATOM     18  C   UNL     1      26.704 -14.158  -0.543 -0.26 -0.00    +0.000 A 
DOCKED: ATOM     19  C   UNL     1      26.051 -13.212   0.265 -0.20 -0.00    +0.000 A 
DOCKED: ATOM     20  C   UNL     1      26.419 -13.043   1.603 -0.27 -0.00    +0.000 A 
DOCKED: BRANCH  15  22
DOCKED: ATOM     21  C   UNL     1      28.302 -12.337   4.047 -0.31 -0.00    +0.000 C 
DOCKED: ATOM     22  N   UNL     1      27.833 -13.641   3.562 -0.39 -0.00    +0.000 N 
DOCKED: ATOM     23  C   UNL     1      27.759 -14.763   4.507 -0.62 -0.00    +0.000 C 
DOCKED: ENDBRANCH  15  22
DOCKED: ENDBRANCH  13  18
DOCKED: ENDBRANCH   1  13
DOCKED: TORSDOF 6
DOCKED: TER
DOCKED: ENDMDL
________________________________________________________________________________


	BEGINNING GENETIC ALGORITHM DOCKING 63 of 100
Run: 63 Seed: 1161562442 1223734983 [ Run 63 of 100 GA/GALS ]
Beginning LAMARCKIAN GENETIC ALGORITHM (LGA), with a maximum of 2500000 energy evaluations.

Final-Value: -14.270


	FINAL GENETIC ALGORITHM DOCKED STATE
	_______________________________________________


Detailed state:  trans 26.975 -15.923 -2.692 quatxyzw -0.337444 -0.095568 -0.032735 0.935909 center -0.973 -0.390 0.234 ntor 6 -176.4670 71.8873 41.6273 153.0012 -146.2503 -44.7403
State:	 26.975 -15.923  -2.692  -0.958 -0.271 -0.093 41.249   -176.47   71.89   41.63  153.00 -146.25  -44.74

DOCKED: MODEL       63
DOCKED: USER    Run = 63
DOCKED: USER    DPF = ligand_dock.biased.dpf
DOCKED: USER  
DOCKED: USER    Estimated Free Energy of Binding    =  -11.55 kcal/mol  [=(1)+(2)+(3)-(4)]
DOCKED: USER    Estimated Inhibition Constant, Ki   =    3.41 nM (nanomolar)  [Temperature = 298.15 K]
DOCKED: USER    
DOCKED: USER    (1) Final Intermolecular Energy     =  -13.34 kcal/mol
DOCKED: USER        vdW + Hbond + desolv Energy     =  -13.34 kcal/mol
DOCKED: USER        Electrostatic Energy            =   +0.00 kcal/mol
DOCKED: USER    (2) Final Total Internal Energy     =   -0.93 kcal/mol
DOCKED: USER    (3) Torsional Free Energy           =   +1.79 kcal/mol
DOCKED: USER    (4) Unbound System's Energy  [=(2)] =   -0.93 kcal/mol
DOCKED: USER    
DOCKED: USER    
DOCKED: USER    NEWDPF move ligand.pdbqt
DOCKED: USER    NEWDPF about -0.973000 -0.390000 0.234000
DOCKED: USER    NEWDPF tran0 26.975389 -15.923143 -2.692382
DOCKED: USER    NEWDPF quaternion0 -0.337444 -0.095568 -0.032735 0.935909
DOCKED: USER    NEWDPF axisangle0 -0.957994 -0.271314 -0.092933 41.248858
DOCKED: USER    NEWDPF quat0 -0.957994 -0.271314 -0.092933 41.248858
DOCKED: USER    NEWDPF dihe0 -176.47 71.89 41.63 153.00 -146.25 -44.74 
DOCKED: USER  keepresnum = 1 
DOCKED: USER  
DOCKED: REMARK  Name = 
DOCKED: REMARK  10 active torsions:
DOCKED: REMARK  status: ('A' for Active; 'I' for Inactive)
DOCKED: REMARK    1  A    between atoms: C_1  and  N_2
DOCKED: REMARK    2  A    between atoms: N_2  and  C_3
DOCKED: REMARK    3  A    between atoms: N_2  and  C_22
DOCKED: REMARK    4  A    between atoms: C_6  and  C_9
DOCKED: REMARK    5  A    between atoms: C_9  and  C_10
DOCKED: REMARK    6  A    between atoms: C_10  and  C_11
DOCKED: REMARK    7  A    between atoms: C_10  and  C_20
DOCKED: REMARK    8  A    between atoms: C_12  and  C_13
DOCKED: REMARK    9  A    between atoms: C_12  and  C_19
DOCKED: REMARK   10  A    between atoms: C_14  and  C_15
DOCKED: REMARK                            x       y       z     vdW  Elec       q    Type
DOCKED: REMARK                         _______ _______ _______ _____ _____    ______ ____
DOCKED: USER                              x       y       z     vdW  Elec       q    Type
DOCKED: USER                           _______ _______ _______ _____ _____    ______ ____
DOCKED: ROOT
DOCKED: ATOM      1  C   UNL     1      27.217 -15.789  -1.117 -0.36 -0.00    +0.000 C 
DOCKED: ATOM      2  C   UNL     1      27.395 -15.747   0.403 -0.31 -0.00    +0.000 C 
DOCKED: ENDROOT
DOCKED: BRANCH   1   3
DOCKED: ATOM      3  C   UNL     1      25.846 -16.334  -1.466 -0.54 -0.00    +0.000 C 
DOCKED: ATOM      4  C   UNL     1      25.353 -17.515  -1.034 -0.66 -0.00    +0.000 C 
DOCKED: ATOM      5  C   UNL     1      26.144 -18.425  -0.121 -0.62 -0.00    +0.000 C 
DOCKED: BRANCH   4   6
DOCKED: ATOM      6  C   UNL     1      23.974 -17.882  -1.446 -0.75 -0.00    +0.000 C 
DOCKED: ATOM      7  C   UNL     1      22.948 -17.950  -0.587 -0.81 -0.00    +0.000 C 
DOCKED: BRANCH   7   8
DOCKED: ATOM      8  C   UNL     1      21.571 -18.312  -0.986 -0.75 -0.00    +0.000 C 
DOCKED: ATOM      9  N   UNL     1      21.272 -19.518  -1.699 -0.64 -0.00    +0.000 N 
DOCKED: ATOM     10  O   UNL     1      19.986 -19.856  -1.951 -2.30 -0.00    +0.000 OA
DOCKED: ATOM     11  O   UNL     1      20.637 -17.515  -0.707 -2.10 +0.00    +0.000 OA
DOCKED: ATOM     12  H   UNL     1      22.003 -20.102  -2.006 -0.53 -0.00    +0.000 HD
DOCKED: ENDBRANCH   7   8
DOCKED: ENDBRANCH   4   6
DOCKED: ENDBRANCH   1   3
DOCKED: BRANCH   1  13
DOCKED: ATOM     13  C   UNL     1      28.307 -16.640  -1.738 -0.33 -0.00    +0.000 C 
DOCKED: ATOM     14  O   UNL     1      28.784 -17.605  -1.078 -0.38 -0.00    +0.000 OA
DOCKED: BRANCH  13  18
DOCKED: ATOM     15  C   UNL     1      29.876 -15.787  -5.676 -0.27 -0.00    +0.000 A 
DOCKED: ATOM     16  C   UNL     1      28.854 -15.001  -5.110 -0.28 -0.00    +0.000 A 
DOCKED: ATOM     17  C   UNL     1      28.352 -15.284  -3.838 -0.25 -0.00    +0.000 A 
DOCKED: ATOM     18  C   UNL     1      28.861 -16.355  -3.088 -0.23 -0.00    +0.000 A 
DOCKED: ATOM     19  C   UNL     1      29.873 -17.151  -3.651 -0.20 -0.00    +0.000 A 
DOCKED: ATOM     20  C   UNL     1      30.375 -16.871  -4.924 -0.24 -0.00    +0.000 A 
DOCKED: BRANCH  15  22
DOCKED: ATOM     21  C   UNL     1      30.296 -14.141  -7.559 -0.20 -0.00    +0.000 C 
DOCKED: ATOM     22  N   UNL     1      30.399 -15.494  -6.998 -0.30 -0.00    +0.000 N 
DOCKED: ATOM     23  C   UNL     1      31.041 -16.545  -7.798 -0.30 -0.00    +0.000 C 
DOCKED: ENDBRANCH  15  22
DOCKED: ENDBRANCH  13  18
DOCKED: ENDBRANCH   1  13
DOCKED: TORSDOF 6
DOCKED: TER
DOCKED: ENDMDL
________________________________________________________________________________


	BEGINNING GENETIC ALGORITHM DOCKING 64 of 100
Run: 64 Seed: 831792620 1934202957 [ Run 64 of 100 GA/GALS ]
Beginning LAMARCKIAN GENETIC ALGORITHM (LGA), with a maximum of 2500000 energy evaluations.

Final-Value: -14.256


	FINAL GENETIC ALGORITHM DOCKED STATE
	_______________________________________________


Detailed state:  trans 26.347 -15.754 -0.368 quatxyzw -0.870452 -0.378023 -0.134088 -0.285363 center -0.973 -0.390 0.234 ntor 6 -25.7878 86.4650 33.9017 -150.2602 24.4133 -29.5520
State:	 26.347 -15.754  -0.368  -0.908 -0.394 -0.140 -146.839    -25.79   86.46   33.90 -150.26   24.41  -29.55

DOCKED: MODEL       64
DOCKED: USER    Run = 64
DOCKED: USER    DPF = ligand_dock.biased.dpf
DOCKED: USER  
DOCKED: USER    Estimated Free Energy of Binding    =  -11.33 kcal/mol  [=(1)+(2)+(3)-(4)]
DOCKED: USER    Estimated Inhibition Constant, Ki   =    4.95 nM (nanomolar)  [Temperature = 298.15 K]
DOCKED: USER    
DOCKED: USER    (1) Final Intermolecular Energy     =  -13.12 kcal/mol
DOCKED: USER        vdW + Hbond + desolv Energy     =  -13.12 kcal/mol
DOCKED: USER        Electrostatic Energy            =   +0.00 kcal/mol
DOCKED: USER    (2) Final Total Internal Energy     =   -1.14 kcal/mol
DOCKED: USER    (3) Torsional Free Energy           =   +1.79 kcal/mol
DOCKED: USER    (4) Unbound System's Energy  [=(2)] =   -1.14 kcal/mol
DOCKED: USER    
DOCKED: USER    
DOCKED: USER    NEWDPF move ligand.pdbqt
DOCKED: USER    NEWDPF about -0.973000 -0.390000 0.234000
DOCKED: USER    NEWDPF tran0 26.347282 -15.753547 -0.368204
DOCKED: USER    NEWDPF quaternion0 -0.870452 -0.378023 -0.134088 -0.285363
DOCKED: USER    NEWDPF axisangle0 -0.908216 -0.394423 -0.139906 -146.838902
DOCKED: USER    NEWDPF quat0 -0.908216 -0.394423 -0.139906 -146.838902
DOCKED: USER    NEWDPF dihe0 -25.79 86.46 33.90 -150.26 24.41 -29.55 
DOCKED: USER  keepresnum = 1 
DOCKED: USER  
DOCKED: REMARK  Name = 
DOCKED: REMARK  10 active torsions:
DOCKED: REMARK  status: ('A' for Active; 'I' for Inactive)
DOCKED: REMARK    1  A    between atoms: C_1  and  N_2
DOCKED: REMARK    2  A    between atoms: N_2  and  C_3
DOCKED: REMARK    3  A    between atoms: N_2  and  C_22
DOCKED: REMARK    4  A    between atoms: C_6  and  C_9
DOCKED: REMARK    5  A    between atoms: C_9  and  C_10
DOCKED: REMARK    6  A    between atoms: C_10  and  C_11
DOCKED: REMARK    7  A    between atoms: C_10  and  C_20
DOCKED: REMARK    8  A    between atoms: C_12  and  C_13
DOCKED: REMARK    9  A    between atoms: C_12  and  C_19
DOCKED: REMARK   10  A    between atoms: C_14  and  C_15
DOCKED: REMARK                            x       y       z     vdW  Elec       q    Type
DOCKED: REMARK                         _______ _______ _______ _____ _____    ______ ____
DOCKED: USER                              x       y       z     vdW  Elec       q    Type
DOCKED: USER                           _______ _______ _______ _____ _____    ______ ____
DOCKED: ROOT
DOCKED: ATOM      1  C   UNL     1      27.187 -15.672  -1.727 -0.34 -0.00    +0.000 C 
DOCKED: ATOM      2  C   UNL     1      27.904 -15.568  -3.076 -0.30 -0.00    +0.000 C 
DOCKED: ENDROOT
DOCKED: BRANCH   1   3
DOCKED: ATOM      3  C   UNL     1      25.788 -16.222  -1.922 -0.54 -0.00    +0.000 C 
DOCKED: ATOM      4  C   UNL     1      25.345 -17.398  -1.428 -0.64 -0.00    +0.000 C 
DOCKED: ATOM      5  C   UNL     1      26.230 -18.298  -0.594 -0.59 -0.00    +0.000 C 
DOCKED: BRANCH   4   6
DOCKED: ATOM      6  C   UNL     1      23.931 -17.771  -1.688 -0.65 -0.00    +0.000 C 
DOCKED: ATOM      7  C   UNL     1      23.037 -17.976  -0.711 -0.81 -0.00    +0.000 C 
DOCKED: BRANCH   7   8
DOCKED: ATOM      8  C   UNL     1      21.627 -18.345  -0.958 -0.77 -0.00    +0.000 C 
DOCKED: ATOM      9  N   UNL     1      21.250 -19.620  -1.490 -0.68 -0.00    +0.000 N 
DOCKED: ATOM     10  O   UNL     1      19.943 -19.949  -1.602 -2.18 -0.00    +0.000 OA
DOCKED: ATOM     11  O   UNL     1      20.732 -17.493  -0.712 -2.08 +0.00    +0.000 OA
DOCKED: ATOM     12  H   UNL     1      21.944 -20.258  -1.776 -0.44 -0.00    +0.000 HD
DOCKED: ENDBRANCH   7   8
DOCKED: ENDBRANCH   4   6
DOCKED: ENDBRANCH   1   3
DOCKED: BRANCH   1  13
DOCKED: ATOM     13  C   UNL     1      27.140 -14.309  -1.064 -0.26 -0.00    +0.000 C 
DOCKED: ATOM     14  O   UNL     1      26.802 -13.305  -1.750 -0.23 -0.00    +0.000 OA
DOCKED: BRANCH  13  18
DOCKED: ATOM     15  C   UNL     1      28.260 -13.763   3.076 -0.31 -0.00    +0.000 A 
DOCKED: ATOM     16  C   UNL     1      29.144 -14.351   2.151 -0.13 -0.00    +0.000 A 
DOCKED: ATOM     17  C   UNL     1      28.774 -14.525   0.816 -0.18 -0.00    +0.000 A 
DOCKED: ATOM     18  C   UNL     1      27.513 -14.109   0.361 -0.23 -0.00    +0.000 A 
DOCKED: ATOM     19  C   UNL     1      26.621 -13.531   1.281 -0.21 -0.00    +0.000 A 
DOCKED: ATOM     20  C   UNL     1      26.990 -13.358   2.618 -0.32 -0.00    +0.000 A 
DOCKED: BRANCH  15  22
DOCKED: ATOM     21  C   UNL     1      27.764 -12.864   5.396 -0.48 -0.00    +0.000 C 
DOCKED: ATOM     22  N   UNL     1      28.644 -13.581   4.464 -0.37 -0.00    +0.000 N 
DOCKED: ATOM     23  C   UNL     1      29.921 -14.111   4.962 -0.37 -0.00    +0.000 C 
DOCKED: ENDBRANCH  15  22
DOCKED: ENDBRANCH  13  18
DOCKED: ENDBRANCH   1  13
DOCKED: TORSDOF 6
DOCKED: TER
DOCKED: ENDMDL
________________________________________________________________________________


	BEGINNING GENETIC ALGORITHM DOCKING 65 of 100
Run: 65 Seed: 1692094816 1665668615 [ Run 65 of 100 GA/GALS ]
Beginning LAMARCKIAN GENETIC ALGORITHM (LGA), with a maximum of 2500000 energy evaluations.

Final-Value: -14.271


	FINAL GENETIC ALGORITHM DOCKED STATE
	_______________________________________________


Detailed state:  trans 26.695 -15.703 -0.847 quatxyzw 0.897567 0.332536 0.088528 0.275602 center -0.973 -0.390 0.234 ntor 6 100.4452 114.3624 -47.0460 40.1599 54.8541 -50.4166
State:	 26.695 -15.703  -0.847   0.934  0.346  0.092 148.004    100.45  114.36  -47.05   40.16   54.85  -50.42

DOCKED: MODEL       65
DOCKED: USER    Run = 65
DOCKED: USER    DPF = ligand_dock.biased.dpf
DOCKED: USER  
DOCKED: USER    Estimated Free Energy of Binding    =  -11.18 kcal/mol  [=(1)+(2)+(3)-(4)]
DOCKED: USER    Estimated Inhibition Constant, Ki   =    6.34 nM (nanomolar)  [Temperature = 298.15 K]
DOCKED: USER    
DOCKED: USER    (1) Final Intermolecular Energy     =  -12.97 kcal/mol
DOCKED: USER        vdW + Hbond + desolv Energy     =  -12.97 kcal/mol
DOCKED: USER        Electrostatic Energy            =   +0.00 kcal/mol
DOCKED: USER    (2) Final Total Internal Energy     =   -1.30 kcal/mol
DOCKED: USER    (3) Torsional Free Energy           =   +1.79 kcal/mol
DOCKED: USER    (4) Unbound System's Energy  [=(2)] =   -1.30 kcal/mol
DOCKED: USER    
DOCKED: USER    
DOCKED: USER    NEWDPF move ligand.pdbqt
DOCKED: USER    NEWDPF about -0.973000 -0.390000 0.234000
DOCKED: USER    NEWDPF tran0 26.695035 -15.703006 -0.847333
DOCKED: USER    NEWDPF quaternion0 0.897567 0.332536 0.088528 0.275602
DOCKED: USER    NEWDPF axisangle0 0.933728 0.345934 0.092095 148.004201
DOCKED: USER    NEWDPF quat0 0.933728 0.345934 0.092095 148.004201
DOCKED: USER    NEWDPF dihe0 100.45 114.36 -47.05 40.16 54.85 -50.42 
DOCKED: USER  keepresnum = 1 
DOCKED: USER  
DOCKED: REMARK  Name = 
DOCKED: REMARK  10 active torsions:
DOCKED: REMARK  status: ('A' for Active; 'I' for Inactive)
DOCKED: REMARK    1  A    between atoms: C_1  and  N_2
DOCKED: REMARK    2  A    between atoms: N_2  and  C_3
DOCKED: REMARK    3  A    between atoms: N_2  and  C_22
DOCKED: REMARK    4  A    between atoms: C_6  and  C_9
DOCKED: REMARK    5  A    between atoms: C_9  and  C_10
DOCKED: REMARK    6  A    between atoms: C_10  and  C_11
DOCKED: REMARK    7  A    between atoms: C_10  and  C_20
DOCKED: REMARK    8  A    between atoms: C_12  and  C_13
DOCKED: REMARK    9  A    between atoms: C_12  and  C_19
DOCKED: REMARK   10  A    between atoms: C_14  and  C_15
DOCKED: REMARK                            x       y       z     vdW  Elec       q    Type
DOCKED: REMARK                         _______ _______ _______ _____ _____    ______ ____
DOCKED: USER                              x       y       z     vdW  Elec       q    Type
DOCKED: USER                           _______ _______ _______ _____ _____    ______ ____
DOCKED: ROOT
DOCKED: ATOM      1  C   UNL     1      27.388 -15.757  -2.287 -0.33 -0.00    +0.000 C 
DOCKED: ATOM      2  C   UNL     1      27.963 -15.778  -3.707 -0.29 -0.00    +0.000 C 
DOCKED: ENDROOT
DOCKED: BRANCH   1   3
DOCKED: ATOM      3  C   UNL     1      25.940 -16.204  -2.306 -0.52 -0.00    +0.000 C 
DOCKED: ATOM      4  C   UNL     1      25.333 -16.897  -1.318 -0.62 -0.00    +0.000 C 
DOCKED: ATOM      5  C   UNL     1      26.065 -17.292  -0.054 -0.47 -0.00    +0.000 C 
DOCKED: BRANCH   4   6
DOCKED: ATOM      6  C   UNL     1      23.895 -17.227  -1.485 -0.65 -0.00    +0.000 C 
DOCKED: ATOM      7  C   UNL     1      23.288 -18.213  -0.810 -0.82 -0.00    +0.000 C 
DOCKED: BRANCH   7   8
DOCKED: ATOM      8  C   UNL     1      21.857 -18.549  -0.966 -0.82 -0.00    +0.000 C 
DOCKED: ATOM      9  N   UNL     1      21.406 -19.599  -1.830 -0.50 -0.00    +0.000 N 
DOCKED: ATOM     10  O   UNL     1      20.096 -19.936  -1.861 -2.28 -0.00    +0.000 OA
DOCKED: ATOM     11  O   UNL     1      21.009 -17.868  -0.331 -1.94 +0.00    +0.000 OA
DOCKED: ATOM     12  H   UNL     1      22.050 -20.075  -2.404 -0.60 -0.00    +0.000 HD
DOCKED: ENDBRANCH   7   8
DOCKED: ENDBRANCH   4   6
DOCKED: ENDBRANCH   1   3
DOCKED: BRANCH   1  13
DOCKED: ATOM     13  C   UNL     1      27.512 -14.363  -1.704 -0.22 -0.00    +0.000 C 
DOCKED: ATOM     14  O   UNL     1      27.569 -13.373  -2.486 -0.17 -0.00    +0.000 OA
DOCKED: BRANCH  13  18
DOCKED: ATOM     15  C   UNL     1      27.747 -13.625   2.549 -0.30 -0.00    +0.000 A 
DOCKED: ATOM     16  C   UNL     1      26.635 -13.203   1.794 -0.27 -0.00    +0.000 A 
DOCKED: ATOM     17  C   UNL     1      26.568 -13.444   0.420 -0.28 -0.00    +0.000 A 
DOCKED: ATOM     18  C   UNL     1      27.604 -14.123  -0.240 -0.20 -0.00    +0.000 A 
DOCKED: ATOM     19  C   UNL     1      28.721 -14.536   0.505 -0.17 -0.00    +0.000 A 
DOCKED: ATOM     20  C   UNL     1      28.791 -14.294   1.879 -0.17 -0.00    +0.000 A 
DOCKED: BRANCH  15  22
DOCKED: ATOM     21  C   UNL     1      27.762 -12.004   4.501 -0.36 +0.00    +0.000 C 
DOCKED: ATOM     22  N   UNL     1      27.817 -13.375   3.978 -0.41 -0.00    +0.000 N 
DOCKED: ATOM     23  C   UNL     1      27.943 -14.490   4.926 -0.59 -0.00    +0.000 C 
DOCKED: ENDBRANCH  15  22
DOCKED: ENDBRANCH  13  18
DOCKED: ENDBRANCH   1  13
DOCKED: TORSDOF 6
DOCKED: TER
DOCKED: ENDMDL
________________________________________________________________________________


	BEGINNING GENETIC ALGORITHM DOCKING 66 of 100
Run: 66 Seed: 646410942 1297902812 [ Run 66 of 100 GA/GALS ]
Beginning LAMARCKIAN GENETIC ALGORITHM (LGA), with a maximum of 2500000 energy evaluations.

Final-Value: -13.485


	FINAL GENETIC ALGORITHM DOCKED STATE
	_______________________________________________


Detailed state:  trans 25.401 -14.633 -2.881 quatxyzw -0.691980 -0.524692 0.082382 0.488954 center -0.973 -0.390 0.234 ntor 6 139.3179 -111.1619 164.8206 71.3910 -39.5872 -27.1140
State:	 25.401 -14.633  -2.881  -0.793 -0.601  0.094 121.456    139.32 -111.16  164.82   71.39  -39.59  -27.11

DOCKED: MODEL       66
DOCKED: USER    Run = 66
DOCKED: USER    DPF = ligand_dock.biased.dpf
DOCKED: USER  
DOCKED: USER    Estimated Free Energy of Binding    =  -10.82 kcal/mol  [=(1)+(2)+(3)-(4)]
DOCKED: USER    Estimated Inhibition Constant, Ki   =   11.81 nM (nanomolar)  [Temperature = 298.15 K]
DOCKED: USER    
DOCKED: USER    (1) Final Intermolecular Energy     =  -12.61 kcal/mol
DOCKED: USER        vdW + Hbond + desolv Energy     =  -12.61 kcal/mol
DOCKED: USER        Electrostatic Energy            =   +0.00 kcal/mol
DOCKED: USER    (2) Final Total Internal Energy     =   -0.88 kcal/mol
DOCKED: USER    (3) Torsional Free Energy           =   +1.79 kcal/mol
DOCKED: USER    (4) Unbound System's Energy  [=(2)] =   -0.88 kcal/mol
DOCKED: USER    
DOCKED: USER    
DOCKED: USER    NEWDPF move ligand.pdbqt
DOCKED: USER    NEWDPF about -0.973000 -0.390000 0.234000
DOCKED: USER    NEWDPF tran0 25.401219 -14.633248 -2.880670
DOCKED: USER    NEWDPF quaternion0 -0.691980 -0.524692 0.082382 0.488954
DOCKED: USER    NEWDPF axisangle0 -0.793273 -0.601497 0.094441 121.456280
DOCKED: USER    NEWDPF quat0 -0.793273 -0.601497 0.094441 121.456280
DOCKED: USER    NEWDPF dihe0 139.32 -111.16 164.82 71.39 -39.59 -27.11 
DOCKED: USER  keepresnum = 1 
DOCKED: USER  
DOCKED: REMARK  Name = 
DOCKED: REMARK  10 active torsions:
DOCKED: REMARK  status: ('A' for Active; 'I' for Inactive)
DOCKED: REMARK    1  A    between atoms: C_1  and  N_2
DOCKED: REMARK    2  A    between atoms: N_2  and  C_3
DOCKED: REMARK    3  A    between atoms: N_2  and  C_22
DOCKED: REMARK    4  A    between atoms: C_6  and  C_9
DOCKED: REMARK    5  A    between atoms: C_9  and  C_10
DOCKED: REMARK    6  A    between atoms: C_10  and  C_11
DOCKED: REMARK    7  A    between atoms: C_10  and  C_20
DOCKED: REMARK    8  A    between atoms: C_12  and  C_13
DOCKED: REMARK    9  A    between atoms: C_12  and  C_19
DOCKED: REMARK   10  A    between atoms: C_14  and  C_15
DOCKED: REMARK                            x       y       z     vdW  Elec       q    Type
DOCKED: REMARK                         _______ _______ _______ _____ _____    ______ ____
DOCKED: USER                              x       y       z     vdW  Elec       q    Type
DOCKED: USER                           _______ _______ _______ _____ _____    ______ ____
DOCKED: ROOT
DOCKED: ATOM      1  C   UNL     1      26.759 -15.476  -2.816 -0.41 -0.00    +0.000 C 
DOCKED: ATOM      2  C   UNL     1      28.003 -16.367  -2.775 -0.27 -0.00    +0.000 C 
DOCKED: ENDROOT
DOCKED: BRANCH   1   3
DOCKED: ATOM      3  C   UNL     1      25.567 -16.220  -2.247 -0.56 -0.00    +0.000 C 
DOCKED: ATOM      4  C   UNL     1      25.544 -16.839  -1.046 -0.60 -0.00    +0.000 C 
DOCKED: ATOM      5  C   UNL     1      26.742 -16.834  -0.123 -0.46 -0.00    +0.000 C 
DOCKED: BRANCH   4   6
DOCKED: ATOM      6  C   UNL     1      24.279 -17.495  -0.628 -0.71 -0.00    +0.000 C 
DOCKED: ATOM      7  C   UNL     1      23.249 -17.695  -1.462 -0.62 -0.00    +0.000 C 
DOCKED: BRANCH   7   8
DOCKED: ATOM      8  C   UNL     1      21.987 -18.349  -1.058 -0.77 -0.00    +0.000 C 
DOCKED: ATOM      9  N   UNL     1      21.419 -19.440  -1.794 -0.59 -0.00    +0.000 N 
DOCKED: ATOM     10  O   UNL     1      20.318 -20.072  -1.327 -2.07 -0.00    +0.000 OA
DOCKED: ATOM     11  O   UNL     1      21.381 -17.911  -0.044 -1.43 -0.00    +0.000 OA
DOCKED: ATOM     12  H   UNL     1      21.831 -19.729  -2.641 -0.46 -0.00    +0.000 HD
DOCKED: ENDBRANCH   7   8
DOCKED: ENDBRANCH   4   6
DOCKED: ENDBRANCH   1   3
DOCKED: BRANCH   1  13
DOCKED: ATOM     13  C   UNL     1      26.487 -15.039  -4.242 -0.53 -0.00    +0.000 C 
DOCKED: ATOM     14  O   UNL     1      26.490 -15.906  -5.160 -1.02 +0.00    +0.000 OA
DOCKED: BRANCH  13  18
DOCKED: ATOM     15  C   UNL     1      25.752 -10.912  -5.297 -0.28 -0.00    +0.000 A 
DOCKED: ATOM     16  C   UNL     1      24.726 -11.730  -4.786 -0.29 -0.00    +0.000 A 
DOCKED: ATOM     17  C   UNL     1      24.971 -13.062  -4.449 -0.18 -0.00    +0.000 A 
DOCKED: ATOM     18  C   UNL     1      26.252 -13.617  -4.603 -0.30 -0.00    +0.000 A 
DOCKED: ATOM     19  C   UNL     1      27.278 -12.810  -5.123 -0.22 -0.00    +0.000 A 
DOCKED: ATOM     20  C   UNL     1      27.033 -11.477  -5.463 -0.17 -0.00    +0.000 A 
DOCKED: BRANCH  15  22
DOCKED: ATOM     21  C   UNL     1      24.129  -9.058  -5.901 -0.38 -0.00    +0.000 C 
DOCKED: ATOM     22  N   UNL     1      25.498  -9.525  -5.647 -0.20 -0.00    +0.000 N 
DOCKED: ATOM     23  C   UNL     1      26.605  -8.566  -5.753 -0.08 -0.00    +0.000 C 
DOCKED: ENDBRANCH  15  22
DOCKED: ENDBRANCH  13  18
DOCKED: ENDBRANCH   1  13
DOCKED: TORSDOF 6
DOCKED: TER
DOCKED: ENDMDL
________________________________________________________________________________


	BEGINNING GENETIC ALGORITHM DOCKING 67 of 100
Run: 67 Seed: 4386967 640892156 [ Run 67 of 100 GA/GALS ]
Beginning LAMARCKIAN GENETIC ALGORITHM (LGA), with a maximum of 2500000 energy evaluations.

Final-Value: -14.072


	FINAL GENETIC ALGORITHM DOCKED STATE
	_______________________________________________


Detailed state:  trans 26.661 -15.726 -1.186 quatxyzw -0.855577 -0.363957 -0.066088 -0.362155 center -0.973 -0.390 0.234 ntor 6 170.7443 85.3970 -11.2943 -147.1724 58.6688 -44.3340
State:	 26.661 -15.726  -1.186  -0.918 -0.390 -0.071 -137.535    170.74   85.40  -11.29 -147.17   58.67  -44.33

DOCKED: MODEL       67
DOCKED: USER    Run = 67
DOCKED: USER    DPF = ligand_dock.biased.dpf
DOCKED: USER  
DOCKED: USER    Estimated Free Energy of Binding    =  -10.97 kcal/mol  [=(1)+(2)+(3)-(4)]
DOCKED: USER    Estimated Inhibition Constant, Ki   =    9.03 nM (nanomolar)  [Temperature = 298.15 K]
DOCKED: USER    
DOCKED: USER    (1) Final Intermolecular Energy     =  -12.76 kcal/mol
DOCKED: USER        vdW + Hbond + desolv Energy     =  -12.76 kcal/mol
DOCKED: USER        Electrostatic Energy            =   +0.00 kcal/mol
DOCKED: USER    (2) Final Total Internal Energy     =   -1.31 kcal/mol
DOCKED: USER    (3) Torsional Free Energy           =   +1.79 kcal/mol
DOCKED: USER    (4) Unbound System's Energy  [=(2)] =   -1.31 kcal/mol
DOCKED: USER    
DOCKED: USER    
DOCKED: USER    NEWDPF move ligand.pdbqt
DOCKED: USER    NEWDPF about -0.973000 -0.390000 0.234000
DOCKED: USER    NEWDPF tran0 26.660659 -15.725810 -1.185774
DOCKED: USER    NEWDPF quaternion0 -0.855577 -0.363957 -0.066088 -0.362155
DOCKED: USER    NEWDPF axisangle0 -0.917885 -0.390462 -0.070901 -137.534807
DOCKED: USER    NEWDPF quat0 -0.917885 -0.390462 -0.070901 -137.534807
DOCKED: USER    NEWDPF dihe0 170.74 85.40 -11.29 -147.17 58.67 -44.33 
DOCKED: USER  keepresnum = 1 
DOCKED: USER  
DOCKED: REMARK  Name = 
DOCKED: REMARK  10 active torsions:
DOCKED: REMARK  status: ('A' for Active; 'I' for Inactive)
DOCKED: REMARK    1  A    between atoms: C_1  and  N_2
DOCKED: REMARK    2  A    between atoms: N_2  and  C_3
DOCKED: REMARK    3  A    between atoms: N_2  and  C_22
DOCKED: REMARK    4  A    between atoms: C_6  and  C_9
DOCKED: REMARK    5  A    between atoms: C_9  and  C_10
DOCKED: REMARK    6  A    between atoms: C_10  and  C_11
DOCKED: REMARK    7  A    between atoms: C_10  and  C_20
DOCKED: REMARK    8  A    between atoms: C_12  and  C_13
DOCKED: REMARK    9  A    between atoms: C_12  and  C_19
DOCKED: REMARK   10  A    between atoms: C_14  and  C_15
DOCKED: REMARK                            x       y       z     vdW  Elec       q    Type
DOCKED: REMARK                         _______ _______ _______ _____ _____    ______ ____
DOCKED: USER                              x       y       z     vdW  Elec       q    Type
DOCKED: USER                           _______ _______ _______ _____ _____    ______ ____
DOCKED: ROOT
DOCKED: ATOM      1  C   UNL     1      27.236 -15.477  -2.657 -0.34 -0.00    +0.000 C 
DOCKED: ATOM      2  C   UNL     1      27.692 -15.213  -4.095 -0.37 -0.00    +0.000 C 
DOCKED: ENDROOT
DOCKED: BRANCH   1   3
DOCKED: ATOM      3  C   UNL     1      25.846 -16.083  -2.655 -0.53 -0.00    +0.000 C 
DOCKED: ATOM      4  C   UNL     1      25.374 -16.929  -1.714 -0.61 -0.00    +0.000 C 
DOCKED: ATOM      5  C   UNL     1      26.213 -17.353  -0.529 -0.60 -0.00    +0.000 C 
DOCKED: BRANCH   4   6
DOCKED: ATOM      6  C   UNL     1      23.974 -17.404  -1.848 -0.51 -0.00    +0.000 C 
DOCKED: ATOM      7  C   UNL     1      23.302 -17.991  -0.848 -0.80 -0.00    +0.000 C 
DOCKED: BRANCH   7   8
DOCKED: ATOM      8  C   UNL     1      21.907 -18.465  -0.969 -0.81 -0.00    +0.000 C 
DOCKED: ATOM      9  N   UNL     1      21.543 -19.569  -1.807 -0.46 -0.00    +0.000 N 
DOCKED: ATOM     10  O   UNL     1      20.271 -20.031  -1.806 -2.30 -0.00    +0.000 OA
DOCKED: ATOM     11  O   UNL     1      21.009 -17.857  -0.329 -1.92 +0.00    +0.000 OA
DOCKED: ATOM     12  H   UNL     1      22.219 -19.992  -2.386 -0.57 -0.00    +0.000 HD
DOCKED: ENDBRANCH   7   8
DOCKED: ENDBRANCH   4   6
DOCKED: ENDBRANCH   1   3
DOCKED: BRANCH   1  13
DOCKED: ATOM     13  C   UNL     1      27.259 -14.184  -1.865 -0.24 -0.00    +0.000 C 
DOCKED: ATOM     14  O   UNL     1      27.032 -13.095  -2.463 -0.21 -0.00    +0.000 OA
DOCKED: BRANCH  13  18
DOCKED: ATOM     15  C   UNL     1      28.215 -14.122   2.350 -0.27 -0.00    +0.000 A 
DOCKED: ATOM     16  C   UNL     1      29.124 -14.631   1.402 -0.07 -0.00    +0.000 A 
DOCKED: ATOM     17  C   UNL     1      28.806 -14.648   0.042 -0.16 -0.00    +0.000 A 
DOCKED: ATOM     18  C   UNL     1      27.576 -14.150  -0.414 -0.20 -0.00    +0.000 A 
DOCKED: ATOM     19  C   UNL     1      26.660 -13.651   0.528 -0.27 -0.00    +0.000 A 
DOCKED: ATOM     20  C   UNL     1      26.975 -13.635   1.889 -0.23 -0.00    +0.000 A 
DOCKED: BRANCH  15  22
DOCKED: ATOM     21  C   UNL     1      29.913 -14.380   4.217 -0.36 -0.00    +0.000 C 
DOCKED: ATOM     22  N   UNL     1      28.544 -14.103   3.765 -0.39 -0.00    +0.000 N 
DOCKED: ATOM     23  C   UNL     1      27.513 -13.805   4.767 -0.56 -0.00    +0.000 C 
DOCKED: ENDBRANCH  15  22
DOCKED: ENDBRANCH  13  18
DOCKED: ENDBRANCH   1  13
DOCKED: TORSDOF 6
DOCKED: TER
DOCKED: ENDMDL
________________________________________________________________________________


	BEGINNING GENETIC ALGORITHM DOCKING 68 of 100
Run: 68 Seed: 1141083055 1711628370 [ Run 68 of 100 GA/GALS ]
Beginning LAMARCKIAN GENETIC ALGORITHM (LGA), with a maximum of 2500000 energy evaluations.

Final-Value: -14.017


	FINAL GENETIC ALGORITHM DOCKED STATE
	_______________________________________________


Detailed state:  trans 26.470 -15.268 -0.788 quatxyzw -0.878118 -0.313787 0.010424 -0.361023 center -0.973 -0.390 0.234 ntor 6 95.3361 147.0310 -60.4019 -143.0162 31.4305 -62.0334
State:	 26.470 -15.268  -0.788  -0.942 -0.336  0.011 -137.674     95.34  147.03  -60.40 -143.02   31.43  -62.03

DOCKED: MODEL       68
DOCKED: USER    Run = 68
DOCKED: USER    DPF = ligand_dock.biased.dpf
DOCKED: USER  
DOCKED: USER    Estimated Free Energy of Binding    =  -11.00 kcal/mol  [=(1)+(2)+(3)-(4)]
DOCKED: USER    Estimated Inhibition Constant, Ki   =    8.67 nM (nanomolar)  [Temperature = 298.15 K]
DOCKED: USER    
DOCKED: USER    (1) Final Intermolecular Energy     =  -12.79 kcal/mol
DOCKED: USER        vdW + Hbond + desolv Energy     =  -12.79 kcal/mol
DOCKED: USER        Electrostatic Energy            =   +0.00 kcal/mol
DOCKED: USER    (2) Final Total Internal Energy     =   -1.23 kcal/mol
DOCKED: USER    (3) Torsional Free Energy           =   +1.79 kcal/mol
DOCKED: USER    (4) Unbound System's Energy  [=(2)] =   -1.23 kcal/mol
DOCKED: USER    
DOCKED: USER    
DOCKED: USER    NEWDPF move ligand.pdbqt
DOCKED: USER    NEWDPF about -0.973000 -0.390000 0.234000
DOCKED: USER    NEWDPF tran0 26.470409 -15.268251 -0.787877
DOCKED: USER    NEWDPF quaternion0 -0.878118 -0.313787 0.010424 -0.361023
DOCKED: USER    NEWDPF axisangle0 -0.941624 -0.336480 0.011178 -137.673882
DOCKED: USER    NEWDPF quat0 -0.941624 -0.336480 0.011178 -137.673882
DOCKED: USER    NEWDPF dihe0 95.34 147.03 -60.40 -143.02 31.43 -62.03 
DOCKED: USER  keepresnum = 1 
DOCKED: USER  
DOCKED: REMARK  Name = 
DOCKED: REMARK  10 active torsions:
DOCKED: REMARK  status: ('A' for Active; 'I' for Inactive)
DOCKED: REMARK    1  A    between atoms: C_1  and  N_2
DOCKED: REMARK    2  A    between atoms: N_2  and  C_3
DOCKED: REMARK    3  A    between atoms: N_2  and  C_22
DOCKED: REMARK    4  A    between atoms: C_6  and  C_9
DOCKED: REMARK    5  A    between atoms: C_9  and  C_10
DOCKED: REMARK    6  A    between atoms: C_10  and  C_11
DOCKED: REMARK    7  A    between atoms: C_10  and  C_20
DOCKED: REMARK    8  A    between atoms: C_12  and  C_13
DOCKED: REMARK    9  A    between atoms: C_12  and  C_19
DOCKED: REMARK   10  A    between atoms: C_14  and  C_15
DOCKED: REMARK                            x       y       z     vdW  Elec       q    Type
DOCKED: REMARK                         _______ _______ _______ _____ _____    ______ ____
DOCKED: USER                              x       y       z     vdW  Elec       q    Type
DOCKED: USER                           _______ _______ _______ _____ _____    ______ ____
DOCKED: ROOT
DOCKED: ATOM      1  C   UNL     1      26.797 -15.143  -2.348 -0.36 -0.00    +0.000 C 
DOCKED: ATOM      2  C   UNL     1      27.011 -14.995  -3.857 -0.42 -0.00    +0.000 C 
DOCKED: ENDROOT
DOCKED: BRANCH   1   3
DOCKED: ATOM      3  C   UNL     1      25.404 -15.674  -2.071 -0.51 -0.00    +0.000 C 
DOCKED: ATOM      4  C   UNL     1      25.131 -16.798  -1.374 -0.63 -0.00    +0.000 C 
DOCKED: ATOM      5  C   UNL     1      26.226 -17.652  -0.775 -0.60 -0.00    +0.000 C 
DOCKED: BRANCH   4   6
DOCKED: ATOM      6  C   UNL     1      23.704 -17.156  -1.167 -0.68 -0.00    +0.000 C 
DOCKED: ATOM      7  C   UNL     1      23.268 -18.423  -1.120 -0.81 -0.00    +0.000 C 
DOCKED: BRANCH   7   8
DOCKED: ATOM      8  C   UNL     1      21.852 -18.791  -0.912 -0.84 -0.00    +0.000 C 
DOCKED: ATOM      9  N   UNL     1      21.166 -19.713  -1.768 -0.60 -0.00    +0.000 N 
DOCKED: ATOM     10  O   UNL     1      19.902 -20.097  -1.478 -2.06 -0.00    +0.000 OA
DOCKED: ATOM     11  O   UNL     1      21.225 -18.253   0.039 -1.42 -0.00    +0.000 OA
DOCKED: ATOM     12  H   UNL     1      21.616 -20.067  -2.571 -0.60 -0.00    +0.000 HD
DOCKED: ENDBRANCH   7   8
DOCKED: ENDBRANCH   4   6
DOCKED: ENDBRANCH   1   3
DOCKED: BRANCH   1  13
DOCKED: ATOM     13  C   UNL     1      27.007 -13.806  -1.666 -0.24 -0.00    +0.000 C 
DOCKED: ATOM     14  O   UNL     1      27.057 -12.759  -2.370 -0.19 -0.00    +0.000 OA
DOCKED: BRANCH  13  18
DOCKED: ATOM     15  C   UNL     1      27.578 -13.504   2.609 -0.30 -0.00    +0.000 A 
DOCKED: ATOM     16  C   UNL     1      28.495 -14.198   1.796 -0.21 -0.00    +0.000 A 
DOCKED: ATOM     17  C   UNL     1      28.303 -14.292   0.416 -0.19 -0.00    +0.000 A 
DOCKED: ATOM     18  C   UNL     1      27.193 -13.688  -0.196 -0.22 -0.00    +0.000 A 
DOCKED: ATOM     19  C   UNL     1      26.268 -13.004   0.610 -0.30 -0.00    +0.000 A 
DOCKED: ATOM     20  C   UNL     1      26.458 -12.911   1.992 -0.25 -0.00    +0.000 A 
DOCKED: BRANCH  15  22
DOCKED: ATOM     21  C   UNL     1      27.751 -14.607   4.887 -0.58 -0.00    +0.000 C 
DOCKED: ATOM     22  N   UNL     1      27.777 -13.405   4.044 -0.42 -0.00    +0.000 N 
DOCKED: ATOM     23  C   UNL     1      28.010 -12.101   4.678 -0.37 +0.00    +0.000 C 
DOCKED: ENDBRANCH  15  22
DOCKED: ENDBRANCH  13  18
DOCKED: ENDBRANCH   1  13
DOCKED: TORSDOF 6
DOCKED: TER
DOCKED: ENDMDL
________________________________________________________________________________


	BEGINNING GENETIC ALGORITHM DOCKING 69 of 100
Run: 69 Seed: 56159614 1257820479 [ Run 69 of 100 GA/GALS ]
Beginning LAMARCKIAN GENETIC ALGORITHM (LGA), with a maximum of 2500000 energy evaluations.

Final-Value: -14.235


	FINAL GENETIC ALGORITHM DOCKED STATE
	_______________________________________________


Detailed state:  trans 26.301 -15.532 -0.927 quatxyzw 0.890635 0.278184 -0.034842 0.358006 center -0.973 -0.390 0.234 ntor 6 105.5686 -132.3383 -75.0688 -142.7623 39.7529 -66.2953
State:	 26.301 -15.532  -0.927   0.954  0.298 -0.037 138.044    105.57 -132.34  -75.07 -142.76   39.75  -66.30

DOCKED: MODEL       69
DOCKED: USER    Run = 69
DOCKED: USER    DPF = ligand_dock.biased.dpf
DOCKED: USER  
DOCKED: USER    Estimated Free Energy of Binding    =  -11.16 kcal/mol  [=(1)+(2)+(3)-(4)]
DOCKED: USER    Estimated Inhibition Constant, Ki   =    6.60 nM (nanomolar)  [Temperature = 298.15 K]
DOCKED: USER    
DOCKED: USER    (1) Final Intermolecular Energy     =  -12.95 kcal/mol
DOCKED: USER        vdW + Hbond + desolv Energy     =  -12.95 kcal/mol
DOCKED: USER        Electrostatic Energy            =   +0.00 kcal/mol
DOCKED: USER    (2) Final Total Internal Energy     =   -1.29 kcal/mol
DOCKED: USER    (3) Torsional Free Energy           =   +1.79 kcal/mol
DOCKED: USER    (4) Unbound System's Energy  [=(2)] =   -1.29 kcal/mol
DOCKED: USER    
DOCKED: USER    
DOCKED: USER    NEWDPF move ligand.pdbqt
DOCKED: USER    NEWDPF about -0.973000 -0.390000 0.234000
DOCKED: USER    NEWDPF tran0 26.301143 -15.531900 -0.927258
DOCKED: USER    NEWDPF quaternion0 0.890635 0.278184 -0.034842 0.358006
DOCKED: USER    NEWDPF axisangle0 0.953858 0.297931 -0.037316 138.044366
DOCKED: USER    NEWDPF quat0 0.953858 0.297931 -0.037316 138.044366
DOCKED: USER    NEWDPF dihe0 105.57 -132.34 -75.07 -142.76 39.75 -66.30 
DOCKED: USER  keepresnum = 1 
DOCKED: USER  
DOCKED: REMARK  Name = 
DOCKED: REMARK  10 active torsions:
DOCKED: REMARK  status: ('A' for Active; 'I' for Inactive)
DOCKED: REMARK    1  A    between atoms: C_1  and  N_2
DOCKED: REMARK    2  A    between atoms: N_2  and  C_3
DOCKED: REMARK    3  A    between atoms: N_2  and  C_22
DOCKED: REMARK    4  A    between atoms: C_6  and  C_9
DOCKED: REMARK    5  A    between atoms: C_9  and  C_10
DOCKED: REMARK    6  A    between atoms: C_10  and  C_11
DOCKED: REMARK    7  A    between atoms: C_10  and  C_20
DOCKED: REMARK    8  A    between atoms: C_12  and  C_13
DOCKED: REMARK    9  A    between atoms: C_12  and  C_19
DOCKED: REMARK   10  A    between atoms: C_14  and  C_15
DOCKED: REMARK                            x       y       z     vdW  Elec       q    Type
DOCKED: REMARK                         _______ _______ _______ _____ _____    ______ ____
DOCKED: USER                              x       y       z     vdW  Elec       q    Type
DOCKED: USER                           _______ _______ _______ _____ _____    ______ ____
DOCKED: ROOT
DOCKED: ATOM      1  C   UNL     1      26.528 -15.469  -2.509 -0.42 -0.00    +0.000 C 
DOCKED: ATOM      2  C   UNL     1      26.648 -15.376  -4.033 -0.49 -0.00    +0.000 C 
DOCKED: ENDROOT
DOCKED: BRANCH   1   3
DOCKED: ATOM      3  C   UNL     1      25.131 -15.916  -2.124 -0.54 -0.00    +0.000 C 
DOCKED: ATOM      4  C   UNL     1      24.851 -16.905  -1.248 -0.65 -0.00    +0.000 C 
DOCKED: ATOM      5  C   UNL     1      25.943 -17.674  -0.536 -0.64 -0.00    +0.000 C 
DOCKED: BRANCH   4   6
DOCKED: ATOM      6  C   UNL     1      23.423 -17.193  -0.960 -0.70 -0.00    +0.000 C 
DOCKED: ATOM      7  C   UNL     1      22.909 -18.430  -0.979 -0.82 -0.00    +0.000 C 
DOCKED: BRANCH   7   8
DOCKED: ATOM      8  C   UNL     1      21.490 -18.729  -0.693 -0.87 -0.00    +0.000 C 
DOCKED: ATOM      9  N   UNL     1      21.070 -19.969  -0.110 -0.65 -0.00    +0.000 N 
DOCKED: ATOM     10  O   UNL     1      19.773 -20.155   0.228 -1.04 -0.00    +0.000 OA
DOCKED: ATOM     11  O   UNL     1      20.622 -17.868  -0.997 -2.25 -0.00    +0.000 OA
DOCKED: ATOM     12  H   UNL     1      21.726 -20.688   0.044 -0.56 -0.00    +0.000 HD
DOCKED: ENDBRANCH   7   8
DOCKED: ENDBRANCH   4   6
DOCKED: ENDBRANCH   1   3
DOCKED: BRANCH   1  13
DOCKED: ATOM     13  C   UNL     1      26.853 -14.126  -1.885 -0.27 -0.00    +0.000 C 
DOCKED: ATOM     14  O   UNL     1      26.989 -13.119  -2.634 -0.21 -0.00    +0.000 OA
DOCKED: BRANCH  13  18
DOCKED: ATOM     15  C   UNL     1      27.457 -13.688   2.373 -0.30 -0.00    +0.000 A 
DOCKED: ATOM     16  C   UNL     1      28.314 -14.488   1.591 -0.21 -0.00    +0.000 A 
DOCKED: ATOM     17  C   UNL     1      28.111 -14.625   0.217 -0.21 -0.00    +0.000 A 
DOCKED: ATOM     18  C   UNL     1      27.051 -13.960  -0.421 -0.23 -0.00    +0.000 A 
DOCKED: ATOM     19  C   UNL     1      26.186 -13.170   0.354 -0.26 -0.00    +0.000 A 
DOCKED: ATOM     20  C   UNL     1      26.387 -13.034   1.730 -0.25 -0.00    +0.000 A 
DOCKED: BRANCH  15  22
DOCKED: ATOM     21  C   UNL     1      27.770 -14.728   4.666 -0.60 -0.00    +0.000 C 
DOCKED: ATOM     22  N   UNL     1      27.668 -13.544   3.803 -0.42 -0.00    +0.000 N 
DOCKED: ATOM     23  C   UNL     1      27.784 -12.212   4.410 -0.36 +0.00    +0.000 C 
DOCKED: ENDBRANCH  15  22
DOCKED: ENDBRANCH  13  18
DOCKED: ENDBRANCH   1  13
DOCKED: TORSDOF 6
DOCKED: TER
DOCKED: ENDMDL
________________________________________________________________________________


	BEGINNING GENETIC ALGORITHM DOCKING 70 of 100
Run: 70 Seed: 2129573738 579690970 [ Run 70 of 100 GA/GALS ]
Beginning LAMARCKIAN GENETIC ALGORITHM (LGA), with a maximum of 2500000 energy evaluations.

Final-Value: -13.840


	FINAL GENETIC ALGORITHM DOCKED STATE
	_______________________________________________


Detailed state:  trans 26.331 -15.116 0.196 quatxyzw 0.931166 0.315554 0.180420 -0.028350 center -0.973 -0.390 0.234 ntor 6 72.4390 123.7820 8.5391 148.0570 -24.7728 -179.8373
State:	 26.331 -15.116   0.196   0.932  0.316  0.180 -176.751     72.44  123.78    8.54  148.06  -24.77 -179.84

DOCKED: MODEL       70
DOCKED: USER    Run = 70
DOCKED: USER    DPF = ligand_dock.biased.dpf
DOCKED: USER  
DOCKED: USER    Estimated Free Energy of Binding    =  -11.23 kcal/mol  [=(1)+(2)+(3)-(4)]
DOCKED: USER    Estimated Inhibition Constant, Ki   =    5.83 nM (nanomolar)  [Temperature = 298.15 K]
DOCKED: USER    
DOCKED: USER    (1) Final Intermolecular Energy     =  -13.02 kcal/mol
DOCKED: USER        vdW + Hbond + desolv Energy     =  -13.02 kcal/mol
DOCKED: USER        Electrostatic Energy            =   +0.00 kcal/mol
DOCKED: USER    (2) Final Total Internal Energy     =   -0.82 kcal/mol
DOCKED: USER    (3) Torsional Free Energy           =   +1.79 kcal/mol
DOCKED: USER    (4) Unbound System's Energy  [=(2)] =   -0.82 kcal/mol
DOCKED: USER    
DOCKED: USER    
DOCKED: USER    NEWDPF move ligand.pdbqt
DOCKED: USER    NEWDPF about -0.973000 -0.390000 0.234000
DOCKED: USER    NEWDPF tran0 26.331119 -15.116245 0.195916
DOCKED: USER    NEWDPF quaternion0 0.931166 0.315554 0.180420 -0.028350
DOCKED: USER    NEWDPF axisangle0 0.931541 0.315681 0.180493 -176.750912
DOCKED: USER    NEWDPF quat0 0.931541 0.315681 0.180493 -176.750912
DOCKED: USER    NEWDPF dihe0 72.44 123.78 8.54 148.06 -24.77 -179.84 
DOCKED: USER  keepresnum = 1 
DOCKED: USER  
DOCKED: REMARK  Name = 
DOCKED: REMARK  10 active torsions:
DOCKED: REMARK  status: ('A' for Active; 'I' for Inactive)
DOCKED: REMARK    1  A    between atoms: C_1  and  N_2
DOCKED: REMARK    2  A    between atoms: N_2  and  C_3
DOCKED: REMARK    3  A    between atoms: N_2  and  C_22
DOCKED: REMARK    4  A    between atoms: C_6  and  C_9
DOCKED: REMARK    5  A    between atoms: C_9  and  C_10
DOCKED: REMARK    6  A    between atoms: C_10  and  C_11
DOCKED: REMARK    7  A    between atoms: C_10  and  C_20
DOCKED: REMARK    8  A    between atoms: C_12  and  C_13
DOCKED: REMARK    9  A    between atoms: C_12  and  C_19
DOCKED: REMARK   10  A    between atoms: C_14  and  C_15
DOCKED: REMARK                            x       y       z     vdW  Elec       q    Type
DOCKED: REMARK                         _______ _______ _______ _____ _____    ______ ____
DOCKED: USER                              x       y       z     vdW  Elec       q    Type
DOCKED: USER                           _______ _______ _______ _____ _____    ______ ____
DOCKED: ROOT
DOCKED: ATOM      1  C   UNL     1      27.384 -15.928  -0.692 -0.37 -0.00    +0.000 C 
DOCKED: ATOM      2  C   UNL     1      28.329 -16.694  -1.623 -0.33 -0.00    +0.000 C 
DOCKED: ENDROOT
DOCKED: BRANCH   1   3
DOCKED: ATOM      3  C   UNL     1      25.943 -16.234  -1.048 -0.51 -0.00    +0.000 C 
DOCKED: ATOM      4  C   UNL     1      25.349 -17.438  -0.895 -0.66 -0.00    +0.000 C 
DOCKED: ATOM      5  C   UNL     1      26.089 -18.627  -0.323 -0.60 -0.00    +0.000 C 
DOCKED: BRANCH   4   6
DOCKED: ATOM      6  C   UNL     1      23.915 -17.555  -1.265 -0.73 -0.00    +0.000 C 
DOCKED: ATOM      7  C   UNL     1      23.052 -18.340  -0.605 -0.83 -0.00    +0.000 C 
DOCKED: BRANCH   7   8
DOCKED: ATOM      8  C   UNL     1      21.623 -18.463  -0.963 -0.79 -0.00    +0.000 C 
DOCKED: ATOM      9  N   UNL     1      21.092 -19.625  -1.611 -0.70 -0.00    +0.000 N 
DOCKED: ATOM     10  O   UNL     1      19.760 -19.734  -1.824 -2.32 -0.00    +0.000 OA
DOCKED: ATOM     11  O   UNL     1      20.855 -17.497  -0.707 -2.08 +0.00    +0.000 OA
DOCKED: ATOM     12  H   UNL     1      21.697 -20.345  -1.902 -0.46 -0.00    +0.000 HD
DOCKED: ENDBRANCH   7   8
DOCKED: ENDBRANCH   4   6
DOCKED: ENDBRANCH   1   3
DOCKED: BRANCH   1  13
DOCKED: ATOM     13  C   UNL     1      27.658 -14.441  -0.794 -0.23 -0.00    +0.000 C 
DOCKED: ATOM     14  O   UNL     1      28.287 -13.867   0.138 -0.16 -0.00    +0.000 OA
DOCKED: BRANCH  13  18
DOCKED: ATOM     15  C   UNL     1      26.266 -12.109  -4.158 -0.25 -0.00    +0.000 A 
DOCKED: ATOM     16  C   UNL     1      26.110 -13.508  -4.124 -0.37 -0.00    +0.000 A 
DOCKED: ATOM     17  C   UNL     1      26.564 -14.254  -3.034 -0.32 -0.00    +0.000 A 
DOCKED: ATOM     18  C   UNL     1      27.179 -13.624  -1.940 -0.18 -0.00    +0.000 A 
DOCKED: ATOM     19  C   UNL     1      27.348 -12.230  -1.973 -0.11 -0.00    +0.000 A 
DOCKED: ATOM     20  C   UNL     1      26.896 -11.483  -3.064 -0.08 -0.00    +0.000 A 
DOCKED: BRANCH  15  22
DOCKED: ATOM     21  C   UNL     1      26.651 -11.126  -6.465 -0.21 -0.00    +0.000 C 
DOCKED: ATOM     22  N   UNL     1      25.794 -11.332  -5.291 -0.30 -0.00    +0.000 N 
DOCKED: ATOM     23  C   UNL     1      24.451 -10.739  -5.282 -0.43 -0.00    +0.000 C 
DOCKED: ENDBRANCH  15  22
DOCKED: ENDBRANCH  13  18
DOCKED: ENDBRANCH   1  13
DOCKED: TORSDOF 6
DOCKED: TER
DOCKED: ENDMDL
________________________________________________________________________________


	BEGINNING GENETIC ALGORITHM DOCKING 71 of 100
Run: 71 Seed: 1394912059 467363289 [ Run 71 of 100 GA/GALS ]
Beginning LAMARCKIAN GENETIC ALGORITHM (LGA), with a maximum of 2500000 energy evaluations.

Final-Value: -14.042


	FINAL GENETIC ALGORITHM DOCKED STATE
	_______________________________________________


Detailed state:  trans 26.848 -16.380 -3.031 quatxyzw -0.204286 -0.137562 -0.066757 0.966896 center -0.973 -0.390 0.234 ntor 6 -173.6111 21.4244 82.8413 -18.4349 -146.0344 -33.9075
State:	 26.848 -16.380  -3.031  -0.801 -0.539 -0.262 29.567   -173.61   21.42   82.84  -18.43 -146.03  -33.91

DOCKED: MODEL       71
DOCKED: USER    Run = 71
DOCKED: USER    DPF = ligand_dock.biased.dpf
DOCKED: USER  
DOCKED: USER    Estimated Free Energy of Binding    =  -11.39 kcal/mol  [=(1)+(2)+(3)-(4)]
DOCKED: USER    Estimated Inhibition Constant, Ki   =    4.51 nM (nanomolar)  [Temperature = 298.15 K]
DOCKED: USER    
DOCKED: USER    (1) Final Intermolecular Energy     =  -13.18 kcal/mol
DOCKED: USER        vdW + Hbond + desolv Energy     =  -13.18 kcal/mol
DOCKED: USER        Electrostatic Energy            =   +0.00 kcal/mol
DOCKED: USER    (2) Final Total Internal Energy     =   -0.87 kcal/mol
DOCKED: USER    (3) Torsional Free Energy           =   +1.79 kcal/mol
DOCKED: USER    (4) Unbound System's Energy  [=(2)] =   -0.87 kcal/mol
DOCKED: USER    
DOCKED: USER    
DOCKED: USER    NEWDPF move ligand.pdbqt
DOCKED: USER    NEWDPF about -0.973000 -0.390000 0.234000
DOCKED: USER    NEWDPF tran0 26.847944 -16.380167 -3.031373
DOCKED: USER    NEWDPF quaternion0 -0.204286 -0.137562 -0.066757 0.966896
DOCKED: USER    NEWDPF axisangle0 -0.800583 -0.539095 -0.261616 29.567462
DOCKED: USER    NEWDPF quat0 -0.800583 -0.539095 -0.261616 29.567462
DOCKED: USER    NEWDPF dihe0 -173.61 21.42 82.84 -18.43 -146.03 -33.91 
DOCKED: USER  keepresnum = 1 
DOCKED: USER  
DOCKED: REMARK  Name = 
DOCKED: REMARK  10 active torsions:
DOCKED: REMARK  status: ('A' for Active; 'I' for Inactive)
DOCKED: REMARK    1  A    between atoms: C_1  and  N_2
DOCKED: REMARK    2  A    between atoms: N_2  and  C_3
DOCKED: REMARK    3  A    between atoms: N_2  and  C_22
DOCKED: REMARK    4  A    between atoms: C_6  and  C_9
DOCKED: REMARK    5  A    between atoms: C_9  and  C_10
DOCKED: REMARK    6  A    between atoms: C_10  and  C_11
DOCKED: REMARK    7  A    between atoms: C_10  and  C_20
DOCKED: REMARK    8  A    between atoms: C_12  and  C_13
DOCKED: REMARK    9  A    between atoms: C_12  and  C_19
DOCKED: REMARK   10  A    between atoms: C_14  and  C_15
DOCKED: REMARK                            x       y       z     vdW  Elec       q    Type
DOCKED: REMARK                         _______ _______ _______ _____ _____    ______ ____
DOCKED: USER                              x       y       z     vdW  Elec       q    Type
DOCKED: USER                           _______ _______ _______ _____ _____    ______ ____
DOCKED: ROOT
DOCKED: ATOM      1  C   UNL     1      27.112 -15.806  -1.562 -0.36 -0.00    +0.000 C 
DOCKED: ATOM      2  C   UNL     1      27.321 -15.342  -0.118 -0.33 -0.00    +0.000 C 
DOCKED: ENDROOT
DOCKED: BRANCH   1   3
DOCKED: ATOM      3  C   UNL     1      25.807 -16.571  -1.679 -0.56 -0.00    +0.000 C 
DOCKED: ATOM      4  C   UNL     1      25.468 -17.638  -0.924 -0.66 -0.00    +0.000 C 
DOCKED: ATOM      5  C   UNL     1      26.383 -18.178   0.153 -0.58 -0.00    +0.000 C 
DOCKED: BRANCH   4   6
DOCKED: ATOM      6  C   UNL     1      24.133 -18.250  -1.149 -0.77 -0.00    +0.000 C 
DOCKED: ATOM      7  C   UNL     1      22.986 -17.650  -0.800 -0.77 -0.00    +0.000 C 
DOCKED: BRANCH   7   8
DOCKED: ATOM      8  C   UNL     1      21.653 -18.248  -1.021 -0.74 -0.00    +0.000 C 
DOCKED: ATOM      9  N   UNL     1      21.483 -19.564  -1.561 -0.60 -0.00    +0.000 N 
DOCKED: ATOM     10  O   UNL     1      20.246 -20.107  -1.649 -2.24 -0.00    +0.000 OA
DOCKED: ATOM     11  O   UNL     1      20.634 -17.561  -0.745 -2.14 +0.00    +0.000 OA
DOCKED: ATOM     12  H   UNL     1      22.267 -20.074  -1.871 -0.47 -0.00    +0.000 HD
DOCKED: ENDBRANCH   7   8
DOCKED: ENDBRANCH   4   6
DOCKED: ENDBRANCH   1   3
DOCKED: BRANCH   1  13
DOCKED: ATOM     13  C   UNL     1      28.280 -16.668  -1.999 -0.32 -0.00    +0.000 C 
DOCKED: ATOM     14  O   UNL     1      28.752 -17.516  -1.192 -0.37 -0.00    +0.000 OA
DOCKED: BRANCH  13  18
DOCKED: ATOM     15  C   UNL     1      30.161 -16.279  -5.872 -0.28 -0.00    +0.000 A 
DOCKED: ATOM     16  C   UNL     1      30.500 -17.330  -4.997 -0.25 -0.00    +0.000 A 
DOCKED: ATOM     17  C   UNL     1      29.888 -17.447  -3.747 -0.16 -0.00    +0.000 A 
DOCKED: ATOM     18  C   UNL     1      28.913 -16.524  -3.337 -0.20 -0.00    +0.000 A 
DOCKED: ATOM     19  C   UNL     1      28.578 -15.468  -4.199 -0.27 -0.00    +0.000 A 
DOCKED: ATOM     20  C   UNL     1      29.191 -15.348  -5.450 -0.30 -0.00    +0.000 A 
DOCKED: BRANCH  15  22
DOCKED: ATOM     21  C   UNL     1      31.324 -17.340  -7.861 -0.31 -0.00    +0.000 C 
DOCKED: ATOM     22  N   UNL     1      30.796 -16.156  -7.172 -0.29 -0.00    +0.000 N 
DOCKED: ATOM     23  C   UNL     1      30.922 -14.845  -7.821 -0.19 -0.00    +0.000 C 
DOCKED: ENDBRANCH  15  22
DOCKED: ENDBRANCH  13  18
DOCKED: ENDBRANCH   1  13
DOCKED: TORSDOF 6
DOCKED: TER
DOCKED: ENDMDL
________________________________________________________________________________


	BEGINNING GENETIC ALGORITHM DOCKING 72 of 100
Run: 72 Seed: 617494254 1712537454 [ Run 72 of 100 GA/GALS ]
Beginning LAMARCKIAN GENETIC ALGORITHM (LGA), with a maximum of 2500000 energy evaluations.

Final-Value: -14.179


	FINAL GENETIC ALGORITHM DOCKED STATE
	_______________________________________________


Detailed state:  trans 26.718 -15.805 -0.679 quatxyzw -0.875560 -0.300030 0.062723 -0.373420 center -0.973 -0.390 0.234 ntor 6 146.6085 -129.2151 -143.0757 43.2447 44.9596 -61.6029
State:	 26.718 -15.805  -0.679  -0.944 -0.323  0.068 -136.147    146.61 -129.22 -143.08   43.24   44.96  -61.60

DOCKED: MODEL       72
DOCKED: USER    Run = 72
DOCKED: USER    DPF = ligand_dock.biased.dpf
DOCKED: USER  
DOCKED: USER    Estimated Free Energy of Binding    =  -11.08 kcal/mol  [=(1)+(2)+(3)-(4)]
DOCKED: USER    Estimated Inhibition Constant, Ki   =    7.61 nM (nanomolar)  [Temperature = 298.15 K]
DOCKED: USER    
DOCKED: USER    (1) Final Intermolecular Energy     =  -12.87 kcal/mol
DOCKED: USER        vdW + Hbond + desolv Energy     =  -12.87 kcal/mol
DOCKED: USER        Electrostatic Energy            =   +0.00 kcal/mol
DOCKED: USER    (2) Final Total Internal Energy     =   -1.31 kcal/mol
DOCKED: USER    (3) Torsional Free Energy           =   +1.79 kcal/mol
DOCKED: USER    (4) Unbound System's Energy  [=(2)] =   -1.31 kcal/mol
DOCKED: USER    
DOCKED: USER    
DOCKED: USER    NEWDPF move ligand.pdbqt
DOCKED: USER    NEWDPF about -0.973000 -0.390000 0.234000
DOCKED: USER    NEWDPF tran0 26.718013 -15.805197 -0.678881
DOCKED: USER    NEWDPF quaternion0 -0.875560 -0.300030 0.062723 -0.373420
DOCKED: USER    NEWDPF axisangle0 -0.943835 -0.323425 0.067614 -136.146653
DOCKED: USER    NEWDPF quat0 -0.943835 -0.323425 0.067614 -136.146653
DOCKED: USER    NEWDPF dihe0 146.61 -129.22 -143.08 43.24 44.96 -61.60 
DOCKED: USER  keepresnum = 1 
DOCKED: USER  
DOCKED: REMARK  Name = 
DOCKED: REMARK  10 active torsions:
DOCKED: REMARK  status: ('A' for Active; 'I' for Inactive)
DOCKED: REMARK    1  A    between atoms: C_1  and  N_2
DOCKED: REMARK    2  A    between atoms: N_2  and  C_3
DOCKED: REMARK    3  A    between atoms: N_2  and  C_22
DOCKED: REMARK    4  A    between atoms: C_6  and  C_9
DOCKED: REMARK    5  A    between atoms: C_9  and  C_10
DOCKED: REMARK    6  A    between atoms: C_10  and  C_11
DOCKED: REMARK    7  A    between atoms: C_10  and  C_20
DOCKED: REMARK    8  A    between atoms: C_12  and  C_13
DOCKED: REMARK    9  A    between atoms: C_12  and  C_19
DOCKED: REMARK   10  A    between atoms: C_14  and  C_15
DOCKED: REMARK                            x       y       z     vdW  Elec       q    Type
DOCKED: REMARK                         _______ _______ _______ _____ _____    ______ ____
DOCKED: USER                              x       y       z     vdW  Elec       q    Type
DOCKED: USER                           _______ _______ _______ _____ _____    ______ ____
DOCKED: ROOT
DOCKED: ATOM      1  C   UNL     1      26.870 -15.691  -2.267 -0.38 -0.00    +0.000 C 
DOCKED: ATOM      2  C   UNL     1      26.916 -15.555  -3.792 -0.43 -0.00    +0.000 C 
DOCKED: ENDROOT
DOCKED: BRANCH   1   3
DOCKED: ATOM      3  C   UNL     1      25.524 -16.239  -1.834 -0.56 -0.00    +0.000 C 
DOCKED: ATOM      4  C   UNL     1      25.345 -17.196  -0.898 -0.64 -0.00    +0.000 C 
DOCKED: ATOM      5  C   UNL     1      26.509 -17.821  -0.162 -0.60 -0.00    +0.000 C 
DOCKED: BRANCH   4   6
DOCKED: ATOM      6  C   UNL     1      23.952 -17.594  -0.571 -0.73 -0.00    +0.000 C 
DOCKED: ATOM      7  C   UNL     1      23.128 -18.166  -1.460 -0.70 -0.00    +0.000 C 
DOCKED: BRANCH   7   8
DOCKED: ATOM      8  C   UNL     1      21.741 -18.569  -1.146 -0.72 -0.00    +0.000 C 
DOCKED: ATOM      9  N   UNL     1      21.119 -19.711  -1.747 -0.63 -0.00    +0.000 N 
DOCKED: ATOM     10  O   UNL     1      19.885 -20.099  -1.351 -2.02 -0.00    +0.000 OA
DOCKED: ATOM     11  O   UNL     1      21.080 -17.864  -0.338 -1.89 +0.00    +0.000 OA
DOCKED: ATOM     12  H   UNL     1      21.590 -20.214  -2.451 -0.59 -0.00    +0.000 HD
DOCKED: ENDBRANCH   7   8
DOCKED: ENDBRANCH   4   6
DOCKED: ENDBRANCH   1   3
DOCKED: BRANCH   1  13
DOCKED: ATOM     13  C   UNL     1      27.133 -14.344  -1.623 -0.26 -0.00    +0.000 C 
DOCKED: ATOM     14  O   UNL     1      27.081 -13.303  -2.336 -0.21 -0.00    +0.000 OA
DOCKED: BRANCH  13  18
DOCKED: ATOM     15  C   UNL     1      28.124 -13.914   2.563 -0.29 -0.00    +0.000 A 
DOCKED: ATOM     16  C   UNL     1      26.883 -13.479   2.057 -0.23 -0.00    +0.000 A 
DOCKED: ATOM     17  C   UNL     1      26.572 -13.620   0.703 -0.26 -0.00    +0.000 A 
DOCKED: ATOM     18  C   UNL     1      27.486 -14.209  -0.185 -0.22 -0.00    +0.000 A 
DOCKED: ATOM     19  C   UNL     1      28.729 -14.635   0.310 -0.17 -0.00    +0.000 A 
DOCKED: ATOM     20  C   UNL     1      29.043 -14.492   1.665 -0.13 -0.00    +0.000 A 
DOCKED: BRANCH  15  22
DOCKED: ATOM     21  C   UNL     1      27.625 -12.920   4.843 -0.41 -0.00    +0.000 C 
DOCKED: ATOM     22  N   UNL     1      28.448 -13.767   3.971 -0.38 -0.00    +0.000 N 
DOCKED: ATOM     23  C   UNL     1      29.605 -14.465   4.547 -0.41 -0.00    +0.000 C 
DOCKED: ENDBRANCH  15  22
DOCKED: ENDBRANCH  13  18
DOCKED: ENDBRANCH   1  13
DOCKED: TORSDOF 6
DOCKED: TER
DOCKED: ENDMDL
________________________________________________________________________________


	BEGINNING GENETIC ALGORITHM DOCKING 73 of 100
Run: 73 Seed: 29826842 69324525 [ Run 73 of 100 GA/GALS ]
Beginning LAMARCKIAN GENETIC ALGORITHM (LGA), with a maximum of 2500000 energy evaluations.

Final-Value: -14.086


	FINAL GENETIC ALGORITHM DOCKED STATE
	_______________________________________________


Detailed state:  trans 26.583 -15.986 -0.855 quatxyzw 0.861505 0.432616 0.003609 0.265783 center -0.973 -0.390 0.234 ntor 6 -91.3567 -1.5131 77.7270 -162.4525 62.4892 -49.6382
State:	 26.583 -15.986  -0.855   0.894  0.449  0.004 149.173    -91.36   -1.51   77.73 -162.45   62.49  -49.64

DOCKED: MODEL       73
DOCKED: USER    Run = 73
DOCKED: USER    DPF = ligand_dock.biased.dpf
DOCKED: USER  
DOCKED: USER    Estimated Free Energy of Binding    =  -10.95 kcal/mol  [=(1)+(2)+(3)-(4)]
DOCKED: USER    Estimated Inhibition Constant, Ki   =    9.40 nM (nanomolar)  [Temperature = 298.15 K]
DOCKED: USER    
DOCKED: USER    (1) Final Intermolecular Energy     =  -12.74 kcal/mol
DOCKED: USER        vdW + Hbond + desolv Energy     =  -12.74 kcal/mol
DOCKED: USER        Electrostatic Energy            =   +0.00 kcal/mol
DOCKED: USER    (2) Final Total Internal Energy     =   -1.35 kcal/mol
DOCKED: USER    (3) Torsional Free Energy           =   +1.79 kcal/mol
DOCKED: USER    (4) Unbound System's Energy  [=(2)] =   -1.35 kcal/mol
DOCKED: USER    
DOCKED: USER    
DOCKED: USER    NEWDPF move ligand.pdbqt
DOCKED: USER    NEWDPF about -0.973000 -0.390000 0.234000
DOCKED: USER    NEWDPF tran0 26.582937 -15.986311 -0.855447
DOCKED: USER    NEWDPF quaternion0 0.861505 0.432616 0.003609 0.265783
DOCKED: USER    NEWDPF axisangle0 0.893646 0.448756 0.003744 149.173043
DOCKED: USER    NEWDPF quat0 0.893646 0.448756 0.003744 149.173043
DOCKED: USER    NEWDPF dihe0 -91.36 -1.51 77.73 -162.45 62.49 -49.64 
DOCKED: USER  keepresnum = 1 
DOCKED: USER  
DOCKED: REMARK  Name = 
DOCKED: REMARK  10 active torsions:
DOCKED: REMARK  status: ('A' for Active; 'I' for Inactive)
DOCKED: REMARK    1  A    between atoms: C_1  and  N_2
DOCKED: REMARK    2  A    between atoms: N_2  and  C_3
DOCKED: REMARK    3  A    between atoms: N_2  and  C_22
DOCKED: REMARK    4  A    between atoms: C_6  and  C_9
DOCKED: REMARK    5  A    between atoms: C_9  and  C_10
DOCKED: REMARK    6  A    between atoms: C_10  and  C_11
DOCKED: REMARK    7  A    between atoms: C_10  and  C_20
DOCKED: REMARK    8  A    between atoms: C_12  and  C_13
DOCKED: REMARK    9  A    between atoms: C_12  and  C_19
DOCKED: REMARK   10  A    between atoms: C_14  and  C_15
DOCKED: REMARK                            x       y       z     vdW  Elec       q    Type
DOCKED: REMARK                         _______ _______ _______ _____ _____    ______ ____
DOCKED: USER                              x       y       z     vdW  Elec       q    Type
DOCKED: USER                           _______ _______ _______ _____ _____    ______ ____
DOCKED: ROOT
DOCKED: ATOM      1  C   UNL     1      27.158 -15.987  -2.347 -0.37 -0.00    +0.000 C 
DOCKED: ATOM      2  C   UNL     1      27.612 -15.984  -3.810 -0.14 -0.00    +0.000 C 
DOCKED: ENDROOT
DOCKED: BRANCH   1   3
DOCKED: ATOM      3  C   UNL     1      25.870 -16.773  -2.204 -0.51 -0.00    +0.000 C 
DOCKED: ATOM      4  C   UNL     1      25.463 -17.389  -1.074 -0.65 -0.00    +0.000 C 
DOCKED: ATOM      5  C   UNL     1      26.276 -17.338   0.201 -0.28 -0.00    +0.000 C 
DOCKED: BRANCH   4   6
DOCKED: ATOM      6  C   UNL     1      24.154 -18.091  -1.099 -0.77 -0.00    +0.000 C 
DOCKED: ATOM      7  C   UNL     1      22.979 -17.448  -1.058 -0.70 -0.00    +0.000 C 
DOCKED: BRANCH   7   8
DOCKED: ATOM      8  C   UNL     1      21.671 -18.135  -1.086 -0.66 -0.00    +0.000 C 
DOCKED: ATOM      9  N   UNL     1      21.521 -19.481  -1.553 -0.64 -0.00    +0.000 N 
DOCKED: ATOM     10  O   UNL     1      20.322 -20.101  -1.462 -2.15 -0.00    +0.000 OA
DOCKED: ATOM     11  O   UNL     1      20.651 -17.499  -0.706 -2.09 +0.00    +0.000 OA
DOCKED: ATOM     12  H   UNL     1      22.292 -19.955  -1.941 -0.46 -0.00    +0.000 HD
DOCKED: ENDBRANCH   7   8
DOCKED: ENDBRANCH   4   6
DOCKED: ENDBRANCH   1   3
DOCKED: BRANCH   1  13
DOCKED: ATOM     13  C   UNL     1      26.974 -14.562  -1.864 -0.29 -0.00    +0.000 C 
DOCKED: ATOM     14  O   UNL     1      26.709 -13.658  -2.705 -0.27 -0.00    +0.000 OA
DOCKED: BRANCH  13  18
DOCKED: ATOM     15  C   UNL     1      27.453 -13.507   2.301 -0.29 -0.00    +0.000 A 
DOCKED: ATOM     16  C   UNL     1      28.363 -14.368   1.655 -0.21 -0.00    +0.000 A 
DOCKED: ATOM     17  C   UNL     1      28.199 -14.705   0.310 -0.21 -0.00    +0.000 A 
DOCKED: ATOM     18  C   UNL     1      27.129 -14.185  -0.435 -0.24 -0.00    +0.000 A 
DOCKED: ATOM     19  C   UNL     1      26.212 -13.335   0.205 -0.25 -0.00    +0.000 A 
DOCKED: ATOM     20  C   UNL     1      26.373 -12.998   1.552 -0.29 -0.00    +0.000 A 
DOCKED: BRANCH  15  22
DOCKED: ATOM     21  C   UNL     1      28.033 -11.799   4.085 -0.32 +0.00    +0.000 C 
DOCKED: ATOM     22  N   UNL     1      27.622 -13.155   3.700 -0.38 -0.00    +0.000 N 
DOCKED: ATOM     23  C   UNL     1      27.385 -14.150   4.754 -0.57 -0.00    +0.000 C 
DOCKED: ENDBRANCH  15  22
DOCKED: ENDBRANCH  13  18
DOCKED: ENDBRANCH   1  13
DOCKED: TORSDOF 6
DOCKED: TER
DOCKED: ENDMDL
________________________________________________________________________________


	BEGINNING GENETIC ALGORITHM DOCKING 74 of 100
Run: 74 Seed: 950812007 543342781 [ Run 74 of 100 GA/GALS ]
Beginning LAMARCKIAN GENETIC ALGORITHM (LGA), with a maximum of 2500000 energy evaluations.

Final-Value: -13.989


	FINAL GENETIC ALGORITHM DOCKED STATE
	_______________________________________________


Detailed state:  trans 26.239 -15.589 0.423 quatxyzw -0.895835 -0.354358 0.037108 -0.265581 center -0.973 -0.390 0.234 ntor 6 150.4255 -48.7894 -127.2002 176.4454 -1.2297 -50.7479
State:	 26.239 -15.589   0.423  -0.929 -0.368  0.038 -149.197    150.43  -48.79 -127.20  176.45   -1.23  -50.75

DOCKED: MODEL       74
DOCKED: USER    Run = 74
DOCKED: USER    DPF = ligand_dock.biased.dpf
DOCKED: USER  
DOCKED: USER    Estimated Free Energy of Binding    =  -11.08 kcal/mol  [=(1)+(2)+(3)-(4)]
DOCKED: USER    Estimated Inhibition Constant, Ki   =    7.60 nM (nanomolar)  [Temperature = 298.15 K]
DOCKED: USER    
DOCKED: USER    (1) Final Intermolecular Energy     =  -12.87 kcal/mol
DOCKED: USER        vdW + Hbond + desolv Energy     =  -12.87 kcal/mol
DOCKED: USER        Electrostatic Energy            =   +0.00 kcal/mol
DOCKED: USER    (2) Final Total Internal Energy     =   -1.12 kcal/mol
DOCKED: USER    (3) Torsional Free Energy           =   +1.79 kcal/mol
DOCKED: USER    (4) Unbound System's Energy  [=(2)] =   -1.12 kcal/mol
DOCKED: USER    
DOCKED: USER    
DOCKED: USER    NEWDPF move ligand.pdbqt
DOCKED: USER    NEWDPF about -0.973000 -0.390000 0.234000
DOCKED: USER    NEWDPF tran0 26.238662 -15.589395 0.422619
DOCKED: USER    NEWDPF quaternion0 -0.895835 -0.354358 0.037108 -0.265581
DOCKED: USER    NEWDPF axisangle0 -0.929204 -0.367557 0.038490 -149.197049
DOCKED: USER    NEWDPF quat0 -0.929204 -0.367557 0.038490 -149.197049
DOCKED: USER    NEWDPF dihe0 150.43 -48.79 -127.20 176.45 -1.23 -50.75 
DOCKED: USER  keepresnum = 1 
DOCKED: USER  
DOCKED: REMARK  Name = 
DOCKED: REMARK  10 active torsions:
DOCKED: REMARK  status: ('A' for Active; 'I' for Inactive)
DOCKED: REMARK    1  A    between atoms: C_1  and  N_2
DOCKED: REMARK    2  A    between atoms: N_2  and  C_3
DOCKED: REMARK    3  A    between atoms: N_2  and  C_22
DOCKED: REMARK    4  A    between atoms: C_6  and  C_9
DOCKED: REMARK    5  A    between atoms: C_9  and  C_10
DOCKED: REMARK    6  A    between atoms: C_10  and  C_11
DOCKED: REMARK    7  A    between atoms: C_10  and  C_20
DOCKED: REMARK    8  A    between atoms: C_12  and  C_13
DOCKED: REMARK    9  A    between atoms: C_12  and  C_19
DOCKED: REMARK   10  A    between atoms: C_14  and  C_15
DOCKED: REMARK                            x       y       z     vdW  Elec       q    Type
DOCKED: REMARK                         _______ _______ _______ _____ _____    ______ ____
DOCKED: USER                              x       y       z     vdW  Elec       q    Type
DOCKED: USER                           _______ _______ _______ _____ _____    ______ ____
DOCKED: ROOT
DOCKED: ATOM      1  C   UNL     1      26.633 -15.741  -1.120 -0.41 -0.00    +0.000 C 
DOCKED: ATOM      2  C   UNL     1      26.911 -15.870  -2.620 -0.39 -0.00    +0.000 C 
DOCKED: ENDROOT
DOCKED: BRANCH   1   3
DOCKED: ATOM      3  C   UNL     1      25.272 -16.325  -0.791 -0.51 -0.00    +0.000 C 
DOCKED: ATOM      4  C   UNL     1      25.047 -17.610  -0.444 -0.67 -0.00    +0.000 C 
DOCKED: ATOM      5  C   UNL     1      26.172 -18.616  -0.333 -0.60 -0.00    +0.000 C 
DOCKED: BRANCH   4   6
DOCKED: ATOM      6  C   UNL     1      23.653 -18.007  -0.122 -0.72 -0.00    +0.000 C 
DOCKED: ATOM      7  C   UNL     1      22.732 -18.267  -1.061 -0.81 -0.00    +0.000 C 
DOCKED: BRANCH   7   8
DOCKED: ATOM      8  C   UNL     1      21.343 -18.666  -0.754 -0.86 -0.00    +0.000 C 
DOCKED: ATOM      9  N   UNL     1      21.024 -19.914  -0.126 -0.68 -0.00    +0.000 N 
DOCKED: ATOM     10  O   UNL     1      19.748 -20.189   0.228 -1.04 -0.00    +0.000 OA
DOCKED: ATOM     11  O   UNL     1      20.408 -17.887  -1.081 -2.19 -0.00    +0.000 OA
DOCKED: ATOM     12  H   UNL     1      21.736 -20.573   0.047 -0.57 -0.00    +0.000 HD
DOCKED: ENDBRANCH   7   8
DOCKED: ENDBRANCH   4   6
DOCKED: ENDBRANCH   1   3
DOCKED: BRANCH   1  13
DOCKED: ATOM     13  C   UNL     1      26.705 -14.284  -0.707 -0.31 -0.00    +0.000 C 
DOCKED: ATOM     14  O   UNL     1      26.495 -13.390  -1.573 -0.22 -0.00    +0.000 OA
DOCKED: BRANCH  13  18
DOCKED: ATOM     15  C   UNL     1      27.717 -13.129   3.334 -0.33 -0.00    +0.000 A 
DOCKED: ATOM     16  C   UNL     1      28.092 -14.385   2.817 -0.28 -0.00    +0.000 A 
DOCKED: ATOM     17  C   UNL     1      27.760 -14.750   1.511 -0.19 -0.00    +0.000 A 
DOCKED: ATOM     18  C   UNL     1      27.051 -13.870   0.678 -0.26 -0.00    +0.000 A 
DOCKED: ATOM     19  C   UNL     1      26.665 -12.621   1.190 -0.30 -0.00    +0.000 A 
DOCKED: ATOM     20  C   UNL     1      26.995 -12.254   2.498 -0.28 +0.00    +0.000 A 
DOCKED: BRANCH  15  22
DOCKED: ATOM     21  C   UNL     1      28.634 -13.729   5.622 -0.48 -0.00    +0.000 C 
DOCKED: ATOM     22  N   UNL     1      28.062 -12.747   4.692 -0.37 -0.00    +0.000 N 
DOCKED: ATOM     23  C   UNL     1      27.846 -11.372   5.159 -0.40 +0.00    +0.000 C 
DOCKED: ENDBRANCH  15  22
DOCKED: ENDBRANCH  13  18
DOCKED: ENDBRANCH   1  13
DOCKED: TORSDOF 6
DOCKED: TER
DOCKED: ENDMDL
________________________________________________________________________________


	BEGINNING GENETIC ALGORITHM DOCKING 75 of 100
Run: 75 Seed: 1546422913 1970895288 [ Run 75 of 100 GA/GALS ]
Beginning LAMARCKIAN GENETIC ALGORITHM (LGA), with a maximum of 2500000 energy evaluations.

Final-Value: -13.580


	FINAL GENETIC ALGORITHM DOCKED STATE
	_______________________________________________


Detailed state:  trans 25.004 -15.016 -2.500 quatxyzw -0.714698 -0.521457 0.018223 0.465788 center -0.973 -0.390 0.234 ntor 6 -39.5306 16.2008 119.1425 -136.6723 -42.3041 -24.2375
State:	 25.004 -15.016  -2.500  -0.808 -0.589  0.021 124.478    -39.53   16.20  119.14 -136.67  -42.30  -24.24

DOCKED: MODEL       75
DOCKED: USER    Run = 75
DOCKED: USER    DPF = ligand_dock.biased.dpf
DOCKED: USER  
DOCKED: USER    Estimated Free Energy of Binding    =  -10.95 kcal/mol  [=(1)+(2)+(3)-(4)]
DOCKED: USER    Estimated Inhibition Constant, Ki   =    9.34 nM (nanomolar)  [Temperature = 298.15 K]
DOCKED: USER    
DOCKED: USER    (1) Final Intermolecular Energy     =  -12.74 kcal/mol
DOCKED: USER        vdW + Hbond + desolv Energy     =  -12.74 kcal/mol
DOCKED: USER        Electrostatic Energy            =   +0.00 kcal/mol
DOCKED: USER    (2) Final Total Internal Energy     =   -0.84 kcal/mol
DOCKED: USER    (3) Torsional Free Energy           =   +1.79 kcal/mol
DOCKED: USER    (4) Unbound System's Energy  [=(2)] =   -0.84 kcal/mol
DOCKED: USER    
DOCKED: USER    
DOCKED: USER    NEWDPF move ligand.pdbqt
DOCKED: USER    NEWDPF about -0.973000 -0.390000 0.234000
DOCKED: USER    NEWDPF tran0 25.003764 -15.015824 -2.500102
DOCKED: USER    NEWDPF quaternion0 -0.714698 -0.521457 0.018223 0.465788
DOCKED: USER    NEWDPF axisangle0 -0.807662 -0.589285 0.020593 124.477596
DOCKED: USER    NEWDPF quat0 -0.807662 -0.589285 0.020593 124.477596
DOCKED: USER    NEWDPF dihe0 -39.53 16.20 119.14 -136.67 -42.30 -24.24 
DOCKED: USER  keepresnum = 1 
DOCKED: USER  
DOCKED: REMARK  Name = 
DOCKED: REMARK  10 active torsions:
DOCKED: REMARK  status: ('A' for Active; 'I' for Inactive)
DOCKED: REMARK    1  A    between atoms: C_1  and  N_2
DOCKED: REMARK    2  A    between atoms: N_2  and  C_3
DOCKED: REMARK    3  A    between atoms: N_2  and  C_22
DOCKED: REMARK    4  A    between atoms: C_6  and  C_9
DOCKED: REMARK    5  A    between atoms: C_9  and  C_10
DOCKED: REMARK    6  A    between atoms: C_10  and  C_11
DOCKED: REMARK    7  A    between atoms: C_10  and  C_20
DOCKED: REMARK    8  A    between atoms: C_12  and  C_13
DOCKED: REMARK    9  A    between atoms: C_12  and  C_19
DOCKED: REMARK   10  A    between atoms: C_14  and  C_15
DOCKED: REMARK                            x       y       z     vdW  Elec       q    Type
DOCKED: REMARK                         _______ _______ _______ _____ _____    ______ ____
DOCKED: USER                              x       y       z     vdW  Elec       q    Type
DOCKED: USER                           _______ _______ _______ _____ _____    ______ ____
DOCKED: ROOT
DOCKED: ATOM      1  C   UNL     1      26.382 -15.824  -2.438 -0.46 -0.00    +0.000 C 
DOCKED: ATOM      2  C   UNL     1      27.651 -16.681  -2.412 -0.24 -0.00    +0.000 C 
DOCKED: ENDROOT
DOCKED: BRANCH   1   3
DOCKED: ATOM      3  C   UNL     1      25.180 -16.663  -2.050 -0.61 -0.00    +0.000 C 
DOCKED: ATOM      4  C   UNL     1      25.115 -17.464  -0.965 -0.68 -0.00    +0.000 C 
DOCKED: ATOM      5  C   UNL     1      26.270 -17.591   0.004 -0.57 -0.00    +0.000 C 
DOCKED: BRANCH   4   6
DOCKED: ATOM      6  C   UNL     1      23.846 -18.194  -0.716 -0.80 -0.00    +0.000 C 
DOCKED: ATOM      7  C   UNL     1      22.641 -17.685  -1.010 -0.71 -0.00    +0.000 C 
DOCKED: BRANCH   7   8
DOCKED: ATOM      8  C   UNL     1      21.371 -18.403  -0.770 -0.82 -0.00    +0.000 C 
DOCKED: ATOM      9  N   UNL     1      21.330 -19.727  -0.225 -0.69 -0.00    +0.000 N 
DOCKED: ATOM     10  O   UNL     1      20.142 -20.301   0.073 -1.10 -0.00    +0.000 OA
DOCKED: ATOM     11  O   UNL     1      20.292 -17.832  -1.081 -2.17 -0.00    +0.000 OA
DOCKED: ATOM     12  H   UNL     1      22.168 -20.220  -0.067 -0.48 -0.00    +0.000 HD
DOCKED: ENDBRANCH   7   8
DOCKED: ENDBRANCH   4   6
DOCKED: ENDBRANCH   1   3
DOCKED: BRANCH   1  13
DOCKED: ATOM     13  C   UNL     1      26.195 -15.224  -3.817 -0.56 -0.00    +0.000 C 
DOCKED: ATOM     14  O   UNL     1      26.238 -15.982  -4.827 -0.96 +0.00    +0.000 OA
DOCKED: BRANCH  13  18
DOCKED: ATOM     15  C   UNL     1      25.663 -10.973  -4.394 -0.25 -0.00    +0.000 A 
DOCKED: ATOM     16  C   UNL     1      26.896 -11.505  -3.970 -0.17 -0.00    +0.000 A 
DOCKED: ATOM     17  C   UNL     1      27.060 -12.879  -3.785 -0.21 -0.00    +0.000 A 
DOCKED: ATOM     18  C   UNL     1      25.998 -13.766  -4.026 -0.41 -0.00    +0.000 A 
DOCKED: ATOM     19  C   UNL     1      24.762 -13.242  -4.438 -0.06 -0.00    +0.000 A 
DOCKED: ATOM     20  C   UNL     1      24.596 -11.866  -4.622 -0.11 -0.00    +0.000 A 
DOCKED: BRANCH  15  22
DOCKED: ATOM     21  C   UNL     1      24.386  -9.027  -5.402 -0.35 -0.00    +0.000 C 
DOCKED: ATOM     22  N   UNL     1      25.492  -9.544  -4.587 -0.23 -0.00    +0.000 N 
DOCKED: ATOM     23  C   UNL     1      26.423  -8.590  -3.970 -0.13 -0.00    +0.000 C 
DOCKED: ENDBRANCH  15  22
DOCKED: ENDBRANCH  13  18
DOCKED: ENDBRANCH   1  13
DOCKED: TORSDOF 6
DOCKED: TER
DOCKED: ENDMDL
________________________________________________________________________________


	BEGINNING GENETIC ALGORITHM DOCKING 76 of 100
Run: 76 Seed: 1181454425 1048946834 [ Run 76 of 100 GA/GALS ]
Beginning LAMARCKIAN GENETIC ALGORITHM (LGA), with a maximum of 2500000 energy evaluations.

Final-Value: -13.561


	FINAL GENETIC ALGORITHM DOCKED STATE
	_______________________________________________


Detailed state:  trans 25.309 -15.612 -2.524 quatxyzw 0.373842 0.345161 0.087234 -0.856444 center -0.973 -0.390 0.234 ntor 6 156.6468 16.7947 157.0043 143.1806 -143.0332 -16.7180
State:	 25.309 -15.612  -2.524   0.724  0.669  0.169 -62.161    156.65   16.79  157.00  143.18 -143.03  -16.72

DOCKED: MODEL       76
DOCKED: USER    Run = 76
DOCKED: USER    DPF = ligand_dock.biased.dpf
DOCKED: USER  
DOCKED: USER    Estimated Free Energy of Binding    =  -10.96 kcal/mol  [=(1)+(2)+(3)-(4)]
DOCKED: USER    Estimated Inhibition Constant, Ki   =    9.19 nM (nanomolar)  [Temperature = 298.15 K]
DOCKED: USER    
DOCKED: USER    (1) Final Intermolecular Energy     =  -12.75 kcal/mol
DOCKED: USER        vdW + Hbond + desolv Energy     =  -12.75 kcal/mol
DOCKED: USER        Electrostatic Energy            =   +0.00 kcal/mol
DOCKED: USER    (2) Final Total Internal Energy     =   -0.81 kcal/mol
DOCKED: USER    (3) Torsional Free Energy           =   +1.79 kcal/mol
DOCKED: USER    (4) Unbound System's Energy  [=(2)] =   -0.81 kcal/mol
DOCKED: USER    
DOCKED: USER    
DOCKED: USER    NEWDPF move ligand.pdbqt
DOCKED: USER    NEWDPF about -0.973000 -0.390000 0.234000
DOCKED: USER    NEWDPF tran0 25.308623 -15.612144 -2.524060
DOCKED: USER    NEWDPF quaternion0 0.373842 0.345161 0.087234 -0.856444
DOCKED: USER    NEWDPF axisangle0 0.724163 0.668606 0.168979 -62.160756
DOCKED: USER    NEWDPF quat0 0.724163 0.668606 0.168979 -62.160756
DOCKED: USER    NEWDPF dihe0 156.65 16.79 157.00 143.18 -143.03 -16.72 
DOCKED: USER  keepresnum = 1 
DOCKED: USER  
DOCKED: REMARK  Name = 
DOCKED: REMARK  10 active torsions:
DOCKED: REMARK  status: ('A' for Active; 'I' for Inactive)
DOCKED: REMARK    1  A    between atoms: C_1  and  N_2
DOCKED: REMARK    2  A    between atoms: N_2  and  C_3
DOCKED: REMARK    3  A    between atoms: N_2  and  C_22
DOCKED: REMARK    4  A    between atoms: C_6  and  C_9
DOCKED: REMARK    5  A    between atoms: C_9  and  C_10
DOCKED: REMARK    6  A    between atoms: C_10  and  C_11
DOCKED: REMARK    7  A    between atoms: C_10  and  C_20
DOCKED: REMARK    8  A    between atoms: C_12  and  C_13
DOCKED: REMARK    9  A    between atoms: C_12  and  C_19
DOCKED: REMARK   10  A    between atoms: C_14  and  C_15
DOCKED: REMARK                            x       y       z     vdW  Elec       q    Type
DOCKED: REMARK                         _______ _______ _______ _____ _____    ______ ____
DOCKED: USER                              x       y       z     vdW  Elec       q    Type
DOCKED: USER                           _______ _______ _______ _____ _____    ______ ____
DOCKED: ROOT
DOCKED: ATOM      1  C   UNL     1      26.191 -15.495  -1.195 -0.43 -0.00    +0.000 C 
DOCKED: ATOM      2  C   UNL     1      27.014 -15.483   0.096 -0.33 -0.00    +0.000 C 
DOCKED: ENDROOT
DOCKED: BRANCH   1   3
DOCKED: ATOM      3  C   UNL     1      24.978 -16.390  -1.030 -0.56 -0.00    +0.000 C 
DOCKED: ATOM      4  C   UNL     1      25.014 -17.664  -0.582 -0.69 -0.00    +0.000 C 
DOCKED: ATOM      5  C   UNL     1      26.310 -18.333  -0.180 -0.63 -0.00    +0.000 C 
DOCKED: BRANCH   4   6
DOCKED: ATOM      6  C   UNL     1      23.724 -18.389  -0.450 -0.79 -0.00    +0.000 C 
DOCKED: ATOM      7  C   UNL     1      22.548 -17.862  -0.819 -0.79 -0.00    +0.000 C 
DOCKED: BRANCH   7   8
DOCKED: ATOM      8  C   UNL     1      21.260 -18.575  -0.695 -0.85 -0.00    +0.000 C 
DOCKED: ATOM      9  N   UNL     1      21.168 -19.909  -0.181 -0.64 -0.00    +0.000 N 
DOCKED: ATOM     10  O   UNL     1      19.956 -20.481   0.010 -1.19 -0.00    +0.000 OA
DOCKED: ATOM     11  O   UNL     1      20.212 -17.992  -1.080 -2.10 -0.00    +0.000 OA
DOCKED: ATOM     12  H   UNL     1      21.988 -20.411   0.033 -0.56 -0.00    +0.000 HD
DOCKED: ENDBRANCH   7   8
DOCKED: ENDBRANCH   4   6
DOCKED: ENDBRANCH   1   3
DOCKED: BRANCH   1  13
DOCKED: ATOM     13  C   UNL     1      27.052 -15.968  -2.350 -0.38 -0.00    +0.000 C 
DOCKED: ATOM     14  O   UNL     1      27.588 -17.109  -2.288 -0.35 -0.00    +0.000 OA
DOCKED: BRANCH  13  18
DOCKED: ATOM     15  C   UNL     1      27.778 -13.472  -5.805 -0.23 -0.00    +0.000 A 
DOCKED: ATOM     16  C   UNL     1      26.811 -13.124  -4.841 -0.27 -0.00    +0.000 A 
DOCKED: ATOM     17  C   UNL     1      26.582 -13.936  -3.728 -0.34 -0.00    +0.000 A 
DOCKED: ATOM     18  C   UNL     1      27.318 -15.117  -3.539 -0.32 -0.00    +0.000 A 
DOCKED: ATOM     19  C   UNL     1      28.275 -15.477  -4.502 -0.31 -0.00    +0.000 A 
DOCKED: ATOM     20  C   UNL     1      28.504 -14.666  -5.617 -0.33 -0.00    +0.000 A 
DOCKED: BRANCH  15  22
DOCKED: ATOM     21  C   UNL     1      27.212 -11.421  -7.185 -0.19 -0.00    +0.000 C 
DOCKED: ATOM     22  N   UNL     1      28.017 -12.628  -6.961 -0.22 -0.00    +0.000 N 
DOCKED: ATOM     23  C   UNL     1      29.069 -12.967  -7.928 -0.26 -0.00    +0.000 C 
DOCKED: ENDBRANCH  15  22
DOCKED: ENDBRANCH  13  18
DOCKED: ENDBRANCH   1  13
DOCKED: TORSDOF 6
DOCKED: TER
DOCKED: ENDMDL
________________________________________________________________________________


	BEGINNING GENETIC ALGORITHM DOCKING 77 of 100
Run: 77 Seed: 641735051 745230277 [ Run 77 of 100 GA/GALS ]
Beginning LAMARCKIAN GENETIC ALGORITHM (LGA), with a maximum of 2500000 energy evaluations.

Final-Value: -13.604


	FINAL GENETIC ALGORITHM DOCKED STATE
	_______________________________________________


Detailed state:  trans 25.672 -14.638 -2.758 quatxyzw 0.768897 0.372979 -0.050988 -0.516802 center -0.973 -0.390 0.234 ntor 6 -103.1194 -160.6259 -67.0357 -75.1283 -46.4613 -63.1024
State:	 25.672 -14.638  -2.758   0.898  0.436 -0.060 -117.764   -103.12 -160.63  -67.04  -75.13  -46.46  -63.10

DOCKED: MODEL       77
DOCKED: USER    Run = 77
DOCKED: USER    DPF = ligand_dock.biased.dpf
DOCKED: USER  
DOCKED: USER    Estimated Free Energy of Binding    =  -11.12 kcal/mol  [=(1)+(2)+(3)-(4)]
DOCKED: USER    Estimated Inhibition Constant, Ki   =    7.11 nM (nanomolar)  [Temperature = 298.15 K]
DOCKED: USER    
DOCKED: USER    (1) Final Intermolecular Energy     =  -12.91 kcal/mol
DOCKED: USER        vdW + Hbond + desolv Energy     =  -12.91 kcal/mol
DOCKED: USER        Electrostatic Energy            =   +0.00 kcal/mol
DOCKED: USER    (2) Final Total Internal Energy     =   -0.70 kcal/mol
DOCKED: USER    (3) Torsional Free Energy           =   +1.79 kcal/mol
DOCKED: USER    (4) Unbound System's Energy  [=(2)] =   -0.70 kcal/mol
DOCKED: USER    
DOCKED: USER    
DOCKED: USER    NEWDPF move ligand.pdbqt
DOCKED: USER    NEWDPF about -0.973000 -0.390000 0.234000
DOCKED: USER    NEWDPF tran0 25.672076 -14.638348 -2.758247
DOCKED: USER    NEWDPF quaternion0 0.768897 0.372979 -0.050988 -0.516802
DOCKED: USER    NEWDPF axisangle0 0.898134 0.435670 -0.059558 -117.764047
DOCKED: USER    NEWDPF quat0 0.898134 0.435670 -0.059558 -117.764047
DOCKED: USER    NEWDPF dihe0 -103.12 -160.63 -67.04 -75.13 -46.46 -63.10 
DOCKED: USER  keepresnum = 1 
DOCKED: USER  
DOCKED: REMARK  Name = 
DOCKED: REMARK  10 active torsions:
DOCKED: REMARK  status: ('A' for Active; 'I' for Inactive)
DOCKED: REMARK    1  A    between atoms: C_1  and  N_2
DOCKED: REMARK    2  A    between atoms: N_2  and  C_3
DOCKED: REMARK    3  A    between atoms: N_2  and  C_22
DOCKED: REMARK    4  A    between atoms: C_6  and  C_9
DOCKED: REMARK    5  A    between atoms: C_9  and  C_10
DOCKED: REMARK    6  A    between atoms: C_10  and  C_11
DOCKED: REMARK    7  A    between atoms: C_10  and  C_20
DOCKED: REMARK    8  A    between atoms: C_12  and  C_13
DOCKED: REMARK    9  A    between atoms: C_12  and  C_19
DOCKED: REMARK   10  A    between atoms: C_14  and  C_15
DOCKED: REMARK                            x       y       z     vdW  Elec       q    Type
DOCKED: REMARK                         _______ _______ _______ _____ _____    ______ ____
DOCKED: USER                              x       y       z     vdW  Elec       q    Type
DOCKED: USER                           _______ _______ _______ _____ _____    ______ ____
DOCKED: ROOT
DOCKED: ATOM      1  C   UNL     1      26.725 -15.802  -2.453 -0.41 -0.00    +0.000 C 
DOCKED: ATOM      2  C   UNL     1      27.666 -16.984  -2.199 -0.15 -0.00    +0.000 C 
DOCKED: ENDROOT
DOCKED: BRANCH   1   3
DOCKED: ATOM      3  C   UNL     1      25.287 -16.223  -2.222 -0.57 -0.00    +0.000 C 
DOCKED: ATOM      4  C   UNL     1      24.855 -16.948  -1.168 -0.65 -0.00    +0.000 C 
DOCKED: ATOM      5  C   UNL     1      25.795 -17.409  -0.076 -0.49 -0.00    +0.000 C 
DOCKED: BRANCH   4   6
DOCKED: ATOM      6  C   UNL     1      23.402 -17.246  -1.080 -0.70 -0.00    +0.000 C 
DOCKED: ATOM      7  C   UNL     1      22.923 -18.434  -0.687 -0.83 -0.00    +0.000 C 
DOCKED: BRANCH   7   8
DOCKED: ATOM      8  C   UNL     1      21.480 -18.742  -0.594 -0.86 -0.00    +0.000 C 
DOCKED: ATOM      9  N   UNL     1      20.994 -20.010  -0.137 -0.67 -0.00    +0.000 N 
DOCKED: ATOM     10  O   UNL     1      19.666 -20.208   0.029 -1.18 -0.00    +0.000 OA
DOCKED: ATOM     11  O   UNL     1      20.654 -17.861  -0.954 -2.26 -0.00    +0.000 OA
DOCKED: ATOM     12  H   UNL     1      21.628 -20.739   0.056 -0.52 -0.00    +0.000 HD
DOCKED: ENDBRANCH   7   8
DOCKED: ENDBRANCH   4   6
DOCKED: ENDBRANCH   1   3
DOCKED: BRANCH   1  13
DOCKED: ATOM     13  C   UNL     1      26.914 -15.290  -3.867 -0.45 -0.00    +0.000 C 
DOCKED: ATOM     14  O   UNL     1      27.576 -15.985  -4.688 -0.61 -0.00    +0.000 OA
DOCKED: BRANCH  13  18
DOCKED: ATOM     15  C   UNL     1      25.397 -11.456  -5.165 -0.32 -0.00    +0.000 A 
DOCKED: ATOM     16  C   UNL     1      26.730 -11.838  -5.415 -0.20 -0.00    +0.000 A 
DOCKED: ATOM     17  C   UNL     1      27.212 -13.077  -4.991 -0.24 -0.00    +0.000 A 
DOCKED: ATOM     18  C   UNL     1      26.376 -13.978  -4.313 -0.39 -0.00    +0.000 A 
DOCKED: ATOM     19  C   UNL     1      25.049 -13.600  -4.050 -0.35 -0.00    +0.000 A 
DOCKED: ATOM     20  C   UNL     1      24.565 -12.358  -4.472 -0.01 -0.00    +0.000 A 
DOCKED: BRANCH  15  22
DOCKED: ATOM     21  C   UNL     1      24.139 -10.048  -6.860 -0.46 -0.00    +0.000 C 
DOCKED: ATOM     22  N   UNL     1      24.894 -10.167  -5.606 -0.34 -0.00    +0.000 N 
DOCKED: ATOM     23  C   UNL     1      25.132  -8.958  -4.806 -0.26 -0.00    +0.000 C 
DOCKED: ENDBRANCH  15  22
DOCKED: ENDBRANCH  13  18
DOCKED: ENDBRANCH   1  13
DOCKED: TORSDOF 6
DOCKED: TER
DOCKED: ENDMDL
________________________________________________________________________________


	BEGINNING GENETIC ALGORITHM DOCKING 78 of 100
Run: 78 Seed: 1580584241 28545645 [ Run 78 of 100 GA/GALS ]
Beginning LAMARCKIAN GENETIC ALGORITHM (LGA), with a maximum of 2500000 energy evaluations.

Final-Value: -13.597


	FINAL GENETIC ALGORITHM DOCKED STATE
	_______________________________________________


Detailed state:  trans 26.468 -14.364 -2.895 quatxyzw -0.803439 -0.362815 0.050826 0.469327 center -0.973 -0.390 0.234 ntor 6 57.1651 155.0528 -84.8755 119.7624 -32.8222 -79.3569
State:	 26.468 -14.364  -2.895  -0.910 -0.411  0.058 124.019     57.17  155.05  -84.88  119.76  -32.82  -79.36

DOCKED: MODEL       78
DOCKED: USER    Run = 78
DOCKED: USER    DPF = ligand_dock.biased.dpf
DOCKED: USER  
DOCKED: USER    Estimated Free Energy of Binding    =  -11.04 kcal/mol  [=(1)+(2)+(3)-(4)]
DOCKED: USER    Estimated Inhibition Constant, Ki   =    8.06 nM (nanomolar)  [Temperature = 298.15 K]
DOCKED: USER    
DOCKED: USER    (1) Final Intermolecular Energy     =  -12.83 kcal/mol
DOCKED: USER        vdW + Hbond + desolv Energy     =  -12.83 kcal/mol
DOCKED: USER        Electrostatic Energy            =   +0.00 kcal/mol
DOCKED: USER    (2) Final Total Internal Energy     =   -0.76 kcal/mol
DOCKED: USER    (3) Torsional Free Energy           =   +1.79 kcal/mol
DOCKED: USER    (4) Unbound System's Energy  [=(2)] =   -0.76 kcal/mol
DOCKED: USER    
DOCKED: USER    
DOCKED: USER    NEWDPF move ligand.pdbqt
DOCKED: USER    NEWDPF about -0.973000 -0.390000 0.234000
DOCKED: USER    NEWDPF tran0 26.468068 -14.363853 -2.894809
DOCKED: USER    NEWDPF quaternion0 -0.803439 -0.362815 0.050826 0.469327
DOCKED: USER    NEWDPF axisangle0 -0.909872 -0.410877 0.057558 124.018818
DOCKED: USER    NEWDPF quat0 -0.909872 -0.410877 0.057558 124.018818
DOCKED: USER    NEWDPF dihe0 57.17 155.05 -84.88 119.76 -32.82 -79.36 
DOCKED: USER  keepresnum = 1 
DOCKED: USER  
DOCKED: REMARK  Name = 
DOCKED: REMARK  10 active torsions:
DOCKED: REMARK  status: ('A' for Active; 'I' for Inactive)
DOCKED: REMARK    1  A    between atoms: C_1  and  N_2
DOCKED: REMARK    2  A    between atoms: N_2  and  C_3
DOCKED: REMARK    3  A    between atoms: N_2  and  C_22
DOCKED: REMARK    4  A    between atoms: C_6  and  C_9
DOCKED: REMARK    5  A    between atoms: C_9  and  C_10
DOCKED: REMARK    6  A    between atoms: C_10  and  C_11
DOCKED: REMARK    7  A    between atoms: C_10  and  C_20
DOCKED: REMARK    8  A    between atoms: C_12  and  C_13
DOCKED: REMARK    9  A    between atoms: C_12  and  C_19
DOCKED: REMARK   10  A    between atoms: C_14  and  C_15
DOCKED: REMARK                            x       y       z     vdW  Elec       q    Type
DOCKED: REMARK                         _______ _______ _______ _____ _____    ______ ____
DOCKED: USER                              x       y       z     vdW  Elec       q    Type
DOCKED: USER                           _______ _______ _______ _____ _____    ______ ____
DOCKED: ROOT
DOCKED: ATOM      1  C   UNL     1      27.471 -15.600  -2.741 -0.33 -0.00    +0.000 C 
DOCKED: ATOM      2  C   UNL     1      28.360 -16.843  -2.637 -0.13 -0.00    +0.000 C 
DOCKED: ENDROOT
DOCKED: BRANCH   1   3
DOCKED: ATOM      3  C   UNL     1      26.019 -15.979  -2.523 -0.51 -0.00    +0.000 C 
DOCKED: ATOM      4  C   UNL     1      25.534 -16.569  -1.409 -0.58 -0.00    +0.000 C 
DOCKED: ATOM      5  C   UNL     1      26.423 -16.905  -0.232 -0.48 -0.00    +0.000 C 
DOCKED: BRANCH   4   6
DOCKED: ATOM      6  C   UNL     1      24.076 -16.842  -1.348 -0.62 -0.00    +0.000 C 
DOCKED: ATOM      7  C   UNL     1      23.569 -18.071  -1.172 -0.78 -0.00    +0.000 C 
DOCKED: BRANCH   7   8
DOCKED: ATOM      8  C   UNL     1      22.120 -18.355  -1.107 -0.75 -0.00    +0.000 C 
DOCKED: ATOM      9  N   UNL     1      21.529 -19.478  -1.771 -0.55 -0.00    +0.000 N 
DOCKED: ATOM     10  O   UNL     1      20.216 -19.755  -1.597 -2.29 -0.00    +0.000 OA
DOCKED: ATOM     11  O   UNL     1      21.382 -17.563  -0.464 -1.66 -0.00    +0.000 OA
DOCKED: ATOM     12  H   UNL     1      22.079 -20.050  -2.355 -0.59 -0.00    +0.000 HD
DOCKED: ENDBRANCH   7   8
DOCKED: ENDBRANCH   4   6
DOCKED: ENDBRANCH   1   3
DOCKED: BRANCH   1  13
DOCKED: ATOM     13  C   UNL     1      27.657 -14.947  -4.096 -0.36 -0.00    +0.000 C 
DOCKED: ATOM     14  O   UNL     1      28.516 -15.420  -4.892 -0.39 -0.00    +0.000 OA
DOCKED: BRANCH  13  18
DOCKED: ATOM     15  C   UNL     1      25.374 -11.474  -5.285 -0.28 -0.00    +0.000 A 
DOCKED: ATOM     16  C   UNL     1      24.816 -12.468  -4.457 -0.18 -0.00    +0.000 A 
DOCKED: ATOM     17  C   UNL     1      25.560 -13.587  -4.079 -0.41 -0.00    +0.000 A 
DOCKED: ATOM     18  C   UNL     1      26.887 -13.744  -4.508 -0.32 -0.00    +0.000 A 
DOCKED: ATOM     19  C   UNL     1      27.447 -12.763  -5.343 -0.21 -0.00    +0.000 A 
DOCKED: ATOM     20  C   UNL     1      26.703 -11.643  -5.724 -0.18 -0.00    +0.000 A 
DOCKED: BRANCH  15  22
DOCKED: ATOM     21  C   UNL     1      24.010 -10.223  -7.020 -0.48 -0.00    +0.000 C 
DOCKED: ATOM     22  N   UNL     1      24.601 -10.309  -5.679 -0.39 -0.00    +0.000 N 
DOCKED: ATOM     23  C   UNL     1      24.396  -9.197  -4.742 -0.36 -0.00    +0.000 C 
DOCKED: ENDBRANCH  15  22
DOCKED: ENDBRANCH  13  18
DOCKED: ENDBRANCH   1  13
DOCKED: TORSDOF 6
DOCKED: TER
DOCKED: ENDMDL
________________________________________________________________________________


	BEGINNING GENETIC ALGORITHM DOCKING 79 of 100
Run: 79 Seed: 1845222443 2001771136 [ Run 79 of 100 GA/GALS ]
Beginning LAMARCKIAN GENETIC ALGORITHM (LGA), with a maximum of 2500000 energy evaluations.

Final-Value: -13.789


	FINAL GENETIC ALGORITHM DOCKED STATE
	_______________________________________________


Detailed state:  trans 27.025 -17.327 -0.513 quatxyzw -0.778477 -0.147022 -0.071875 -0.605964 center -0.973 -0.390 0.234 ntor 6 -54.4647 -137.6008 -117.8626 -143.0145 72.9534 158.3420
State:	 27.025 -17.327  -0.513  -0.979 -0.185 -0.090 -105.404    -54.46 -137.60 -117.86 -143.01   72.95  158.34

DOCKED: MODEL       79
DOCKED: USER    Run = 79
DOCKED: USER    DPF = ligand_dock.biased.dpf
DOCKED: USER  
DOCKED: USER    Estimated Free Energy of Binding    =  -10.79 kcal/mol  [=(1)+(2)+(3)-(4)]
DOCKED: USER    Estimated Inhibition Constant, Ki   =   12.40 nM (nanomolar)  [Temperature = 298.15 K]
DOCKED: USER    
DOCKED: USER    (1) Final Intermolecular Energy     =  -12.58 kcal/mol
DOCKED: USER        vdW + Hbond + desolv Energy     =  -12.58 kcal/mol
DOCKED: USER        Electrostatic Energy            =   +0.00 kcal/mol
DOCKED: USER    (2) Final Total Internal Energy     =   -1.21 kcal/mol
DOCKED: USER    (3) Torsional Free Energy           =   +1.79 kcal/mol
DOCKED: USER    (4) Unbound System's Energy  [=(2)] =   -1.21 kcal/mol
DOCKED: USER    
DOCKED: USER    
DOCKED: USER    NEWDPF move ligand.pdbqt
DOCKED: USER    NEWDPF about -0.973000 -0.390000 0.234000
DOCKED: USER    NEWDPF tran0 27.024590 -17.326626 -0.512721
DOCKED: USER    NEWDPF quaternion0 -0.778477 -0.147022 -0.071875 -0.605964
DOCKED: USER    NEWDPF axisangle0 -0.978610 -0.184818 -0.090353 -105.403579
DOCKED: USER    NEWDPF quat0 -0.978610 -0.184818 -0.090353 -105.403579
DOCKED: USER    NEWDPF dihe0 -54.46 -137.60 -117.86 -143.01 72.95 158.34 
DOCKED: USER  keepresnum = 1 
DOCKED: USER  
DOCKED: REMARK  Name = 
DOCKED: REMARK  10 active torsions:
DOCKED: REMARK  status: ('A' for Active; 'I' for Inactive)
DOCKED: REMARK    1  A    between atoms: C_1  and  N_2
DOCKED: REMARK    2  A    between atoms: N_2  and  C_3
DOCKED: REMARK    3  A    between atoms: N_2  and  C_22
DOCKED: REMARK    4  A    between atoms: C_6  and  C_9
DOCKED: REMARK    5  A    between atoms: C_9  and  C_10
DOCKED: REMARK    6  A    between atoms: C_10  and  C_11
DOCKED: REMARK    7  A    between atoms: C_10  and  C_20
DOCKED: REMARK    8  A    between atoms: C_12  and  C_13
DOCKED: REMARK    9  A    between atoms: C_12  and  C_19
DOCKED: REMARK   10  A    between atoms: C_14  and  C_15
DOCKED: REMARK                            x       y       z     vdW  Elec       q    Type
DOCKED: REMARK                         _______ _______ _______ _____ _____    ______ ____
DOCKED: USER                              x       y       z     vdW  Elec       q    Type
DOCKED: USER                           _______ _______ _______ _____ _____    ______ ____
DOCKED: ROOT
DOCKED: ATOM      1  C   UNL     1      27.305 -16.461  -1.828 -0.39 -0.00    +0.000 C 
DOCKED: ATOM      2  C   UNL     1      27.490 -15.577  -3.065 -0.34 -0.00    +0.000 C 
DOCKED: ENDROOT
DOCKED: BRANCH   1   3
DOCKED: ATOM      3  C   UNL     1      25.830 -16.700  -1.574 -0.57 -0.00    +0.000 C 
DOCKED: ATOM      4  C   UNL     1      25.331 -17.655  -0.760 -0.68 -0.00    +0.000 C 
DOCKED: ATOM      5  C   UNL     1      26.229 -18.598   0.009 -0.60 -0.00    +0.000 C 
DOCKED: BRANCH   4   6
DOCKED: ATOM      6  C   UNL     1      23.856 -17.729  -0.601 -0.76 -0.00    +0.000 C 
DOCKED: ATOM      7  C   UNL     1      23.069 -18.457  -1.407 -0.75 -0.00    +0.000 C 
DOCKED: BRANCH   7   8
DOCKED: ATOM      8  C   UNL     1      21.601 -18.540  -1.257 -0.53 -0.00    +0.000 C 
DOCKED: ATOM      9  N   UNL     1      20.844 -19.656  -1.738 -0.74 -0.00    +0.000 N 
DOCKED: ATOM     10  O   UNL     1      19.517 -19.735  -1.486 -2.10 -0.00    +0.000 OA
DOCKED: ATOM     11  O   UNL     1      20.999 -17.580  -0.706 -2.10 -0.00    +0.000 OA
DOCKED: ATOM     12  H   UNL     1      21.289 -20.367  -2.255 -0.51 -0.00    +0.000 HD
DOCKED: ENDBRANCH   7   8
DOCKED: ENDBRANCH   4   6
DOCKED: ENDBRANCH   1   3
DOCKED: BRANCH   1  13
DOCKED: ATOM     13  C   UNL     1      27.957 -15.805  -0.626 -0.31 -0.00    +0.000 C 
DOCKED: ATOM     14  O   UNL     1      28.800 -16.460   0.048 -0.28 -0.00    +0.000 OA
DOCKED: BRANCH  13  18
DOCKED: ATOM     15  C   UNL     1      26.899 -11.805   0.627 -0.22 +0.00    +0.000 A 
DOCKED: ATOM     16  C   UNL     1      25.953 -12.849   0.637 -0.25 -0.00    +0.000 A 
DOCKED: ATOM     17  C   UNL     1      26.302 -14.138   0.229 -0.19 -0.00    +0.000 A 
DOCKED: ATOM     18  C   UNL     1      27.610 -14.426  -0.192 -0.22 -0.00    +0.000 A 
DOCKED: ATOM     19  C   UNL     1      28.556 -13.388  -0.215 -0.10 -0.00    +0.000 A 
DOCKED: ATOM     20  C   UNL     1      28.207 -12.097   0.191 -0.09 -0.00    +0.000 A 
DOCKED: BRANCH  15  22
DOCKED: ATOM     21  C   UNL     1      27.511  -9.609   1.740 -0.18 +0.00    +0.000 C 
DOCKED: ATOM     22  N   UNL     1      26.536 -10.465   1.052 -0.28 +0.00    +0.000 N 
DOCKED: ATOM     23  C   UNL     1      25.188  -9.940   0.799 -0.39 +0.00    +0.000 C 
DOCKED: ENDBRANCH  15  22
DOCKED: ENDBRANCH  13  18
DOCKED: ENDBRANCH   1  13
DOCKED: TORSDOF 6
DOCKED: TER
DOCKED: ENDMDL
________________________________________________________________________________


	BEGINNING GENETIC ALGORITHM DOCKING 80 of 100
Run: 80 Seed: 1570735756 1459903662 [ Run 80 of 100 GA/GALS ]
Beginning LAMARCKIAN GENETIC ALGORITHM (LGA), with a maximum of 2500000 energy evaluations.

Final-Value: -13.499


	FINAL GENETIC ALGORITHM DOCKED STATE
	_______________________________________________


Detailed state:  trans 26.669 -15.865 0.871 quatxyzw 0.953393 0.281871 0.085599 0.065297 center -0.973 -0.390 0.234 ntor 6 105.5346 178.3918 80.4819 -133.3679 -140.6280 -53.1199
State:	 26.669 -15.865   0.871   0.955  0.282  0.086 172.512    105.53  178.39   80.48 -133.37 -140.63  -53.12

DOCKED: MODEL       80
DOCKED: USER    Run = 80
DOCKED: USER    DPF = ligand_dock.biased.dpf
DOCKED: USER  
DOCKED: USER    Estimated Free Energy of Binding    =  -10.81 kcal/mol  [=(1)+(2)+(3)-(4)]
DOCKED: USER    Estimated Inhibition Constant, Ki   =   11.98 nM (nanomolar)  [Temperature = 298.15 K]
DOCKED: USER    
DOCKED: USER    (1) Final Intermolecular Energy     =  -12.60 kcal/mol
DOCKED: USER        vdW + Hbond + desolv Energy     =  -12.60 kcal/mol
DOCKED: USER        Electrostatic Energy            =   +0.00 kcal/mol
DOCKED: USER    (2) Final Total Internal Energy     =   -0.90 kcal/mol
DOCKED: USER    (3) Torsional Free Energy           =   +1.79 kcal/mol
DOCKED: USER    (4) Unbound System's Energy  [=(2)] =   -0.90 kcal/mol
DOCKED: USER    
DOCKED: USER    
DOCKED: USER    NEWDPF move ligand.pdbqt
DOCKED: USER    NEWDPF about -0.973000 -0.390000 0.234000
DOCKED: USER    NEWDPF tran0 26.669414 -15.864653 0.870677
DOCKED: USER    NEWDPF quaternion0 0.953393 0.281871 0.085599 0.065297
DOCKED: USER    NEWDPF axisangle0 0.955432 0.282474 0.085782 172.512237
DOCKED: USER    NEWDPF quat0 0.955432 0.282474 0.085782 172.512237
DOCKED: USER    NEWDPF dihe0 105.53 178.39 80.48 -133.37 -140.63 -53.12 
DOCKED: USER  keepresnum = 1 
DOCKED: USER  
DOCKED: REMARK  Name = 
DOCKED: REMARK  10 active torsions:
DOCKED: REMARK  status: ('A' for Active; 'I' for Inactive)
DOCKED: REMARK    1  A    between atoms: C_1  and  N_2
DOCKED: REMARK    2  A    between atoms: N_2  and  C_3
DOCKED: REMARK    3  A    between atoms: N_2  and  C_22
DOCKED: REMARK    4  A    between atoms: C_6  and  C_9
DOCKED: REMARK    5  A    between atoms: C_9  and  C_10
DOCKED: REMARK    6  A    between atoms: C_10  and  C_11
DOCKED: REMARK    7  A    between atoms: C_10  and  C_20
DOCKED: REMARK    8  A    between atoms: C_12  and  C_13
DOCKED: REMARK    9  A    between atoms: C_12  and  C_19
DOCKED: REMARK   10  A    between atoms: C_14  and  C_15
DOCKED: REMARK                            x       y       z     vdW  Elec       q    Type
DOCKED: REMARK                         _______ _______ _______ _____ _____    ______ ____
DOCKED: USER                              x       y       z     vdW  Elec       q    Type
DOCKED: USER                           _______ _______ _______ _____ _____    ______ ____
DOCKED: ROOT
DOCKED: ATOM      1  C   UNL     1      27.429 -16.585  -0.338 -0.41 -0.00    +0.000 C 
DOCKED: ATOM      2  C   UNL     1      28.077 -17.252  -1.555 -0.27 -0.00    +0.000 C 
DOCKED: ENDROOT
DOCKED: BRANCH   1   3
DOCKED: ATOM      3  C   UNL     1      25.928 -16.795  -0.367 -0.49 -0.00    +0.000 C 
DOCKED: ATOM      4  C   UNL     1      25.138 -16.569  -1.439 -0.61 -0.00    +0.000 C 
DOCKED: ATOM      5  C   UNL     1      25.700 -16.081  -2.757 -0.54 -0.00    +0.000 C 
DOCKED: BRANCH   4   6
DOCKED: ATOM      6  C   UNL     1      23.687 -16.858  -1.305 -0.53 -0.00    +0.000 C 
DOCKED: ATOM      7  C   UNL     1      23.191 -18.102  -1.263 -0.76 -0.00    +0.000 C 
DOCKED: BRANCH   7   8
DOCKED: ATOM      8  C   UNL     1      21.750 -18.402  -1.127 -0.69 -0.00    +0.000 C 
DOCKED: ATOM      9  N   UNL     1      21.195 -19.674  -1.481 -0.69 -0.00    +0.000 N 
DOCKED: ATOM     10  O   UNL     1      19.889 -19.935  -1.242 -2.05 -0.00    +0.000 OA
DOCKED: ATOM     11  O   UNL     1      20.985 -17.493  -0.706 -2.08 -0.00    +0.000 OA
DOCKED: ATOM     12  H   UNL     1      21.764 -20.360  -1.901 -0.46 -0.00    +0.000 HD
DOCKED: ENDBRANCH   7   8
DOCKED: ENDBRANCH   4   6
DOCKED: ENDBRANCH   1   3
DOCKED: BRANCH   1  13
DOCKED: ATOM     13  C   UNL     1      27.764 -15.107  -0.323 -0.28 -0.00    +0.000 C 
DOCKED: ATOM     14  O   UNL     1      28.096 -14.542  -1.402 -0.17 -0.00    +0.000 OA
DOCKED: BRANCH  13  18
DOCKED: ATOM     15  C   UNL     1      27.754 -12.809   3.339 -0.30 -0.00    +0.000 A 
DOCKED: ATOM     16  C   UNL     1      28.770 -13.747   3.067 -0.26 -0.00    +0.000 A 
DOCKED: ATOM     17  C   UNL     1      28.765 -14.486   1.882 -0.14 -0.00    +0.000 A 
DOCKED: ATOM     18  C   UNL     1      27.751 -14.305   0.928 -0.24 -0.00    +0.000 A 
DOCKED: ATOM     19  C   UNL     1      26.729 -13.379   1.198 -0.27 -0.00    +0.000 A 
DOCKED: ATOM     20  C   UNL     1      26.731 -12.640   2.384 -0.27 +0.00    +0.000 A 
DOCKED: BRANCH  15  22
DOCKED: ATOM     21  C   UNL     1      27.838 -12.713   5.873 -0.41 +0.00    +0.000 C 
DOCKED: ATOM     22  N   UNL     1      27.759 -12.039   4.570 -0.36 +0.00    +0.000 N 
DOCKED: ATOM     23  C   UNL     1      27.686 -10.573   4.535 -0.33 +0.00    +0.000 C 
DOCKED: ENDBRANCH  15  22
DOCKED: ENDBRANCH  13  18
DOCKED: ENDBRANCH   1  13
DOCKED: TORSDOF 6
DOCKED: TER
DOCKED: ENDMDL
________________________________________________________________________________


	BEGINNING GENETIC ALGORITHM DOCKING 81 of 100
Run: 81 Seed: 1436104777 2146818133 [ Run 81 of 100 GA/GALS ]
Beginning LAMARCKIAN GENETIC ALGORITHM (LGA), with a maximum of 2500000 energy evaluations.

Final-Value: -13.455


	FINAL GENETIC ALGORITHM DOCKED STATE
	_______________________________________________


Detailed state:  trans 25.763 -16.038 -2.617 quatxyzw -0.279010 -0.280025 -0.069600 0.915912 center -0.973 -0.390 0.234 ntor 6 173.3739 4.4861 148.0619 115.2914 -141.4287 -15.2734
State:	 25.763 -16.038  -2.617  -0.695 -0.698 -0.173 47.329    173.37    4.49  148.06  115.29 -141.43  -15.27

DOCKED: MODEL       81
DOCKED: USER    Run = 81
DOCKED: USER    DPF = ligand_dock.biased.dpf
DOCKED: USER  
DOCKED: USER    Estimated Free Energy of Binding    =  -10.86 kcal/mol  [=(1)+(2)+(3)-(4)]
DOCKED: USER    Estimated Inhibition Constant, Ki   =   10.87 nM (nanomolar)  [Temperature = 298.15 K]
DOCKED: USER    
DOCKED: USER    (1) Final Intermolecular Energy     =  -12.65 kcal/mol
DOCKED: USER        vdW + Hbond + desolv Energy     =  -12.65 kcal/mol
DOCKED: USER        Electrostatic Energy            =   +0.00 kcal/mol
DOCKED: USER    (2) Final Total Internal Energy     =   -0.80 kcal/mol
DOCKED: USER    (3) Torsional Free Energy           =   +1.79 kcal/mol
DOCKED: USER    (4) Unbound System's Energy  [=(2)] =   -0.80 kcal/mol
DOCKED: USER    
DOCKED: USER    
DOCKED: USER    NEWDPF move ligand.pdbqt
DOCKED: USER    NEWDPF about -0.973000 -0.390000 0.234000
DOCKED: USER    NEWDPF tran0 25.762912 -16.037598 -2.617358
DOCKED: USER    NEWDPF quaternion0 -0.279010 -0.280025 -0.069600 0.915912
DOCKED: USER    NEWDPF axisangle0 -0.695130 -0.697657 -0.173403 47.328819
DOCKED: USER    NEWDPF quat0 -0.695130 -0.697657 -0.173403 47.328819
DOCKED: USER    NEWDPF dihe0 173.37 4.49 148.06 115.29 -141.43 -15.27 
DOCKED: USER  keepresnum = 1 
DOCKED: USER  
DOCKED: REMARK  Name = 
DOCKED: REMARK  10 active torsions:
DOCKED: REMARK  status: ('A' for Active; 'I' for Inactive)
DOCKED: REMARK    1  A    between atoms: C_1  and  N_2
DOCKED: REMARK    2  A    between atoms: N_2  and  C_3
DOCKED: REMARK    3  A    between atoms: N_2  and  C_22
DOCKED: REMARK    4  A    between atoms: C_6  and  C_9
DOCKED: REMARK    5  A    between atoms: C_9  and  C_10
DOCKED: REMARK    6  A    between atoms: C_10  and  C_11
DOCKED: REMARK    7  A    between atoms: C_10  and  C_20
DOCKED: REMARK    8  A    between atoms: C_12  and  C_13
DOCKED: REMARK    9  A    between atoms: C_12  and  C_19
DOCKED: REMARK   10  A    between atoms: C_14  and  C_15
DOCKED: REMARK                            x       y       z     vdW  Elec       q    Type
DOCKED: REMARK                         _______ _______ _______ _____ _____    ______ ____
DOCKED: USER                              x       y       z     vdW  Elec       q    Type
DOCKED: USER                           _______ _______ _______ _____ _____    ______ ____
DOCKED: ROOT
DOCKED: ATOM      1  C   UNL     1      26.436 -15.654  -1.219 -0.42 -0.00    +0.000 C 
DOCKED: ATOM      2  C   UNL     1      27.054 -15.379   0.156 -0.31 -0.00    +0.000 C 
DOCKED: ENDROOT
DOCKED: BRANCH   1   3
DOCKED: ATOM      3  C   UNL     1      25.178 -16.486  -1.067 -0.58 -0.00    +0.000 C 
DOCKED: ATOM      4  C   UNL     1      25.087 -17.623  -0.344 -0.66 -0.00    +0.000 C 
DOCKED: ATOM      5  C   UNL     1      26.269 -18.182   0.417 -0.55 -0.00    +0.000 C 
DOCKED: BRANCH   4   6
DOCKED: ATOM      6  C   UNL     1      23.765 -18.297  -0.275 -0.77 -0.00    +0.000 C 
DOCKED: ATOM      7  C   UNL     1      22.651 -17.776  -0.807 -0.78 -0.00    +0.000 C 
DOCKED: BRANCH   7   8
DOCKED: ATOM      8  C   UNL     1      21.331 -18.439  -0.748 -0.83 -0.00    +0.000 C 
DOCKED: ATOM      9  N   UNL     1      21.179 -19.811  -0.363 -0.70 -0.00    +0.000 N 
DOCKED: ATOM     10  O   UNL     1      19.943 -20.343  -0.224 -1.30 -0.00    +0.000 OA
DOCKED: ATOM     11  O   UNL     1      20.311 -17.775  -1.072 -2.14 -0.00    +0.000 OA
DOCKED: ATOM     12  H   UNL     1      21.975 -20.368  -0.200 -0.39 -0.00    +0.000 HD
DOCKED: ENDBRANCH   7   8
DOCKED: ENDBRANCH   4   6
DOCKED: ENDBRANCH   1   3
DOCKED: BRANCH   1  13
DOCKED: ATOM     13  C   UNL     1      27.444 -16.362  -2.102 -0.36 -0.00    +0.000 C 
DOCKED: ATOM     14  O   UNL     1      27.898 -17.483  -1.739 -0.37 -0.00    +0.000 OA
DOCKED: BRANCH  13  18
DOCKED: ATOM     15  C   UNL     1      28.853 -14.625  -5.802 -0.31 -0.00    +0.000 A 
DOCKED: ATOM     16  C   UNL     1      27.510 -14.493  -5.397 -0.34 -0.00    +0.000 A 
DOCKED: ATOM     17  C   UNL     1      27.063 -15.059  -4.201 -0.40 -0.00    +0.000 A 
DOCKED: ATOM     18  C   UNL     1      27.945 -15.765  -3.368 -0.26 -0.00    +0.000 A 
DOCKED: ATOM     19  C   UNL     1      29.283 -15.910  -3.771 -0.21 -0.00    +0.000 A 
DOCKED: ATOM     20  C   UNL     1      29.731 -15.346  -4.969 -0.21 -0.00    +0.000 A 
DOCKED: BRANCH  15  22
DOCKED: ATOM     21  C   UNL     1      28.501 -13.046  -7.756 -0.25 -0.00    +0.000 C 
DOCKED: ATOM     22  N   UNL     1      29.319 -14.036  -7.045 -0.31 -0.00    +0.000 N 
DOCKED: ATOM     23  C   UNL     1      30.617 -14.422  -7.613 -0.20 -0.00    +0.000 C 
DOCKED: ENDBRANCH  15  22
DOCKED: ENDBRANCH  13  18
DOCKED: ENDBRANCH   1  13
DOCKED: TORSDOF 6
DOCKED: TER
DOCKED: ENDMDL
________________________________________________________________________________


	BEGINNING GENETIC ALGORITHM DOCKING 82 of 100
Run: 82 Seed: 307956198 1978213276 [ Run 82 of 100 GA/GALS ]
Beginning LAMARCKIAN GENETIC ALGORITHM (LGA), with a maximum of 2500000 energy evaluations.

Final-Value: -13.860


	FINAL GENETIC ALGORITHM DOCKED STATE
	_______________________________________________


Detailed state:  trans 27.144 -17.668 -0.778 quatxyzw -0.746966 -0.132143 -0.029839 -0.650914 center -0.973 -0.390 0.234 ntor 6 20.3760 -98.1445 -158.8669 110.4104 83.9139 164.5342
State:	 27.144 -17.668  -0.778  -0.984 -0.174 -0.039 -98.779     20.38  -98.14 -158.87  110.41   83.91  164.53

DOCKED: MODEL       82
DOCKED: USER    Run = 82
DOCKED: USER    DPF = ligand_dock.biased.dpf
DOCKED: USER  
DOCKED: USER    Estimated Free Energy of Binding    =  -10.95 kcal/mol  [=(1)+(2)+(3)-(4)]
DOCKED: USER    Estimated Inhibition Constant, Ki   =    9.34 nM (nanomolar)  [Temperature = 298.15 K]
DOCKED: USER    
DOCKED: USER    (1) Final Intermolecular Energy     =  -12.74 kcal/mol
DOCKED: USER        vdW + Hbond + desolv Energy     =  -12.74 kcal/mol
DOCKED: USER        Electrostatic Energy            =   +0.00 kcal/mol
DOCKED: USER    (2) Final Total Internal Energy     =   -1.12 kcal/mol
DOCKED: USER    (3) Torsional Free Energy           =   +1.79 kcal/mol
DOCKED: USER    (4) Unbound System's Energy  [=(2)] =   -1.12 kcal/mol
DOCKED: USER    
DOCKED: USER    
DOCKED: USER    NEWDPF move ligand.pdbqt
DOCKED: USER    NEWDPF about -0.973000 -0.390000 0.234000
DOCKED: USER    NEWDPF tran0 27.144147 -17.667646 -0.777993
DOCKED: USER    NEWDPF quaternion0 -0.746966 -0.132143 -0.029839 -0.650914
DOCKED: USER    NEWDPF axisangle0 -0.983949 -0.174067 -0.039305 -98.778887
DOCKED: USER    NEWDPF quat0 -0.983949 -0.174067 -0.039305 -98.778887
DOCKED: USER    NEWDPF dihe0 20.38 -98.14 -158.87 110.41 83.91 164.53 
DOCKED: USER  keepresnum = 1 
DOCKED: USER  
DOCKED: REMARK  Name = 
DOCKED: REMARK  10 active torsions:
DOCKED: REMARK  status: ('A' for Active; 'I' for Inactive)
DOCKED: REMARK    1  A    between atoms: C_1  and  N_2
DOCKED: REMARK    2  A    between atoms: N_2  and  C_3
DOCKED: REMARK    3  A    between atoms: N_2  and  C_22
DOCKED: REMARK    4  A    between atoms: C_6  and  C_9
DOCKED: REMARK    5  A    between atoms: C_9  and  C_10
DOCKED: REMARK    6  A    between atoms: C_10  and  C_11
DOCKED: REMARK    7  A    between atoms: C_10  and  C_20
DOCKED: REMARK    8  A    between atoms: C_12  and  C_13
DOCKED: REMARK    9  A    between atoms: C_12  and  C_19
DOCKED: REMARK   10  A    between atoms: C_14  and  C_15
DOCKED: REMARK                            x       y       z     vdW  Elec       q    Type
DOCKED: REMARK                         _______ _______ _______ _____ _____    ______ ____
DOCKED: USER                              x       y       z     vdW  Elec       q    Type
DOCKED: USER                           _______ _______ _______ _____ _____    ______ ____
DOCKED: ROOT
DOCKED: ATOM      1  C   UNL     1      27.266 -16.668  -2.020 -0.37 -0.00    +0.000 C 
DOCKED: ATOM      2  C   UNL     1      27.299 -15.662  -3.174 -0.35 -0.00    +0.000 C 
DOCKED: ENDROOT
DOCKED: BRANCH   1   3
DOCKED: ATOM      3  C   UNL     1      25.831 -17.000  -1.660 -0.57 -0.00    +0.000 C 
DOCKED: ATOM      4  C   UNL     1      25.458 -17.917  -0.741 -0.68 -0.00    +0.000 C 
DOCKED: ATOM      5  C   UNL     1      26.472 -18.714   0.049 -0.49 -0.00    +0.000 C 
DOCKED: BRANCH   4   6
DOCKED: ATOM      6  C   UNL     1      24.005 -18.094  -0.489 -0.78 -0.00    +0.000 C 
DOCKED: ATOM      7  C   UNL     1      23.104 -18.230  -1.472 -0.70 -0.00    +0.000 C 
DOCKED: BRANCH   7   8
DOCKED: ATOM      8  C   UNL     1      21.657 -18.410  -1.233 -0.49 -0.00    +0.000 C 
DOCKED: ATOM      9  N   UNL     1      20.960 -19.605  -1.605 -0.74 -0.00    +0.000 N 
DOCKED: ATOM     10  O   UNL     1      19.659 -19.764  -1.273 -2.02 -0.00    +0.000 OA
DOCKED: ATOM     11  O   UNL     1      21.014 -17.464  -0.704 -2.05 -0.00    +0.000 OA
DOCKED: ATOM     12  H   UNL     1      21.430 -20.313  -2.104 -0.51 -0.00    +0.000 HD
DOCKED: ENDBRANCH   7   8
DOCKED: ENDBRANCH   4   6
DOCKED: ENDBRANCH   1   3
DOCKED: BRANCH   1  13
DOCKED: ATOM     13  C   UNL     1      28.002 -16.099  -0.823 -0.33 -0.00    +0.000 C 
DOCKED: ATOM     14  O   UNL     1      29.005 -16.717  -0.368 -0.29 -0.00    +0.000 OA
DOCKED: BRANCH  13  18
DOCKED: ATOM     15  C   UNL     1      26.730 -12.452   1.119 -0.28 -0.00    +0.000 A 
DOCKED: ATOM     16  C   UNL     1      26.763 -12.560  -0.286 -0.13 -0.00    +0.000 A 
DOCKED: ATOM     17  C   UNL     1      27.176 -13.741  -0.905 -0.20 -0.00    +0.000 A 
DOCKED: ATOM     18  C   UNL     1      27.561 -14.854  -0.140 -0.25 -0.00    +0.000 A 
DOCKED: ATOM     19  C   UNL     1      27.542 -14.750   1.260 -0.17 -0.00    +0.000 A 
DOCKED: ATOM     20  C   UNL     1      27.130 -13.568   1.881 -0.26 -0.00    +0.000 A 
DOCKED: BRANCH  15  22
DOCKED: ATOM     21  C   UNL     1      27.004 -10.715   2.948 -0.27 +0.00    +0.000 C 
DOCKED: ATOM     22  N   UNL     1      26.300 -11.224   1.763 -0.36 +0.00    +0.000 N 
DOCKED: ATOM     23  C   UNL     1      25.154 -10.468   1.242 -0.45 +0.00    +0.000 C 
DOCKED: ENDBRANCH  15  22
DOCKED: ENDBRANCH  13  18
DOCKED: ENDBRANCH   1  13
DOCKED: TORSDOF 6
DOCKED: TER
DOCKED: ENDMDL
________________________________________________________________________________


	BEGINNING GENETIC ALGORITHM DOCKING 83 of 100
Run: 83 Seed: 1209744278 1569386203 [ Run 83 of 100 GA/GALS ]
Beginning LAMARCKIAN GENETIC ALGORITHM (LGA), with a maximum of 2500000 energy evaluations.

Final-Value: -14.384


	FINAL GENETIC ALGORITHM DOCKED STATE
	_______________________________________________


Detailed state:  trans 26.224 -15.631 -0.117 quatxyzw -0.881516 -0.418102 0.003842 -0.219328 center -0.973 -0.390 0.234 ntor 6 -47.4537 -52.3302 162.2209 168.0396 19.6130 -44.8502
State:	 26.224 -15.631  -0.117  -0.904 -0.429  0.004 -154.661    -47.45  -52.33  162.22  168.04   19.61  -44.85

DOCKED: MODEL       83
DOCKED: USER    Run = 83
DOCKED: USER    DPF = ligand_dock.biased.dpf
DOCKED: USER  
DOCKED: USER    Estimated Free Energy of Binding    =  -11.38 kcal/mol  [=(1)+(2)+(3)-(4)]
DOCKED: USER    Estimated Inhibition Constant, Ki   =    4.57 nM (nanomolar)  [Temperature = 298.15 K]
DOCKED: USER    
DOCKED: USER    (1) Final Intermolecular Energy     =  -13.17 kcal/mol
DOCKED: USER        vdW + Hbond + desolv Energy     =  -13.17 kcal/mol
DOCKED: USER        Electrostatic Energy            =   +0.00 kcal/mol
DOCKED: USER    (2) Final Total Internal Energy     =   -1.22 kcal/mol
DOCKED: USER    (3) Torsional Free Energy           =   +1.79 kcal/mol
DOCKED: USER    (4) Unbound System's Energy  [=(2)] =   -1.22 kcal/mol
DOCKED: USER    
DOCKED: USER    
DOCKED: USER    NEWDPF move ligand.pdbqt
DOCKED: USER    NEWDPF about -0.973000 -0.390000 0.234000
DOCKED: USER    NEWDPF tran0 26.224086 -15.630918 -0.117088
DOCKED: USER    NEWDPF quaternion0 -0.881516 -0.418102 0.003842 -0.219328
DOCKED: USER    NEWDPF axisangle0 -0.903516 -0.428537 0.003937 -154.660916
DOCKED: USER    NEWDPF quat0 -0.903516 -0.428537 0.003937 -154.660916
DOCKED: USER    NEWDPF dihe0 -47.45 -52.33 162.22 168.04 19.61 -44.85 
DOCKED: USER  keepresnum = 1 
DOCKED: USER  
DOCKED: REMARK  Name = 
DOCKED: REMARK  10 active torsions:
DOCKED: REMARK  status: ('A' for Active; 'I' for Inactive)
DOCKED: REMARK    1  A    between atoms: C_1  and  N_2
DOCKED: REMARK    2  A    between atoms: N_2  and  C_3
DOCKED: REMARK    3  A    between atoms: N_2  and  C_22
DOCKED: REMARK    4  A    between atoms: C_6  and  C_9
DOCKED: REMARK    5  A    between atoms: C_9  and  C_10
DOCKED: REMARK    6  A    between atoms: C_10  and  C_11
DOCKED: REMARK    7  A    between atoms: C_10  and  C_20
DOCKED: REMARK    8  A    between atoms: C_12  and  C_13
DOCKED: REMARK    9  A    between atoms: C_12  and  C_19
DOCKED: REMARK   10  A    between atoms: C_14  and  C_15
DOCKED: REMARK                            x       y       z     vdW  Elec       q    Type
DOCKED: REMARK                         _______ _______ _______ _____ _____    ______ ____
DOCKED: USER                              x       y       z     vdW  Elec       q    Type
DOCKED: USER                           _______ _______ _______ _____ _____    ______ ____
DOCKED: ROOT
DOCKED: ATOM      1  C   UNL     1      26.825 -15.799  -1.589 -0.39 -0.00    +0.000 C 
DOCKED: ATOM      2  C   UNL     1      27.305 -15.955  -3.036 -0.33 -0.00    +0.000 C 
DOCKED: ENDROOT
DOCKED: BRANCH   1   3
DOCKED: ATOM      3  C   UNL     1      25.504 -16.518  -1.399 -0.58 -0.00    +0.000 C 
DOCKED: ATOM      4  C   UNL     1      25.332 -17.631  -0.654 -0.68 -0.00    +0.000 C 
DOCKED: ATOM      5  C   UNL     1      26.478 -18.277   0.094 -0.58 -0.00    +0.000 C 
DOCKED: BRANCH   4   6
DOCKED: ATOM      6  C   UNL     1      23.960 -18.190  -0.549 -0.79 -0.00    +0.000 C 
DOCKED: ATOM      7  C   UNL     1      22.932 -17.748  -1.287 -0.60 -0.00    +0.000 C 
DOCKED: BRANCH   7   8
DOCKED: ATOM      8  C   UNL     1      21.563 -18.297  -1.193 -0.46 -0.00    +0.000 C 
DOCKED: ATOM      9  N   UNL     1      21.231 -19.610  -1.659 -0.63 -0.00    +0.000 N 
DOCKED: ATOM     10  O   UNL     1      19.989 -20.108  -1.457 -2.09 -0.00    +0.000 OA
DOCKED: ATOM     11  O   UNL     1      20.657 -17.570  -0.706 -2.14 +0.00    +0.000 OA
DOCKED: ATOM     12  H   UNL     1      21.907 -20.152  -2.127 -0.54 -0.00    +0.000 HD
DOCKED: ENDBRANCH   7   8
DOCKED: ENDBRANCH   4   6
DOCKED: ENDBRANCH   1   3
DOCKED: BRANCH   1  13
DOCKED: ATOM     13  C   UNL     1      26.689 -14.328  -1.250 -0.30 -0.00    +0.000 C 
DOCKED: ATOM     14  O   UNL     1      26.385 -13.512  -2.165 -0.24 -0.00    +0.000 OA
DOCKED: BRANCH  13  18
DOCKED: ATOM     15  C   UNL     1      27.411 -12.856   2.751 -0.29 -0.00    +0.000 A 
DOCKED: ATOM     16  C   UNL     1      27.818 -14.147   2.362 -0.29 -0.00    +0.000 A 
DOCKED: ATOM     17  C   UNL     1      27.579 -14.615   1.068 -0.23 -0.00    +0.000 A 
DOCKED: ATOM     18  C   UNL     1      26.936 -13.805   0.120 -0.25 -0.00    +0.000 A 
DOCKED: ATOM     19  C   UNL     1      26.517 -12.520   0.503 -0.25 -0.00    +0.000 A 
DOCKED: ATOM     20  C   UNL     1      26.753 -12.051   1.799 -0.30 +0.00    +0.000 A 
DOCKED: BRANCH  15  22
DOCKED: ATOM     21  C   UNL     1      27.796 -10.929   4.355 -0.35 +0.00    +0.000 C 
DOCKED: ATOM     22  N   UNL     1      27.659 -12.368   4.096 -0.33 +0.00    +0.000 N 
DOCKED: ATOM     23  C   UNL     1      27.776 -13.305   5.220 -0.51 -0.00    +0.000 C 
DOCKED: ENDBRANCH  15  22
DOCKED: ENDBRANCH  13  18
DOCKED: ENDBRANCH   1  13
DOCKED: TORSDOF 6
DOCKED: TER
DOCKED: ENDMDL
________________________________________________________________________________


	BEGINNING GENETIC ALGORITHM DOCKING 84 of 100
Run: 84 Seed: 1134898694 183784049 [ Run 84 of 100 GA/GALS ]
Beginning LAMARCKIAN GENETIC ALGORITHM (LGA), with a maximum of 2500000 energy evaluations.

Final-Value: -14.167


	FINAL GENETIC ALGORITHM DOCKED STATE
	_______________________________________________


Detailed state:  trans 26.439 -15.548 -1.243 quatxyzw 0.877176 0.309934 -0.002418 0.366739 center -0.973 -0.390 0.234 ntor 6 113.2069 129.7734 -63.9769 30.3608 54.3280 -60.4023
State:	 26.439 -15.548  -1.243   0.943  0.333 -0.003 136.971    113.21  129.77  -63.98   30.36   54.33  -60.40

DOCKED: MODEL       84
DOCKED: USER    Run = 84
DOCKED: USER    DPF = ligand_dock.biased.dpf
DOCKED: USER  
DOCKED: USER    Estimated Free Energy of Binding    =  -11.07 kcal/mol  [=(1)+(2)+(3)-(4)]
DOCKED: USER    Estimated Inhibition Constant, Ki   =    7.75 nM (nanomolar)  [Temperature = 298.15 K]
DOCKED: USER    
DOCKED: USER    (1) Final Intermolecular Energy     =  -12.86 kcal/mol
DOCKED: USER        vdW + Hbond + desolv Energy     =  -12.86 kcal/mol
DOCKED: USER        Electrostatic Energy            =   +0.00 kcal/mol
DOCKED: USER    (2) Final Total Internal Energy     =   -1.31 kcal/mol
DOCKED: USER    (3) Torsional Free Energy           =   +1.79 kcal/mol
DOCKED: USER    (4) Unbound System's Energy  [=(2)] =   -1.31 kcal/mol
DOCKED: USER    
DOCKED: USER    
DOCKED: USER    NEWDPF move ligand.pdbqt
DOCKED: USER    NEWDPF about -0.973000 -0.390000 0.234000
DOCKED: USER    NEWDPF tran0 26.439408 -15.547655 -1.242865
DOCKED: USER    NEWDPF quaternion0 0.877176 0.309934 -0.002418 0.366739
DOCKED: USER    NEWDPF axisangle0 0.942872 0.333146 -0.002599 136.970676
DOCKED: USER    NEWDPF quat0 0.942872 0.333146 -0.002599 136.970676
DOCKED: USER    NEWDPF dihe0 113.21 129.77 -63.98 30.36 54.33 -60.40 
DOCKED: USER  keepresnum = 1 
DOCKED: USER  
DOCKED: REMARK  Name = 
DOCKED: REMARK  10 active torsions:
DOCKED: REMARK  status: ('A' for Active; 'I' for Inactive)
DOCKED: REMARK    1  A    between atoms: C_1  and  N_2
DOCKED: REMARK    2  A    between atoms: N_2  and  C_3
DOCKED: REMARK    3  A    between atoms: N_2  and  C_22
DOCKED: REMARK    4  A    between atoms: C_6  and  C_9
DOCKED: REMARK    5  A    between atoms: C_9  and  C_10
DOCKED: REMARK    6  A    between atoms: C_10  and  C_11
DOCKED: REMARK    7  A    between atoms: C_10  and  C_20
DOCKED: REMARK    8  A    between atoms: C_12  and  C_13
DOCKED: REMARK    9  A    between atoms: C_12  and  C_19
DOCKED: REMARK   10  A    between atoms: C_14  and  C_15
DOCKED: REMARK                            x       y       z     vdW  Elec       q    Type
DOCKED: REMARK                         _______ _______ _______ _____ _____    ______ ____
DOCKED: USER                              x       y       z     vdW  Elec       q    Type
DOCKED: USER                           _______ _______ _______ _____ _____    ______ ____
DOCKED: ROOT
DOCKED: ATOM      1  C   UNL     1      26.779 -15.402  -2.799 -0.40 -0.00    +0.000 C 
DOCKED: ATOM      2  C   UNL     1      27.008 -15.233  -4.304 -0.48 -0.00    +0.000 C 
DOCKED: ENDROOT
DOCKED: BRANCH   1   3
DOCKED: ATOM      3  C   UNL     1      25.378 -15.920  -2.540 -0.55 -0.00    +0.000 C 
DOCKED: ATOM      4  C   UNL     1      25.038 -16.759  -1.538 -0.63 -0.00    +0.000 C 
DOCKED: ATOM      5  C   UNL     1      26.056 -17.265  -0.540 -0.59 -0.00    +0.000 C 
DOCKED: BRANCH   4   6
DOCKED: ATOM      6  C   UNL     1      23.609 -17.142  -1.410 -0.60 -0.00    +0.000 C 
DOCKED: ATOM      7  C   UNL     1      23.211 -18.370  -1.049 -0.81 -0.00    +0.000 C 
DOCKED: BRANCH   7   8
DOCKED: ATOM      8  C   UNL     1      21.792 -18.763  -0.915 -0.84 -0.00    +0.000 C 
DOCKED: ATOM      9  N   UNL     1      21.169 -19.698  -1.803 -0.59 -0.00    +0.000 N 
DOCKED: ATOM     10  O   UNL     1      19.898 -20.104  -1.578 -2.05 -0.00    +0.000 OA
DOCKED: ATOM     11  O   UNL     1      21.107 -18.233  -0.001 -1.50 -0.00    +0.000 OA
DOCKED: ATOM     12  H   UNL     1      21.666 -20.047  -2.579 -0.59 -0.00    +0.000 HD
DOCKED: ENDBRANCH   7   8
DOCKED: ENDBRANCH   4   6
DOCKED: ENDBRANCH   1   3
DOCKED: BRANCH   1  13
DOCKED: ATOM     13  C   UNL     1      27.001 -14.078  -2.094 -0.26 -0.00    +0.000 C 
DOCKED: ATOM     14  O   UNL     1      27.037 -13.017  -2.778 -0.21 -0.00    +0.000 OA
DOCKED: BRANCH  13  18
DOCKED: ATOM     15  C   UNL     1      27.589 -13.773   2.178 -0.28 -0.00    +0.000 A 
DOCKED: ATOM     16  C   UNL     1      26.551 -13.074   1.531 -0.29 -0.00    +0.000 A 
DOCKED: ATOM     17  C   UNL     1      26.369 -13.177   0.151 -0.24 -0.00    +0.000 A 
DOCKED: ATOM     18  C   UNL     1      27.212 -13.989  -0.625 -0.22 -0.00    +0.000 A 
DOCKED: ATOM     19  C   UNL     1      28.255 -14.681   0.012 -0.20 -0.00    +0.000 A 
DOCKED: ATOM     20  C   UNL     1      28.440 -14.577   1.393 -0.16 -0.00    +0.000 A 
DOCKED: BRANCH  15  22
DOCKED: ATOM     21  C   UNL     1      27.753 -12.358   4.277 -0.37 +0.00    +0.000 C 
DOCKED: ATOM     22  N   UNL     1      27.779 -13.667   3.614 -0.40 -0.00    +0.000 N 
DOCKED: ATOM     23  C   UNL     1      27.999 -14.869   4.429 -0.59 -0.00    +0.000 C 
DOCKED: ENDBRANCH  15  22
DOCKED: ENDBRANCH  13  18
DOCKED: ENDBRANCH   1  13
DOCKED: TORSDOF 6
DOCKED: TER
DOCKED: ENDMDL
________________________________________________________________________________


	BEGINNING GENETIC ALGORITHM DOCKING 85 of 100
Run: 85 Seed: 1737422427 94097787 [ Run 85 of 100 GA/GALS ]
Beginning LAMARCKIAN GENETIC ALGORITHM (LGA), with a maximum of 2500000 energy evaluations.

Final-Value: -14.245


	FINAL GENETIC ALGORITHM DOCKED STATE
	_______________________________________________


Detailed state:  trans 26.087 -15.979 -0.733 quatxyzw -0.842008 -0.426192 0.044935 -0.327664 center -0.973 -0.390 0.234 ntor 6 119.4898 42.9036 105.9316 -179.2326 41.3325 -49.5244
State:	 26.087 -15.979  -0.733  -0.891 -0.451  0.048 -141.746    119.49   42.90  105.93 -179.23   41.33  -49.52

DOCKED: MODEL       85
DOCKED: USER    Run = 85
DOCKED: USER    DPF = ligand_dock.biased.dpf
DOCKED: USER  
DOCKED: USER    Estimated Free Energy of Binding    =  -11.14 kcal/mol  [=(1)+(2)+(3)-(4)]
DOCKED: USER    Estimated Inhibition Constant, Ki   =    6.77 nM (nanomolar)  [Temperature = 298.15 K]
DOCKED: USER    
DOCKED: USER    (1) Final Intermolecular Energy     =  -12.93 kcal/mol
DOCKED: USER        vdW + Hbond + desolv Energy     =  -12.93 kcal/mol
DOCKED: USER        Electrostatic Energy            =   +0.00 kcal/mol
DOCKED: USER    (2) Final Total Internal Energy     =   -1.31 kcal/mol
DOCKED: USER    (3) Torsional Free Energy           =   +1.79 kcal/mol
DOCKED: USER    (4) Unbound System's Energy  [=(2)] =   -1.31 kcal/mol
DOCKED: USER    
DOCKED: USER    
DOCKED: USER    NEWDPF move ligand.pdbqt
DOCKED: USER    NEWDPF about -0.973000 -0.390000 0.234000
DOCKED: USER    NEWDPF tran0 26.087098 -15.978723 -0.732891
DOCKED: USER    NEWDPF quaternion0 -0.842008 -0.426192 0.044935 -0.327664
DOCKED: USER    NEWDPF axisangle0 -0.891208 -0.451095 0.047561 -141.745937
DOCKED: USER    NEWDPF quat0 -0.891208 -0.451095 0.047561 -141.745937
DOCKED: USER    NEWDPF dihe0 119.49 42.90 105.93 -179.23 41.33 -49.52 
DOCKED: USER  keepresnum = 1 
DOCKED: USER  
DOCKED: REMARK  Name = 
DOCKED: REMARK  10 active torsions:
DOCKED: REMARK  status: ('A' for Active; 'I' for Inactive)
DOCKED: REMARK    1  A    between atoms: C_1  and  N_2
DOCKED: REMARK    2  A    between atoms: N_2  and  C_3
DOCKED: REMARK    3  A    between atoms: N_2  and  C_22
DOCKED: REMARK    4  A    between atoms: C_6  and  C_9
DOCKED: REMARK    5  A    between atoms: C_9  and  C_10
DOCKED: REMARK    6  A    between atoms: C_10  and  C_11
DOCKED: REMARK    7  A    between atoms: C_10  and  C_20
DOCKED: REMARK    8  A    between atoms: C_12  and  C_13
DOCKED: REMARK    9  A    between atoms: C_12  and  C_19
DOCKED: REMARK   10  A    between atoms: C_14  and  C_15
DOCKED: REMARK                            x       y       z     vdW  Elec       q    Type
DOCKED: REMARK                         _______ _______ _______ _____ _____    ______ ____
DOCKED: USER                              x       y       z     vdW  Elec       q    Type
DOCKED: USER                           _______ _______ _______ _____ _____    ______ ____
DOCKED: ROOT
DOCKED: ATOM      1  C   UNL     1      26.446 -15.850  -2.286 -0.45 -0.00    +0.000 C 
DOCKED: ATOM      2  C   UNL     1      26.689 -15.724  -3.793 -0.36 -0.00    +0.000 C 
DOCKED: ENDROOT
DOCKED: BRANCH   1   3
DOCKED: ATOM      3  C   UNL     1      25.212 -16.692  -2.026 -0.61 -0.00    +0.000 C 
DOCKED: ATOM      4  C   UNL     1      25.140 -17.700  -1.131 -0.68 -0.00    +0.000 C 
DOCKED: ATOM      5  C   UNL     1      26.320 -18.087  -0.267 -0.63 -0.00    +0.000 C 
DOCKED: BRANCH   4   6
DOCKED: ATOM      6  C   UNL     1      23.840 -18.403  -0.981 -0.80 -0.00    +0.000 C 
DOCKED: ATOM      7  C   UNL     1      22.672 -17.758  -0.848 -0.77 -0.00    +0.000 C 
DOCKED: BRANCH   7   8
DOCKED: ATOM      8  C   UNL     1      21.372 -18.446  -0.701 -0.84 -0.00    +0.000 C 
DOCKED: ATOM      9  N   UNL     1      21.262 -19.772  -0.170 -0.67 -0.00    +0.000 N 
DOCKED: ATOM     10  O   UNL     1      20.043 -20.320   0.041 -1.15 -0.00    +0.000 OA
DOCKED: ATOM     11  O   UNL     1      20.330 -17.848  -1.081 -2.18 -0.00    +0.000 OA
DOCKED: ATOM     12  H   UNL     1      22.075 -20.287   0.041 -0.55 -0.00    +0.000 HD
DOCKED: ENDBRANCH   7   8
DOCKED: ENDBRANCH   4   6
DOCKED: ENDBRANCH   1   3
DOCKED: BRANCH   1  13
DOCKED: ATOM     13  C   UNL     1      26.294 -14.472  -1.673 -0.34 -0.00    +0.000 C 
DOCKED: ATOM     14  O   UNL     1      25.887 -13.520  -2.397 -0.09 -0.00    +0.000 OA
DOCKED: BRANCH  13  18
DOCKED: ATOM     15  C   UNL     1      27.322 -13.709   2.456 -0.30 -0.00    +0.000 A 
DOCKED: ATOM     16  C   UNL     1      27.941 -14.744   1.727 -0.11 -0.00    +0.000 A 
DOCKED: ATOM     17  C   UNL     1      27.602 -14.984   0.394 -0.26 -0.00    +0.000 A 
DOCKED: ATOM     18  C   UNL     1      26.641 -14.193  -0.255 -0.28 -0.00    +0.000 A 
DOCKED: ATOM     19  C   UNL     1      26.011 -13.167   0.468 -0.25 -0.00    +0.000 A 
DOCKED: ATOM     20  C   UNL     1      26.348 -12.926   1.803 -0.26 -0.00    +0.000 A 
DOCKED: BRANCH  15  22
DOCKED: ATOM     21  C   UNL     1      27.914 -14.573   4.766 -0.60 -0.00    +0.000 C 
DOCKED: ATOM     22  N   UNL     1      27.674 -13.458   3.842 -0.42 -0.00    +0.000 N 
DOCKED: ATOM     23  C   UNL     1      27.798 -12.083   4.344 -0.36 +0.00    +0.000 C 
DOCKED: ENDBRANCH  15  22
DOCKED: ENDBRANCH  13  18
DOCKED: ENDBRANCH   1  13
DOCKED: TORSDOF 6
DOCKED: TER
DOCKED: ENDMDL
________________________________________________________________________________


	BEGINNING GENETIC ALGORITHM DOCKING 86 of 100
Run: 86 Seed: 713105793 796641549 [ Run 86 of 100 GA/GALS ]
Beginning LAMARCKIAN GENETIC ALGORITHM (LGA), with a maximum of 2500000 energy evaluations.

Final-Value: -14.425


	FINAL GENETIC ALGORITHM DOCKED STATE
	_______________________________________________


Detailed state:  trans 26.571 -15.617 -0.030 quatxyzw 0.892538 0.355572 -0.032852 0.275437 center -0.973 -0.390 0.234 ntor 6 145.6840 -109.6672 -144.8961 178.4922 15.4209 -56.5040
State:	 26.571 -15.617  -0.030   0.928  0.370 -0.034 148.024    145.68 -109.67 -144.90  178.49   15.42  -56.50

DOCKED: MODEL       86
DOCKED: USER    Run = 86
DOCKED: USER    DPF = ligand_dock.biased.dpf
DOCKED: USER  
DOCKED: USER    Estimated Free Energy of Binding    =  -11.45 kcal/mol  [=(1)+(2)+(3)-(4)]
DOCKED: USER    Estimated Inhibition Constant, Ki   =    4.05 nM (nanomolar)  [Temperature = 298.15 K]
DOCKED: USER    
DOCKED: USER    (1) Final Intermolecular Energy     =  -13.24 kcal/mol
DOCKED: USER        vdW + Hbond + desolv Energy     =  -13.24 kcal/mol
DOCKED: USER        Electrostatic Energy            =   +0.00 kcal/mol
DOCKED: USER    (2) Final Total Internal Energy     =   -1.19 kcal/mol
DOCKED: USER    (3) Torsional Free Energy           =   +1.79 kcal/mol
DOCKED: USER    (4) Unbound System's Energy  [=(2)] =   -1.19 kcal/mol
DOCKED: USER    
DOCKED: USER    
DOCKED: USER    NEWDPF move ligand.pdbqt
DOCKED: USER    NEWDPF about -0.973000 -0.390000 0.234000
DOCKED: USER    NEWDPF tran0 26.570863 -15.616632 -0.029987
DOCKED: USER    NEWDPF quaternion0 0.892538 0.355572 -0.032852 0.275437
DOCKED: USER    NEWDPF axisangle0 0.928451 0.369880 -0.034174 148.023870
DOCKED: USER    NEWDPF quat0 0.928451 0.369880 -0.034174 148.023870
DOCKED: USER    NEWDPF dihe0 145.68 -109.67 -144.90 178.49 15.42 -56.50 
DOCKED: USER  keepresnum = 1 
DOCKED: USER  
DOCKED: REMARK  Name = 
DOCKED: REMARK  10 active torsions:
DOCKED: REMARK  status: ('A' for Active; 'I' for Inactive)
DOCKED: REMARK    1  A    between atoms: C_1  and  N_2
DOCKED: REMARK    2  A    between atoms: N_2  and  C_3
DOCKED: REMARK    3  A    between atoms: N_2  and  C_22
DOCKED: REMARK    4  A    between atoms: C_6  and  C_9
DOCKED: REMARK    5  A    between atoms: C_9  and  C_10
DOCKED: REMARK    6  A    between atoms: C_10  and  C_11
DOCKED: REMARK    7  A    between atoms: C_10  and  C_20
DOCKED: REMARK    8  A    between atoms: C_12  and  C_13
DOCKED: REMARK    9  A    between atoms: C_12  and  C_19
DOCKED: REMARK   10  A    between atoms: C_14  and  C_15
DOCKED: REMARK                            x       y       z     vdW  Elec       q    Type
DOCKED: REMARK                         _______ _______ _______ _____ _____    ______ ____
DOCKED: USER                              x       y       z     vdW  Elec       q    Type
DOCKED: USER                           _______ _______ _______ _____ _____    ______ ____
DOCKED: ROOT
DOCKED: ATOM      1  C   UNL     1      26.967 -15.733  -1.575 -0.37 -0.00    +0.000 C 
DOCKED: ATOM      2  C   UNL     1      27.247 -15.827  -3.078 -0.34 -0.00    +0.000 C 
DOCKED: ENDROOT
DOCKED: BRANCH   1   3
DOCKED: ATOM      3  C   UNL     1      25.607 -16.326  -1.261 -0.55 -0.00    +0.000 C 
DOCKED: ATOM      4  C   UNL     1      25.405 -17.509  -0.642 -0.66 -0.00    +0.000 C 
DOCKED: ATOM      5  C   UNL     1      26.556 -18.374  -0.177 -0.58 -0.00    +0.000 C 
DOCKED: BRANCH   4   6
DOCKED: ATOM      6  C   UNL     1      24.003 -17.925  -0.383 -0.75 -0.00    +0.000 C 
DOCKED: ATOM      7  C   UNL     1      23.111 -18.137  -1.361 -0.72 -0.00    +0.000 C 
DOCKED: BRANCH   7   8
DOCKED: ATOM      8  C   UNL     1      21.715 -18.554  -1.116 -0.75 -0.00    +0.000 C 
DOCKED: ATOM      9  N   UNL     1      21.132 -19.696  -1.757 -0.63 -0.00    +0.000 N 
DOCKED: ATOM     10  O   UNL     1      19.884 -20.098  -1.423 -2.04 -0.00    +0.000 OA
DOCKED: ATOM     11  O   UNL     1      21.010 -17.863  -0.334 -1.94 +0.00    +0.000 OA
DOCKED: ATOM     12  H   UNL     1      21.640 -20.188  -2.443 -0.60 -0.00    +0.000 HD
DOCKED: ENDBRANCH   7   8
DOCKED: ENDBRANCH   4   6
DOCKED: ENDBRANCH   1   3
DOCKED: BRANCH   1  13
DOCKED: ATOM     13  C   UNL     1      27.037 -14.286  -1.129 -0.27 -0.00    +0.000 C 
DOCKED: ATOM     14  O   UNL     1      26.935 -13.372  -1.995 -0.22 -0.00    +0.000 OA
DOCKED: BRANCH  13  18
DOCKED: ATOM     15  C   UNL     1      27.682 -13.225   3.012 -0.31 -0.00    +0.000 A 
DOCKED: ATOM     16  C   UNL     1      28.110 -14.466   2.499 -0.24 -0.00    +0.000 A 
DOCKED: ATOM     17  C   UNL     1      27.896 -14.801   1.161 -0.22 -0.00    +0.000 A 
DOCKED: ATOM     18  C   UNL     1      27.257 -13.904   0.290 -0.24 -0.00    +0.000 A 
DOCKED: ATOM     19  C   UNL     1      26.817 -12.670   0.797 -0.26 -0.00    +0.000 A 
DOCKED: ATOM     20  C   UNL     1      27.028 -12.334   2.137 -0.28 +0.00    +0.000 A 
DOCKED: BRANCH  15  22
DOCKED: ATOM     21  C   UNL     1      28.301 -13.900   5.377 -0.49 -0.00    +0.000 C 
DOCKED: ATOM     22  N   UNL     1      27.904 -12.875   4.404 -0.38 -0.00    +0.000 N 
DOCKED: ATOM     23  C   UNL     1      27.736 -11.490   4.861 -0.37 +0.00    +0.000 C 
DOCKED: ENDBRANCH  15  22
DOCKED: ENDBRANCH  13  18
DOCKED: ENDBRANCH   1  13
DOCKED: TORSDOF 6
DOCKED: TER
DOCKED: ENDMDL
________________________________________________________________________________


	BEGINNING GENETIC ALGORITHM DOCKING 87 of 100
Run: 87 Seed: 272912680 572086075 [ Run 87 of 100 GA/GALS ]
Beginning LAMARCKIAN GENETIC ALGORITHM (LGA), with a maximum of 2500000 energy evaluations.

Final-Value: -14.170


	FINAL GENETIC ALGORITHM DOCKED STATE
	_______________________________________________


Detailed state:  trans 25.697 -15.052 -2.714 quatxyzw 0.712143 0.462797 0.038179 -0.526511 center -0.973 -0.390 0.234 ntor 6 -105.5567 -14.7608 97.3258 -85.8083 -44.4072 -52.5089
State:	 25.697 -15.052  -2.714   0.838  0.544  0.045 -116.460   -105.56  -14.76   97.33  -85.81  -44.41  -52.51

DOCKED: MODEL       87
DOCKED: USER    Run = 87
DOCKED: USER    DPF = ligand_dock.biased.dpf
DOCKED: USER  
DOCKED: USER    Estimated Free Energy of Binding    =  -11.54 kcal/mol  [=(1)+(2)+(3)-(4)]
DOCKED: USER    Estimated Inhibition Constant, Ki   =    3.49 nM (nanomolar)  [Temperature = 298.15 K]
DOCKED: USER    
DOCKED: USER    (1) Final Intermolecular Energy     =  -13.33 kcal/mol
DOCKED: USER        vdW + Hbond + desolv Energy     =  -13.33 kcal/mol
DOCKED: USER        Electrostatic Energy            =   +0.00 kcal/mol
DOCKED: USER    (2) Final Total Internal Energy     =   -0.84 kcal/mol
DOCKED: USER    (3) Torsional Free Energy           =   +1.79 kcal/mol
DOCKED: USER    (4) Unbound System's Energy  [=(2)] =   -0.84 kcal/mol
DOCKED: USER    
DOCKED: USER    
DOCKED: USER    NEWDPF move ligand.pdbqt
DOCKED: USER    NEWDPF about -0.973000 -0.390000 0.234000
DOCKED: USER    NEWDPF tran0 25.696835 -15.051758 -2.714388
DOCKED: USER    NEWDPF quaternion0 0.712143 0.462797 0.038179 -0.526511
DOCKED: USER    NEWDPF axisangle0 0.837650 0.544359 0.044907 -116.459985
DOCKED: USER    NEWDPF quat0 0.837650 0.544359 0.044907 -116.459985
DOCKED: USER    NEWDPF dihe0 -105.56 -14.76 97.33 -85.81 -44.41 -52.51 
DOCKED: USER  keepresnum = 1 
DOCKED: USER  
DOCKED: REMARK  Name = 
DOCKED: REMARK  10 active torsions:
DOCKED: REMARK  status: ('A' for Active; 'I' for Inactive)
DOCKED: REMARK    1  A    between atoms: C_1  and  N_2
DOCKED: REMARK    2  A    between atoms: N_2  and  C_3
DOCKED: REMARK    3  A    between atoms: N_2  and  C_22
DOCKED: REMARK    4  A    between atoms: C_6  and  C_9
DOCKED: REMARK    5  A    between atoms: C_9  and  C_10
DOCKED: REMARK    6  A    between atoms: C_10  and  C_11
DOCKED: REMARK    7  A    between atoms: C_10  and  C_20
DOCKED: REMARK    8  A    between atoms: C_12  and  C_13
DOCKED: REMARK    9  A    between atoms: C_12  and  C_19
DOCKED: REMARK   10  A    between atoms: C_14  and  C_15
DOCKED: REMARK                            x       y       z     vdW  Elec       q    Type
DOCKED: REMARK                         _______ _______ _______ _____ _____    ______ ____
DOCKED: USER                              x       y       z     vdW  Elec       q    Type
DOCKED: USER                           _______ _______ _______ _____ _____    ______ ____
DOCKED: ROOT
DOCKED: ATOM      1  C   UNL     1      27.011 -15.889  -2.357 -0.38 -0.00    +0.000 C 
DOCKED: ATOM      2  C   UNL     1      28.225 -16.774  -2.055 -0.31 -0.00    +0.000 C 
DOCKED: ENDROOT
DOCKED: BRANCH   1   3
DOCKED: ATOM      3  C   UNL     1      25.732 -16.686  -2.190 -0.55 -0.00    +0.000 C 
DOCKED: ATOM      4  C   UNL     1      25.449 -17.479  -1.134 -0.65 -0.00    +0.000 C 
DOCKED: ATOM      5  C   UNL     1      26.408 -17.639   0.025 -0.57 -0.00    +0.000 C 
DOCKED: BRANCH   4   6
DOCKED: ATOM      6  C   UNL     1      24.131 -18.165  -1.116 -0.78 -0.00    +0.000 C 
DOCKED: ATOM      7  C   UNL     1      22.965 -17.511  -1.211 -0.59 -0.00    +0.000 C 
DOCKED: BRANCH   7   8
DOCKED: ATOM      8  C   UNL     1      21.649 -18.183  -1.197 -0.39 -0.00    +0.000 C 
DOCKED: ATOM      9  N   UNL     1      21.451 -19.492  -1.742 -0.58 -0.00    +0.000 N 
DOCKED: ATOM     10  O   UNL     1      20.253 -20.107  -1.614 -2.24 -0.00    +0.000 OA
DOCKED: ATOM     11  O   UNL     1      20.666 -17.565  -0.709 -2.14 +0.00    +0.000 OA
DOCKED: ATOM     12  H   UNL     1      22.188 -19.946  -2.212 -0.54 -0.00    +0.000 HD
DOCKED: ENDBRANCH   7   8
DOCKED: ENDBRANCH   4   6
DOCKED: ENDBRANCH   1   3
DOCKED: BRANCH   1  13
DOCKED: ATOM     13  C   UNL     1      27.118 -15.333  -3.763 -0.41 -0.00    +0.000 C 
DOCKED: ATOM     14  O   UNL     1      27.830 -15.941  -4.611 -0.53 -0.00    +0.000 OA
DOCKED: BRANCH  13  18
DOCKED: ATOM     15  C   UNL     1      25.189 -11.648  -4.942 -0.31 -0.00    +0.000 A 
DOCKED: ATOM     16  C   UNL     1      26.587 -11.800  -5.023 -0.22 -0.00    +0.000 A 
DOCKED: ATOM     17  C   UNL     1      27.202 -12.994  -4.639 -0.23 -0.00    +0.000 A 
DOCKED: ATOM     18  C   UNL     1      26.439 -14.075  -4.170 -0.39 -0.00    +0.000 A 
DOCKED: ATOM     19  C   UNL     1      25.046 -13.927  -4.076 -0.40 -0.00    +0.000 A 
DOCKED: ATOM     20  C   UNL     1      24.429 -12.732  -4.458 +0.07 -0.00    +0.000 A 
DOCKED: BRANCH  15  22
DOCKED: ATOM     21  C   UNL     1      24.005 -10.250  -6.696 -0.48 -0.00    +0.000 C 
DOCKED: ATOM     22  N   UNL     1      24.549 -10.408  -5.342 -0.40 -0.00    +0.000 N 
DOCKED: ATOM     23  C   UNL     1      24.433  -9.289  -4.397 -0.33 -0.00    +0.000 C 
DOCKED: ENDBRANCH  15  22
DOCKED: ENDBRANCH  13  18
DOCKED: ENDBRANCH   1  13
DOCKED: TORSDOF 6
DOCKED: TER
DOCKED: ENDMDL
________________________________________________________________________________


	BEGINNING GENETIC ALGORITHM DOCKING 88 of 100
Run: 88 Seed: 1162507126 1056448843 [ Run 88 of 100 GA/GALS ]
Beginning LAMARCKIAN GENETIC ALGORITHM (LGA), with a maximum of 2500000 energy evaluations.

Final-Value: -14.325


	FINAL GENETIC ALGORITHM DOCKED STATE
	_______________________________________________


Detailed state:  trans 26.991 -15.818 -2.663 quatxyzw 0.262596 0.066451 0.033121 -0.962045 center -0.973 -0.390 0.234 ntor 6 -154.3053 82.4637 30.1917 -31.1122 -152.7982 -51.1745
State:	 26.991 -15.818  -2.663   0.962  0.244  0.121 -31.673   -154.31   82.46   30.19  -31.11 -152.80  -51.17

DOCKED: MODEL       88
DOCKED: USER    Run = 88
DOCKED: USER    DPF = ligand_dock.biased.dpf
DOCKED: USER  
DOCKED: USER    Estimated Free Energy of Binding    =  -11.56 kcal/mol  [=(1)+(2)+(3)-(4)]
DOCKED: USER    Estimated Inhibition Constant, Ki   =    3.35 nM (nanomolar)  [Temperature = 298.15 K]
DOCKED: USER    
DOCKED: USER    (1) Final Intermolecular Energy     =  -13.35 kcal/mol
DOCKED: USER        vdW + Hbond + desolv Energy     =  -13.35 kcal/mol
DOCKED: USER        Electrostatic Energy            =   +0.00 kcal/mol
DOCKED: USER    (2) Final Total Internal Energy     =   -0.97 kcal/mol
DOCKED: USER    (3) Torsional Free Energy           =   +1.79 kcal/mol
DOCKED: USER    (4) Unbound System's Energy  [=(2)] =   -0.97 kcal/mol
DOCKED: USER    
DOCKED: USER    
DOCKED: USER    NEWDPF move ligand.pdbqt
DOCKED: USER    NEWDPF about -0.973000 -0.390000 0.234000
DOCKED: USER    NEWDPF tran0 26.991250 -15.818260 -2.662624
DOCKED: USER    NEWDPF quaternion0 0.262596 0.066451 0.033121 -0.962045
DOCKED: USER    NEWDPF axisangle0 0.962275 0.243508 0.121372 -31.672784
DOCKED: USER    NEWDPF quat0 0.962275 0.243508 0.121372 -31.672784
DOCKED: USER    NEWDPF dihe0 -154.31 82.46 30.19 -31.11 -152.80 -51.17 
DOCKED: USER  keepresnum = 1 
DOCKED: USER  
DOCKED: REMARK  Name = 
DOCKED: REMARK  10 active torsions:
DOCKED: REMARK  status: ('A' for Active; 'I' for Inactive)
DOCKED: REMARK    1  A    between atoms: C_1  and  N_2
DOCKED: REMARK    2  A    between atoms: N_2  and  C_3
DOCKED: REMARK    3  A    between atoms: N_2  and  C_22
DOCKED: REMARK    4  A    between atoms: C_6  and  C_9
DOCKED: REMARK    5  A    between atoms: C_9  and  C_10
DOCKED: REMARK    6  A    between atoms: C_10  and  C_11
DOCKED: REMARK    7  A    between atoms: C_10  and  C_20
DOCKED: REMARK    8  A    between atoms: C_12  and  C_13
DOCKED: REMARK    9  A    between atoms: C_12  and  C_19
DOCKED: REMARK   10  A    between atoms: C_14  and  C_15
DOCKED: REMARK                            x       y       z     vdW  Elec       q    Type
DOCKED: REMARK                         _______ _______ _______ _____ _____    ______ ____
DOCKED: USER                              x       y       z     vdW  Elec       q    Type
DOCKED: USER                           _______ _______ _______ _____ _____    ______ ____
DOCKED: ROOT
DOCKED: ATOM      1  C   UNL     1      27.134 -15.441  -1.115 -0.34 -0.00    +0.000 C 
DOCKED: ATOM      2  C   UNL     1      27.214 -15.163   0.389 -0.29 -0.00    +0.000 C 
DOCKED: ENDROOT
DOCKED: BRANCH   1   3
DOCKED: ATOM      3  C   UNL     1      25.782 -16.032  -1.463 -0.52 -0.00    +0.000 C 
DOCKED: ATOM      4  C   UNL     1      25.301 -17.198  -0.979 -0.65 -0.00    +0.000 C 
DOCKED: ATOM      5  C   UNL     1      26.090 -18.043  -0.002 -0.64 -0.00    +0.000 C 
DOCKED: BRANCH   4   6
DOCKED: ATOM      6  C   UNL     1      23.940 -17.615  -1.401 -0.73 -0.00    +0.000 C 
DOCKED: ATOM      7  C   UNL     1      22.952 -17.873  -0.531 -0.80 -0.00    +0.000 C 
DOCKED: BRANCH   7   8
DOCKED: ATOM      8  C   UNL     1      21.593 -18.286  -0.939 -0.76 -0.00    +0.000 C 
DOCKED: ATOM      9  N   UNL     1      21.337 -19.527  -1.608 -0.65 -0.00    +0.000 N 
DOCKED: ATOM     10  O   UNL     1      20.065 -19.908  -1.868 -2.29 -0.00    +0.000 OA
DOCKED: ATOM     11  O   UNL     1      20.634 -17.503  -0.709 -2.10 +0.00    +0.000 OA
DOCKED: ATOM     12  H   UNL     1      22.088 -20.104  -1.879 -0.49 -0.00    +0.000 HD
DOCKED: ENDBRANCH   7   8
DOCKED: ENDBRANCH   4   6
DOCKED: ENDBRANCH   1   3
DOCKED: BRANCH   1  13
DOCKED: ATOM     13  C   UNL     1      28.251 -16.379  -1.525 -0.32 -0.00    +0.000 C 
DOCKED: ATOM     14  O   UNL     1      28.757 -17.146  -0.658 -0.35 -0.00    +0.000 OA
DOCKED: BRANCH  13  18
DOCKED: ATOM     15  C   UNL     1      29.888 -16.468  -5.525 -0.29 -0.00    +0.000 A 
DOCKED: ATOM     16  C   UNL     1      30.443 -17.246  -4.491 -0.23 -0.00    +0.000 A 
DOCKED: ATOM     17  C   UNL     1      29.909 -17.211  -3.201 -0.18 -0.00    +0.000 A 
DOCKED: ATOM     18  C   UNL     1      28.798 -16.404  -2.906 -0.23 -0.00    +0.000 A 
DOCKED: ATOM     19  C   UNL     1      28.247 -15.616  -3.930 -0.28 -0.00    +0.000 A 
DOCKED: ATOM     20  C   UNL     1      28.781 -15.649  -5.221 -0.32 -0.00    +0.000 A 
DOCKED: BRANCH  15  22
DOCKED: ATOM     21  C   UNL     1      30.766 -17.785  -7.507 -0.34 -0.00    +0.000 C 
DOCKED: ATOM     22  N   UNL     1      30.442 -16.504  -6.867 -0.33 -0.00    +0.000 N 
DOCKED: ATOM     23  C   UNL     1      30.688 -15.260  -7.607 -0.23 -0.00    +0.000 C 
DOCKED: ENDBRANCH  15  22
DOCKED: ENDBRANCH  13  18
DOCKED: ENDBRANCH   1  13
DOCKED: TORSDOF 6
DOCKED: TER
DOCKED: ENDMDL
________________________________________________________________________________


	BEGINNING GENETIC ALGORITHM DOCKING 89 of 100
Run: 89 Seed: 144158923 465452319 [ Run 89 of 100 GA/GALS ]
Beginning LAMARCKIAN GENETIC ALGORITHM (LGA), with a maximum of 2500000 energy evaluations.

Final-Value: -13.754


	FINAL GENETIC ALGORITHM DOCKED STATE
	_______________________________________________


Detailed state:  trans 25.848 -16.022 -2.786 quatxyzw -0.313822 -0.249880 -0.089153 0.911662 center -0.973 -0.390 0.234 ntor 6 171.9118 52.9639 112.1112 -61.6994 -147.1378 -22.3369
State:	 25.848 -16.022  -2.786  -0.764 -0.608 -0.217 48.528    171.91   52.96  112.11  -61.70 -147.14  -22.34

DOCKED: MODEL       89
DOCKED: USER    Run = 89
DOCKED: USER    DPF = ligand_dock.biased.dpf
DOCKED: USER  
DOCKED: USER    Estimated Free Energy of Binding    =  -11.18 kcal/mol  [=(1)+(2)+(3)-(4)]
DOCKED: USER    Estimated Inhibition Constant, Ki   =    6.36 nM (nanomolar)  [Temperature = 298.15 K]
DOCKED: USER    
DOCKED: USER    (1) Final Intermolecular Energy     =  -12.97 kcal/mol
DOCKED: USER        vdW + Hbond + desolv Energy     =  -12.97 kcal/mol
DOCKED: USER        Electrostatic Energy            =   +0.00 kcal/mol
DOCKED: USER    (2) Final Total Internal Energy     =   -0.78 kcal/mol
DOCKED: USER    (3) Torsional Free Energy           =   +1.79 kcal/mol
DOCKED: USER    (4) Unbound System's Energy  [=(2)] =   -0.78 kcal/mol
DOCKED: USER    
DOCKED: USER    
DOCKED: USER    NEWDPF move ligand.pdbqt
DOCKED: USER    NEWDPF about -0.973000 -0.390000 0.234000
DOCKED: USER    NEWDPF tran0 25.847590 -16.021949 -2.786484
DOCKED: USER    NEWDPF quaternion0 -0.313822 -0.249880 -0.089153 0.911662
DOCKED: USER    NEWDPF axisangle0 -0.763667 -0.608067 -0.216949 48.527911
DOCKED: USER    NEWDPF quat0 -0.763667 -0.608067 -0.216949 48.527911
DOCKED: USER    NEWDPF dihe0 171.91 52.96 112.11 -61.70 -147.14 -22.34 
DOCKED: USER  keepresnum = 1 
DOCKED: USER  
DOCKED: REMARK  Name = 
DOCKED: REMARK  10 active torsions:
DOCKED: REMARK  status: ('A' for Active; 'I' for Inactive)
DOCKED: REMARK    1  A    between atoms: C_1  and  N_2
DOCKED: REMARK    2  A    between atoms: N_2  and  C_3
DOCKED: REMARK    3  A    between atoms: N_2  and  C_22
DOCKED: REMARK    4  A    between atoms: C_6  and  C_9
DOCKED: REMARK    5  A    between atoms: C_9  and  C_10
DOCKED: REMARK    6  A    between atoms: C_10  and  C_11
DOCKED: REMARK    7  A    between atoms: C_10  and  C_20
DOCKED: REMARK    8  A    between atoms: C_12  and  C_13
DOCKED: REMARK    9  A    between atoms: C_12  and  C_19
DOCKED: REMARK   10  A    between atoms: C_14  and  C_15
DOCKED: REMARK                            x       y       z     vdW  Elec       q    Type
DOCKED: REMARK                         _______ _______ _______ _____ _____    ______ ____
DOCKED: USER                              x       y       z     vdW  Elec       q    Type
DOCKED: USER                           _______ _______ _______ _____ _____    ______ ____
DOCKED: ROOT
DOCKED: ATOM      1  C   UNL     1      26.437 -15.755  -1.324 -0.43 -0.00    +0.000 C 
DOCKED: ATOM      2  C   UNL     1      26.972 -15.594   0.102 -0.31 -0.00    +0.000 C 
DOCKED: ENDROOT
DOCKED: BRANCH   1   3
DOCKED: ATOM      3  C   UNL     1      25.174 -16.593  -1.314 -0.61 -0.00    +0.000 C 
DOCKED: ATOM      4  C   UNL     1      25.074 -17.833  -0.787 -0.71 -0.00    +0.000 C 
DOCKED: ATOM      5  C   UNL     1      26.250 -18.515  -0.124 -0.61 -0.00    +0.000 C 
DOCKED: BRANCH   4   6
DOCKED: ATOM      6  C   UNL     1      23.749 -18.502  -0.834 -0.81 -0.00    +0.000 C 
DOCKED: ATOM      7  C   UNL     1      22.598 -17.862  -0.586 -0.81 -0.00    +0.000 C 
DOCKED: BRANCH   7   8
DOCKED: ATOM      8  C   UNL     1      21.273 -18.516  -0.633 -0.82 -0.00    +0.000 C 
DOCKED: ATOM      9  N   UNL     1      21.073 -19.873  -0.220 -0.68 -0.00    +0.000 N 
DOCKED: ATOM     10  O   UNL     1      19.826 -20.395  -0.184 -1.27 -0.00    +0.000 OA
DOCKED: ATOM     11  O   UNL     1      20.294 -17.859  -1.077 -2.18 -0.00    +0.000 OA
DOCKED: ATOM     12  H   UNL     1      21.846 -20.428   0.038 -0.57 -0.00    +0.000 HD
DOCKED: ENDBRANCH   7   8
DOCKED: ENDBRANCH   4   6
DOCKED: ENDBRANCH   1   3
DOCKED: BRANCH   1  13
DOCKED: ATOM     13  C   UNL     1      27.496 -16.391  -2.201 -0.35 -0.00    +0.000 C 
DOCKED: ATOM     14  O   UNL     1      28.028 -17.476  -1.833 -0.34 -0.00    +0.000 OA
DOCKED: BRANCH  13  18
DOCKED: ATOM     15  C   UNL     1      28.889 -14.564  -5.864 -0.31 -0.00    +0.000 A 
DOCKED: ATOM     16  C   UNL     1      29.765 -15.283  -5.026 -0.20 -0.00    +0.000 A 
DOCKED: ATOM     17  C   UNL     1      29.307 -15.869  -3.844 -0.21 -0.00    +0.000 A 
DOCKED: ATOM     18  C   UNL     1      27.959 -15.763  -3.467 -0.25 -0.00    +0.000 A 
DOCKED: ATOM     19  C   UNL     1      27.082 -15.038  -4.291 -0.41 -0.00    +0.000 A 
DOCKED: ATOM     20  C   UNL     1      27.540 -14.450  -5.474 -0.33 -0.00    +0.000 A 
DOCKED: BRANCH  15  22
DOCKED: ATOM     21  C   UNL     1      30.687 -14.294  -7.633 -0.20 -0.00    +0.000 C 
DOCKED: ATOM     22  N   UNL     1      29.365 -13.955  -7.093 -0.30 -0.00    +0.000 N 
DOCKED: ATOM     23  C   UNL     1      28.530 -12.989  -7.819 -0.26 -0.00    +0.000 C 
DOCKED: ENDBRANCH  15  22
DOCKED: ENDBRANCH  13  18
DOCKED: ENDBRANCH   1  13
DOCKED: TORSDOF 6
DOCKED: TER
DOCKED: ENDMDL
________________________________________________________________________________


	BEGINNING GENETIC ALGORITHM DOCKING 90 of 100
Run: 90 Seed: 163146317 1069187797 [ Run 90 of 100 GA/GALS ]
Beginning LAMARCKIAN GENETIC ALGORITHM (LGA), with a maximum of 2500000 energy evaluations.

Final-Value: -13.366


	FINAL GENETIC ALGORITHM DOCKED STATE
	_______________________________________________


Detailed state:  trans 26.315 -16.286 1.071 quatxyzw 0.879729 0.410223 0.171698 0.168265 center -0.973 -0.390 0.234 ntor 6 -33.2862 63.1146 -154.0205 33.4137 -139.0367 -6.8296
State:	 26.315 -16.286   1.071   0.892  0.416  0.174 160.626    -33.29   63.11 -154.02   33.41 -139.04   -6.83

DOCKED: MODEL       90
DOCKED: USER    Run = 90
DOCKED: USER    DPF = ligand_dock.biased.dpf
DOCKED: USER  
DOCKED: USER    Estimated Free Energy of Binding    =  -10.80 kcal/mol  [=(1)+(2)+(3)-(4)]
DOCKED: USER    Estimated Inhibition Constant, Ki   =   12.07 nM (nanomolar)  [Temperature = 298.15 K]
DOCKED: USER    
DOCKED: USER    (1) Final Intermolecular Energy     =  -12.59 kcal/mol
DOCKED: USER        vdW + Hbond + desolv Energy     =  -12.59 kcal/mol
DOCKED: USER        Electrostatic Energy            =   +0.00 kcal/mol
DOCKED: USER    (2) Final Total Internal Energy     =   -0.77 kcal/mol
DOCKED: USER    (3) Torsional Free Energy           =   +1.79 kcal/mol
DOCKED: USER    (4) Unbound System's Energy  [=(2)] =   -0.77 kcal/mol
DOCKED: USER    
DOCKED: USER    
DOCKED: USER    NEWDPF move ligand.pdbqt
DOCKED: USER    NEWDPF about -0.973000 -0.390000 0.234000
DOCKED: USER    NEWDPF tran0 26.314695 -16.286456 1.071021
DOCKED: USER    NEWDPF quaternion0 0.879729 0.410223 0.171698 0.168265
DOCKED: USER    NEWDPF axisangle0 0.892454 0.416157 0.174182 160.626027
DOCKED: USER    NEWDPF quat0 0.892454 0.416157 0.174182 160.626027
DOCKED: USER    NEWDPF dihe0 -33.29 63.11 -154.02 33.41 -139.04 -6.83 
DOCKED: USER  keepresnum = 1 
DOCKED: USER  
DOCKED: REMARK  Name = 
DOCKED: REMARK  10 active torsions:
DOCKED: REMARK  status: ('A' for Active; 'I' for Inactive)
DOCKED: REMARK    1  A    between atoms: C_1  and  N_2
DOCKED: REMARK    2  A    between atoms: N_2  and  C_3
DOCKED: REMARK    3  A    between atoms: N_2  and  C_22
DOCKED: REMARK    4  A    between atoms: C_6  and  C_9
DOCKED: REMARK    5  A    between atoms: C_9  and  C_10
DOCKED: REMARK    6  A    between atoms: C_10  and  C_11
DOCKED: REMARK    7  A    between atoms: C_10  and  C_20
DOCKED: REMARK    8  A    between atoms: C_12  and  C_13
DOCKED: REMARK    9  A    between atoms: C_12  and  C_19
DOCKED: REMARK   10  A    between atoms: C_14  and  C_15
DOCKED: REMARK                            x       y       z     vdW  Elec       q    Type
DOCKED: REMARK                         _______ _______ _______ _____ _____    ______ ____
DOCKED: USER                              x       y       z     vdW  Elec       q    Type
DOCKED: USER                           _______ _______ _______ _____ _____    ______ ____
DOCKED: ROOT
DOCKED: ATOM      1  C   UNL     1      27.372 -16.451  -0.117 -0.40 -0.00    +0.000 C 
DOCKED: ATOM      2  C   UNL     1      28.308 -16.594  -1.321 -0.34 -0.00    +0.000 C 
DOCKED: ENDROOT
DOCKED: BRANCH   1   3
DOCKED: ATOM      3  C   UNL     1      26.015 -17.046  -0.439 -0.56 -0.00    +0.000 C 
DOCKED: ATOM      4  C   UNL     1      25.318 -16.808  -1.571 -0.61 -0.00    +0.000 C 
DOCKED: ATOM      5  C   UNL     1      25.850 -15.906  -2.663 -0.53 -0.00    +0.000 C 
DOCKED: BRANCH   4   6
DOCKED: ATOM      6  C   UNL     1      24.014 -17.500  -1.740 -0.62 -0.00    +0.000 C 
DOCKED: ATOM      7  C   UNL     1      23.042 -17.462  -0.819 -0.75 -0.00    +0.000 C 
DOCKED: BRANCH   7   8
DOCKED: ATOM      8  C   UNL     1      21.740 -18.144  -0.978 -0.73 -0.00    +0.000 C 
DOCKED: ATOM      9  N   UNL     1      21.634 -19.493  -1.449 -0.65 -0.00    +0.000 N 
DOCKED: ATOM     10  O   UNL     1      20.429 -20.108  -1.479 -2.08 -0.00    +0.000 OA
DOCKED: ATOM     11  O   UNL     1      20.689 -17.502  -0.712 -2.09 +0.00    +0.000 OA
DOCKED: ATOM     12  H   UNL     1      22.439 -19.974  -1.751 -0.40 -0.00    +0.000 HD
DOCKED: ENDBRANCH   7   8
DOCKED: ENDBRANCH   4   6
DOCKED: ENDBRANCH   1   3
DOCKED: BRANCH   1  13
DOCKED: ATOM     13  C   UNL     1      27.241 -14.989   0.261 -0.31 -0.00    +0.000 C 
DOCKED: ATOM     14  O   UNL     1      26.634 -14.205  -0.521 -0.32 -0.00    +0.000 OA
DOCKED: BRANCH  13  18
DOCKED: ATOM     15  C   UNL     1      28.928 -13.353   3.890 -0.27 -0.00    +0.000 A 
DOCKED: ATOM     16  C   UNL     1      27.544 -13.294   3.635 -0.37 -0.00    +0.000 A 
DOCKED: ATOM     17  C   UNL     1      27.007 -13.824   2.460 -0.16 -0.00    +0.000 A 
DOCKED: ATOM     18  C   UNL     1      27.836 -14.437   1.507 -0.25 -0.00    +0.000 A 
DOCKED: ATOM     19  C   UNL     1      29.218 -14.489   1.748 -0.12 -0.00    +0.000 A 
DOCKED: ATOM     20  C   UNL     1      29.757 -13.958   2.923 -0.20 -0.00    +0.000 A 
DOCKED: BRANCH  15  22
DOCKED: ATOM     21  C   UNL     1      30.869 -13.106   5.504 -0.23 -0.00    +0.000 C 
DOCKED: ATOM     22  N   UNL     1      29.487 -12.803   5.112 -0.24 -0.00    +0.000 N 
DOCKED: ATOM     23  C   UNL     1      28.680 -11.932   5.977 -0.37 +0.00    +0.000 C 
DOCKED: ENDBRANCH  15  22
DOCKED: ENDBRANCH  13  18
DOCKED: ENDBRANCH   1  13
DOCKED: TORSDOF 6
DOCKED: TER
DOCKED: ENDMDL
________________________________________________________________________________


	BEGINNING GENETIC ALGORITHM DOCKING 91 of 100
Run: 91 Seed: 1952928109 1055857910 [ Run 91 of 100 GA/GALS ]
Beginning LAMARCKIAN GENETIC ALGORITHM (LGA), with a maximum of 2500000 energy evaluations.

Final-Value: -13.994


	FINAL GENETIC ALGORITHM DOCKED STATE
	_______________________________________________


Detailed state:  trans 26.343 -15.939 -1.081 quatxyzw 0.843704 0.314522 -0.153021 0.407215 center -0.973 -0.390 0.234 ntor 6 179.0369 -22.4674 174.2142 -153.7493 49.7515 -67.0175
State:	 26.343 -15.939  -1.081   0.924  0.344 -0.168 131.940    179.04  -22.47  174.21 -153.75   49.75  -67.02

DOCKED: MODEL       91
DOCKED: USER    Run = 91
DOCKED: USER    DPF = ligand_dock.biased.dpf
DOCKED: USER  
DOCKED: USER    Estimated Free Energy of Binding    =  -10.83 kcal/mol  [=(1)+(2)+(3)-(4)]
DOCKED: USER    Estimated Inhibition Constant, Ki   =   11.45 nM (nanomolar)  [Temperature = 298.15 K]
DOCKED: USER    
DOCKED: USER    (1) Final Intermolecular Energy     =  -12.62 kcal/mol
DOCKED: USER        vdW + Hbond + desolv Energy     =  -12.62 kcal/mol
DOCKED: USER        Electrostatic Energy            =   +0.00 kcal/mol
DOCKED: USER    (2) Final Total Internal Energy     =   -1.37 kcal/mol
DOCKED: USER    (3) Torsional Free Energy           =   +1.79 kcal/mol
DOCKED: USER    (4) Unbound System's Energy  [=(2)] =   -1.37 kcal/mol
DOCKED: USER    
DOCKED: USER    
DOCKED: USER    NEWDPF move ligand.pdbqt
DOCKED: USER    NEWDPF about -0.973000 -0.390000 0.234000
DOCKED: USER    NEWDPF tran0 26.343182 -15.938523 -1.080649
DOCKED: USER    NEWDPF quaternion0 0.843704 0.314522 -0.153021 0.407215
DOCKED: USER    NEWDPF axisangle0 0.923764 0.344368 -0.167542 131.940003
DOCKED: USER    NEWDPF quat0 0.923764 0.344368 -0.167542 131.940003
DOCKED: USER    NEWDPF dihe0 179.04 -22.47 174.21 -153.75 49.75 -67.02 
DOCKED: USER  keepresnum = 1 
DOCKED: USER  
DOCKED: REMARK  Name = 
DOCKED: REMARK  10 active torsions:
DOCKED: REMARK  status: ('A' for Active; 'I' for Inactive)
DOCKED: REMARK    1  A    between atoms: C_1  and  N_2
DOCKED: REMARK    2  A    between atoms: N_2  and  C_3
DOCKED: REMARK    3  A    between atoms: N_2  and  C_22
DOCKED: REMARK    4  A    between atoms: C_6  and  C_9
DOCKED: REMARK    5  A    between atoms: C_9  and  C_10
DOCKED: REMARK    6  A    between atoms: C_10  and  C_11
DOCKED: REMARK    7  A    between atoms: C_10  and  C_20
DOCKED: REMARK    8  A    between atoms: C_12  and  C_13
DOCKED: REMARK    9  A    between atoms: C_12  and  C_19
DOCKED: REMARK   10  A    between atoms: C_14  and  C_15
DOCKED: REMARK                            x       y       z     vdW  Elec       q    Type
DOCKED: REMARK                         _______ _______ _______ _____ _____    ______ ____
DOCKED: USER                              x       y       z     vdW  Elec       q    Type
DOCKED: USER                           _______ _______ _______ _____ _____    ______ ____
DOCKED: ROOT
DOCKED: ATOM      1  C   UNL     1      26.206 -15.775  -2.665 -0.49 -0.00    +0.000 C 
DOCKED: ATOM      2  C   UNL     1      25.974 -15.603  -4.170 -0.58 -0.00    +0.000 C 
DOCKED: ENDROOT
DOCKED: BRANCH   1   3
DOCKED: ATOM      3  C   UNL     1      25.020 -16.476  -2.033 -0.59 -0.00    +0.000 C 
DOCKED: ATOM      4  C   UNL     1      25.103 -17.402  -1.053 -0.68 -0.00    +0.000 C 
DOCKED: ATOM      5  C   UNL     1      26.431 -17.828  -0.468 -0.61 -0.00    +0.000 C 
DOCKED: BRANCH   4   6
DOCKED: ATOM      6  C   UNL     1      23.835 -17.967  -0.524 -0.78 -0.00    +0.000 C 
DOCKED: ATOM      7  C   UNL     1      22.680 -17.931  -1.203 -0.65 -0.00    +0.000 C 
DOCKED: BRANCH   7   8
DOCKED: ATOM      8  C   UNL     1      21.413 -18.492  -0.688 -0.85 -0.00    +0.000 C 
DOCKED: ATOM      9  N   UNL     1      21.358 -19.732   0.027 -0.63 -0.00    +0.000 N 
DOCKED: ATOM     10  O   UNL     1      20.191 -20.153   0.568 -0.84 -0.00    +0.000 OA
DOCKED: ATOM     11  O   UNL     1      20.344 -17.864  -0.911 -2.21 -0.00    +0.000 OA
DOCKED: ATOM     12  H   UNL     1      22.171 -20.280   0.125 -0.56 -0.00    +0.000 HD
DOCKED: ENDBRANCH   7   8
DOCKED: ENDBRANCH   4   6
DOCKED: ENDBRANCH   1   3
DOCKED: BRANCH   1  13
DOCKED: ATOM     13  C   UNL     1      26.434 -14.421  -2.023 -0.33 -0.00    +0.000 C 
DOCKED: ATOM     14  O   UNL     1      26.250 -13.377  -2.709 -0.27 -0.00    +0.000 OA
DOCKED: BRANCH  13  18
DOCKED: ATOM     15  C   UNL     1      27.821 -14.055   2.056 -0.28 -0.00    +0.000 A 
DOCKED: ATOM     16  C   UNL     1      28.503 -14.858   1.121 -0.13 -0.00    +0.000 A 
DOCKED: ATOM     17  C   UNL     1      28.048 -14.972  -0.194 -0.22 -0.00    +0.000 A 
DOCKED: ATOM     18  C   UNL     1      26.902 -14.280  -0.619 -0.25 -0.00    +0.000 A 
DOCKED: ATOM     19  C   UNL     1      26.211 -13.486   0.311 -0.26 -0.00    +0.000 A 
DOCKED: ATOM     20  C   UNL     1      26.664 -13.373   1.628 -0.25 -0.00    +0.000 A 
DOCKED: BRANCH  15  22
DOCKED: ATOM     21  C   UNL     1      29.681 -14.275   3.767 -0.33 -0.00    +0.000 C 
DOCKED: ATOM     22  N   UNL     1      28.294 -13.936   3.423 -0.36 -0.00    +0.000 N 
DOCKED: ATOM     23  C   UNL     1      27.394 -13.473   4.487 -0.49 -0.00    +0.000 C 
DOCKED: ENDBRANCH  15  22
DOCKED: ENDBRANCH  13  18
DOCKED: ENDBRANCH   1  13
DOCKED: TORSDOF 6
DOCKED: TER
DOCKED: ENDMDL
________________________________________________________________________________


	BEGINNING GENETIC ALGORITHM DOCKING 92 of 100
Run: 92 Seed: 1034015055 759589865 [ Run 92 of 100 GA/GALS ]
Beginning LAMARCKIAN GENETIC ALGORITHM (LGA), with a maximum of 2500000 energy evaluations.

Final-Value: -13.629


	FINAL GENETIC ALGORITHM DOCKED STATE
	_______________________________________________


Detailed state:  trans 24.986 -14.855 -1.818 quatxyzw -0.773394 -0.522468 0.041667 0.356585 center -0.973 -0.390 0.234 ntor 6 -121.9881 -2.7640 150.0156 54.7988 -38.8635 68.6634
State:	 24.986 -14.855  -1.818  -0.828 -0.559  0.045 138.219   -121.99   -2.76  150.02   54.80  -38.86   68.66

DOCKED: MODEL       92
DOCKED: USER    Run = 92
DOCKED: USER    DPF = ligand_dock.biased.dpf
DOCKED: USER  
DOCKED: USER    Estimated Free Energy of Binding    =  -10.96 kcal/mol  [=(1)+(2)+(3)-(4)]
DOCKED: USER    Estimated Inhibition Constant, Ki   =    9.23 nM (nanomolar)  [Temperature = 298.15 K]
DOCKED: USER    
DOCKED: USER    (1) Final Intermolecular Energy     =  -12.75 kcal/mol
DOCKED: USER        vdW + Hbond + desolv Energy     =  -12.75 kcal/mol
DOCKED: USER        Electrostatic Energy            =   +0.00 kcal/mol
DOCKED: USER    (2) Final Total Internal Energy     =   -0.88 kcal/mol
DOCKED: USER    (3) Torsional Free Energy           =   +1.79 kcal/mol
DOCKED: USER    (4) Unbound System's Energy  [=(2)] =   -0.88 kcal/mol
DOCKED: USER    
DOCKED: USER    
DOCKED: USER    NEWDPF move ligand.pdbqt
DOCKED: USER    NEWDPF about -0.973000 -0.390000 0.234000
DOCKED: USER    NEWDPF tran0 24.986438 -14.854701 -1.818340
DOCKED: USER    NEWDPF quaternion0 -0.773394 -0.522468 0.041667 0.356585
DOCKED: USER    NEWDPF axisangle0 -0.827812 -0.559231 0.044599 138.218753
DOCKED: USER    NEWDPF quat0 -0.827812 -0.559231 0.044599 138.218753
DOCKED: USER    NEWDPF dihe0 -121.99 -2.76 150.02 54.80 -38.86 68.66 
DOCKED: USER  keepresnum = 1 
DOCKED: USER  
DOCKED: REMARK  Name = 
DOCKED: REMARK  10 active torsions:
DOCKED: REMARK  status: ('A' for Active; 'I' for Inactive)
DOCKED: REMARK    1  A    between atoms: C_1  and  N_2
DOCKED: REMARK    2  A    between atoms: N_2  and  C_3
DOCKED: REMARK    3  A    between atoms: N_2  and  C_22
DOCKED: REMARK    4  A    between atoms: C_6  and  C_9
DOCKED: REMARK    5  A    between atoms: C_9  and  C_10
DOCKED: REMARK    6  A    between atoms: C_10  and  C_11
DOCKED: REMARK    7  A    between atoms: C_10  and  C_20
DOCKED: REMARK    8  A    between atoms: C_12  and  C_13
DOCKED: REMARK    9  A    between atoms: C_12  and  C_19
DOCKED: REMARK   10  A    between atoms: C_14  and  C_15
DOCKED: REMARK                            x       y       z     vdW  Elec       q    Type
DOCKED: REMARK                         _______ _______ _______ _____ _____    ______ ____
DOCKED: USER                              x       y       z     vdW  Elec       q    Type
DOCKED: USER                           _______ _______ _______ _____ _____    ______ ____
DOCKED: ROOT
DOCKED: ATOM      1  C   UNL     1      26.274 -15.756  -2.113 -0.46 -0.00    +0.000 C 
DOCKED: ATOM      2  C   UNL     1      27.444 -16.691  -2.436 -0.20 -0.00    +0.000 C 
DOCKED: ENDROOT
DOCKED: BRANCH   1   3
DOCKED: ATOM      3  C   UNL     1      25.060 -16.566  -1.702 -0.61 -0.00    +0.000 C 
DOCKED: ATOM      4  C   UNL     1      25.051 -17.508  -0.734 -0.69 -0.00    +0.000 C 
DOCKED: ATOM      5  C   UNL     1      26.291 -17.842   0.065 -0.60 -0.00    +0.000 C 
DOCKED: BRANCH   4   6
DOCKED: ATOM      6  C   UNL     1      23.763 -18.185  -0.437 -0.79 -0.00    +0.000 C 
DOCKED: ATOM      7  C   UNL     1      22.610 -17.858  -1.037 -0.74 -0.00    +0.000 C 
DOCKED: BRANCH   7   8
DOCKED: ATOM      8  C   UNL     1      21.323 -18.527  -0.752 -0.84 -0.00    +0.000 C 
DOCKED: ATOM      9  N   UNL     1      21.250 -19.828  -0.156 -0.65 -0.00    +0.000 N 
DOCKED: ATOM     10  O   UNL     1      20.050 -20.354   0.180 -1.06 -0.00    +0.000 OA
DOCKED: ATOM     11  O   UNL     1      20.257 -17.937  -1.071 -2.16 -0.00    +0.000 OA
DOCKED: ATOM     12  H   UNL     1      22.076 -20.340   0.010 -0.54 -0.00    +0.000 HD
DOCKED: ENDBRANCH   7   8
DOCKED: ENDBRANCH   4   6
DOCKED: ENDBRANCH   1   3
DOCKED: BRANCH   1  13
DOCKED: ATOM     13  C   UNL     1      25.960 -14.892  -3.318 -0.51 -0.00    +0.000 C 
DOCKED: ATOM     14  O   UNL     1      24.757 -14.593  -3.562 -0.87 -0.00    +0.000 OA
DOCKED: BRANCH  13  18
DOCKED: ATOM     15  C   UNL     1      29.022 -13.446  -6.005 -0.20 -0.00    +0.000 A 
DOCKED: ATOM     16  C   UNL     1      28.503 -12.630  -4.980 -0.13 -0.00    +0.000 A 
DOCKED: ATOM     17  C   UNL     1      27.513 -13.104  -4.118 -0.20 -0.00    +0.000 A 
DOCKED: ATOM     18  C   UNL     1      27.017 -14.412  -4.245 -0.36 -0.00    +0.000 A 
DOCKED: ATOM     19  C   UNL     1      27.522 -15.227  -5.271 -0.39 -0.00    +0.000 A 
DOCKED: ATOM     20  C   UNL     1      28.512 -14.753  -6.137 -0.36 -0.00    +0.000 A 
DOCKED: BRANCH  15  22
DOCKED: ATOM     21  C   UNL     1      31.455 -12.896  -6.470 -0.06 -0.00    +0.000 C 
DOCKED: ATOM     22  N   UNL     1      30.052 -12.954  -6.902 -0.14 -0.00    +0.000 N 
DOCKED: ATOM     23  C   UNL     1      29.710 -12.505  -8.258 -0.19 -0.00    +0.000 C 
DOCKED: ENDBRANCH  15  22
DOCKED: ENDBRANCH  13  18
DOCKED: ENDBRANCH   1  13
DOCKED: TORSDOF 6
DOCKED: TER
DOCKED: ENDMDL
________________________________________________________________________________


	BEGINNING GENETIC ALGORITHM DOCKING 93 of 100
Run: 93 Seed: 1189303393 1503042969 [ Run 93 of 100 GA/GALS ]
Beginning LAMARCKIAN GENETIC ALGORITHM (LGA), with a maximum of 2500000 energy evaluations.

Final-Value: -13.064


	FINAL GENETIC ALGORITHM DOCKED STATE
	_______________________________________________


Detailed state:  trans 25.554 -15.248 0.045 quatxyzw 0.889069 0.456379 -0.009037 -0.034550 center -0.973 -0.390 0.234 ntor 6 -164.0277 -15.4497 -180.0000 100.2783 -17.4731 -23.0231
State:	 25.554 -15.248   0.045   0.890  0.457 -0.009 -176.040   -164.03  -15.45 -180.00  100.28  -17.47  -23.02

DOCKED: MODEL       93
DOCKED: USER    Run = 93
DOCKED: USER    DPF = ligand_dock.biased.dpf
DOCKED: USER  
DOCKED: USER    Estimated Free Energy of Binding    =  -10.20 kcal/mol  [=(1)+(2)+(3)-(4)]
DOCKED: USER    Estimated Inhibition Constant, Ki   =   33.18 nM (nanomolar)  [Temperature = 298.15 K]
DOCKED: USER    
DOCKED: USER    (1) Final Intermolecular Energy     =  -11.99 kcal/mol
DOCKED: USER        vdW + Hbond + desolv Energy     =  -11.99 kcal/mol
DOCKED: USER        Electrostatic Energy            =   +0.00 kcal/mol
DOCKED: USER    (2) Final Total Internal Energy     =   -1.07 kcal/mol
DOCKED: USER    (3) Torsional Free Energy           =   +1.79 kcal/mol
DOCKED: USER    (4) Unbound System's Energy  [=(2)] =   -1.07 kcal/mol
DOCKED: USER    
DOCKED: USER    
DOCKED: USER    NEWDPF move ligand.pdbqt
DOCKED: USER    NEWDPF about -0.973000 -0.390000 0.234000
DOCKED: USER    NEWDPF tran0 25.553941 -15.248363 0.045089
DOCKED: USER    NEWDPF quaternion0 0.889069 0.456379 -0.009037 -0.034550
DOCKED: USER    NEWDPF axisangle0 0.889600 0.456651 -0.009042 -176.040105
DOCKED: USER    NEWDPF quat0 0.889600 0.456651 -0.009042 -176.040105
DOCKED: USER    NEWDPF dihe0 -164.03 -15.45 -180.00 100.28 -17.47 -23.02 
DOCKED: USER  keepresnum = 1 
DOCKED: USER  
DOCKED: REMARK  Name = 
DOCKED: REMARK  10 active torsions:
DOCKED: REMARK  status: ('A' for Active; 'I' for Inactive)
DOCKED: REMARK    1  A    between atoms: C_1  and  N_2
DOCKED: REMARK    2  A    between atoms: N_2  and  C_3
DOCKED: REMARK    3  A    between atoms: N_2  and  C_22
DOCKED: REMARK    4  A    between atoms: C_6  and  C_9
DOCKED: REMARK    5  A    between atoms: C_9  and  C_10
DOCKED: REMARK    6  A    between atoms: C_10  and  C_11
DOCKED: REMARK    7  A    between atoms: C_10  and  C_20
DOCKED: REMARK    8  A    between atoms: C_12  and  C_13
DOCKED: REMARK    9  A    between atoms: C_12  and  C_19
DOCKED: REMARK   10  A    between atoms: C_14  and  C_15
DOCKED: REMARK                            x       y       z     vdW  Elec       q    Type
DOCKED: REMARK                         _______ _______ _______ _____ _____    ______ ____
DOCKED: USER                              x       y       z     vdW  Elec       q    Type
DOCKED: USER                           _______ _______ _______ _____ _____    ______ ____
DOCKED: ROOT
DOCKED: ATOM      1  C   UNL     1      26.476 -15.967  -1.045 -0.44 -0.00    +0.000 C 
DOCKED: ATOM      2  C   UNL     1      27.275 -16.679  -2.142 -0.34 -0.00    +0.000 C 
DOCKED: ENDROOT
DOCKED: BRANCH   1   3
DOCKED: ATOM      3  C   UNL     1      25.156 -16.678  -0.819 -0.57 -0.00    +0.000 C 
DOCKED: ATOM      4  C   UNL     1      25.016 -17.859  -0.180 -0.66 -0.00    +0.000 C 
DOCKED: ATOM      5  C   UNL     1      26.201 -18.601   0.399 -0.50 -0.00    +0.000 C 
DOCKED: BRANCH   4   6
DOCKED: ATOM      6  C   UNL     1      23.642 -18.400  -0.017 -0.70 -0.00    +0.000 C 
DOCKED: ATOM      7  C   UNL     1      22.637 -18.108  -0.855 -0.81 -0.00    +0.000 C 
DOCKED: BRANCH   7   8
DOCKED: ATOM      8  C   UNL     1      21.267 -18.642  -0.704 -0.86 -0.00    +0.000 C 
DOCKED: ATOM      9  N   UNL     1      21.007 -19.947  -0.173 -0.68 -0.00    +0.000 N 
DOCKED: ATOM     10  O   UNL     1      19.734 -20.350   0.041 -1.17 -0.00    +0.000 OA
DOCKED: ATOM     11  O   UNL     1      20.300 -17.928  -1.082 -2.16 -0.00    +0.000 OA
DOCKED: ATOM     12  H   UNL     1      21.756 -20.551   0.036 -0.57 -0.00    +0.000 HD
DOCKED: ENDBRANCH   7   8
DOCKED: ENDBRANCH   4   6
DOCKED: ENDBRANCH   1   3
DOCKED: BRANCH   1  13
DOCKED: ATOM     13  C   UNL     1      26.247 -14.520  -1.434 -0.34 -0.00    +0.000 C 
DOCKED: ATOM     14  O   UNL     1      25.743 -14.260  -2.562 -0.40 -0.00    +0.000 OA
DOCKED: BRANCH  13  18
DOCKED: ATOM     15  C   UNL     1      27.314 -11.248   1.182 -0.20 +0.00    +0.000 A 
DOCKED: ATOM     16  C   UNL     1      26.497 -12.306   1.630 -0.31 +0.00    +0.000 A 
DOCKED: ATOM     17  C   UNL     1      26.156 -13.358   0.778 -0.26 -0.00    +0.000 A 
DOCKED: ATOM     18  C   UNL     1      26.628 -13.392  -0.545 -0.20 -0.00    +0.000 A 
DOCKED: ATOM     19  C   UNL     1      27.433 -12.335  -1.001 -0.12 -0.00    +0.000 A 
DOCKED: ATOM     20  C   UNL     1      27.773 -11.280  -0.150 -0.10 -0.00    +0.000 A 
DOCKED: BRANCH  15  22
DOCKED: ATOM     21  C   UNL     1      27.926 -10.398   3.493 -0.25 +0.00    +0.000 C 
DOCKED: ATOM     22  N   UNL     1      27.669 -10.153   2.068 -0.18 +0.00    +0.000 N 
DOCKED: ATOM     23  C   UNL     1      27.779  -8.782   1.554 -0.14 +0.00    +0.000 C 
DOCKED: ENDBRANCH  15  22
DOCKED: ENDBRANCH  13  18
DOCKED: ENDBRANCH   1  13
DOCKED: TORSDOF 6
DOCKED: TER
DOCKED: ENDMDL
________________________________________________________________________________


	BEGINNING GENETIC ALGORITHM DOCKING 94 of 100
Run: 94 Seed: 1265063859 1774739506 [ Run 94 of 100 GA/GALS ]
Beginning LAMARCKIAN GENETIC ALGORITHM (LGA), with a maximum of 2500000 energy evaluations.

Final-Value: -14.041


	FINAL GENETIC ALGORITHM DOCKED STATE
	_______________________________________________


Detailed state:  trans 25.698 -14.271 -3.182 quatxyzw 0.754737 0.405708 -0.058409 -0.512212 center -0.973 -0.390 0.234 ntor 6 46.6164 157.2193 -93.2452 100.9622 -37.9766 -57.9852
State:	 25.698 -14.271  -3.182   0.879  0.472 -0.068 -118.377     46.62  157.22  -93.25  100.96  -37.98  -57.99

DOCKED: MODEL       94
DOCKED: USER    Run = 94
DOCKED: USER    DPF = ligand_dock.biased.dpf
DOCKED: USER  
DOCKED: USER    Estimated Free Energy of Binding    =  -11.38 kcal/mol  [=(1)+(2)+(3)-(4)]
DOCKED: USER    Estimated Inhibition Constant, Ki   =    4.58 nM (nanomolar)  [Temperature = 298.15 K]
DOCKED: USER    
DOCKED: USER    (1) Final Intermolecular Energy     =  -13.17 kcal/mol
DOCKED: USER        vdW + Hbond + desolv Energy     =  -13.17 kcal/mol
DOCKED: USER        Electrostatic Energy            =   +0.00 kcal/mol
DOCKED: USER    (2) Final Total Internal Energy     =   -0.88 kcal/mol
DOCKED: USER    (3) Torsional Free Energy           =   +1.79 kcal/mol
DOCKED: USER    (4) Unbound System's Energy  [=(2)] =   -0.88 kcal/mol
DOCKED: USER    
DOCKED: USER    
DOCKED: USER    NEWDPF move ligand.pdbqt
DOCKED: USER    NEWDPF about -0.973000 -0.390000 0.234000
DOCKED: USER    NEWDPF tran0 25.697822 -14.270951 -3.181961
DOCKED: USER    NEWDPF quaternion0 0.754737 0.405708 -0.058409 -0.512212
DOCKED: USER    NEWDPF axisangle0 0.878767 0.472380 -0.068008 -118.377460
DOCKED: USER    NEWDPF quat0 0.878767 0.472380 -0.068008 -118.377460
DOCKED: USER    NEWDPF dihe0 46.62 157.22 -93.25 100.96 -37.98 -57.99 
DOCKED: USER  keepresnum = 1 
DOCKED: USER  
DOCKED: REMARK  Name = 
DOCKED: REMARK  10 active torsions:
DOCKED: REMARK  status: ('A' for Active; 'I' for Inactive)
DOCKED: REMARK    1  A    between atoms: C_1  and  N_2
DOCKED: REMARK    2  A    between atoms: N_2  and  C_3
DOCKED: REMARK    3  A    between atoms: N_2  and  C_22
DOCKED: REMARK    4  A    between atoms: C_6  and  C_9
DOCKED: REMARK    5  A    between atoms: C_9  and  C_10
DOCKED: REMARK    6  A    between atoms: C_10  and  C_11
DOCKED: REMARK    7  A    between atoms: C_10  and  C_20
DOCKED: REMARK    8  A    between atoms: C_12  and  C_13
DOCKED: REMARK    9  A    between atoms: C_12  and  C_19
DOCKED: REMARK   10  A    between atoms: C_14  and  C_15
DOCKED: REMARK                            x       y       z     vdW  Elec       q    Type
DOCKED: REMARK                         _______ _______ _______ _____ _____    ______ ____
DOCKED: USER                              x       y       z     vdW  Elec       q    Type
DOCKED: USER                           _______ _______ _______ _____ _____    ______ ____
DOCKED: ROOT
DOCKED: ATOM      1  C   UNL     1      26.825 -15.374  -2.920 -0.40 -0.00    +0.000 C 
DOCKED: ATOM      2  C   UNL     1      27.839 -16.502  -2.704 -0.19 -0.00    +0.000 C 
DOCKED: ENDROOT
DOCKED: BRANCH   1   3
DOCKED: ATOM      3  C   UNL     1      25.425 -15.868  -2.614 -0.54 -0.00    +0.000 C 
DOCKED: ATOM      4  C   UNL     1      25.050 -16.460  -1.459 -0.60 -0.00    +0.000 C 
DOCKED: ATOM      5  C   UNL     1      26.024 -16.680  -0.322 -0.45 -0.00    +0.000 C 
DOCKED: BRANCH   4   6
DOCKED: ATOM      6  C   UNL     1      23.626 -16.854  -1.313 -0.50 -0.00    +0.000 C 
DOCKED: ATOM      7  C   UNL     1      23.225 -18.131  -1.237 -0.77 -0.00    +0.000 C 
DOCKED: BRANCH   7   8
DOCKED: ATOM      8  C   UNL     1      21.812 -18.536  -1.088 -0.79 -0.00    +0.000 C 
DOCKED: ATOM      9  N   UNL     1      21.256 -19.654  -1.791 -0.56 -0.00    +0.000 N 
DOCKED: ATOM     10  O   UNL     1      19.985 -20.047  -1.544 -2.12 -0.00    +0.000 OA
DOCKED: ATOM     11  O   UNL     1      21.068 -17.854  -0.333 -1.88 +0.00    +0.000 OA
DOCKED: ATOM     12  H   UNL     1      21.800 -20.136  -2.456 -0.61 -0.00    +0.000 HD
DOCKED: ENDBRANCH   7   8
DOCKED: ENDBRANCH   4   6
DOCKED: ENDBRANCH   1   3
DOCKED: BRANCH   1  13
DOCKED: ATOM     13  C   UNL     1      26.916 -14.869  -4.346 -0.47 -0.00    +0.000 C 
DOCKED: ATOM     14  O   UNL     1      27.488 -15.584  -5.216 -0.94 +0.00    +0.000 OA
DOCKED: BRANCH  13  18
DOCKED: ATOM     15  C   UNL     1      25.322 -11.026  -5.521 -0.32 -0.00    +0.000 A 
DOCKED: ATOM     16  C   UNL     1      24.532 -11.965  -4.830 -0.21 -0.00    +0.000 A 
DOCKED: ATOM     17  C   UNL     1      25.054 -13.205  -4.456 -0.19 -0.00    +0.000 A 
DOCKED: ATOM     18  C   UNL     1      26.385 -13.541  -4.751 -0.26 -0.00    +0.000 A 
DOCKED: ATOM     19  C   UNL     1      27.176 -12.614  -5.450 -0.19 -0.00    +0.000 A 
DOCKED: ATOM     20  C   UNL     1      26.654 -11.373  -5.827 -0.19 -0.00    +0.000 A 
DOCKED: BRANCH  15  22
DOCKED: ATOM     21  C   UNL     1      24.584  -9.405  -7.327 -0.33 -0.00    +0.000 C 
DOCKED: ATOM     22  N   UNL     1      24.781  -9.736  -5.910 -0.31 -0.00    +0.000 N 
DOCKED: ATOM     23  C   UNL     1      24.419  -8.740  -4.893 -0.33 -0.00    +0.000 C 
DOCKED: ENDBRANCH  15  22
DOCKED: ENDBRANCH  13  18
DOCKED: ENDBRANCH   1  13
DOCKED: TORSDOF 6
DOCKED: TER
DOCKED: ENDMDL
________________________________________________________________________________


	BEGINNING GENETIC ALGORITHM DOCKING 95 of 100
Run: 95 Seed: 2029659998 2112663174 [ Run 95 of 100 GA/GALS ]
Beginning LAMARCKIAN GENETIC ALGORITHM (LGA), with a maximum of 2500000 energy evaluations.

Final-Value: -14.323


	FINAL GENETIC ALGORITHM DOCKED STATE
	_______________________________________________


Detailed state:  trans 26.362 -15.553 -0.139 quatxyzw 0.892091 0.348502 -0.034995 0.285472 center -0.973 -0.390 0.234 ntor 6 150.8826 -90.5259 -149.4571 174.8846 23.2692 -54.7028
State:	 26.362 -15.553  -0.139   0.931  0.364 -0.037 146.826    150.88  -90.53 -149.46  174.88   23.27  -54.70

DOCKED: MODEL       95
DOCKED: USER    Run = 95
DOCKED: USER    DPF = ligand_dock.biased.dpf
DOCKED: USER  
DOCKED: USER    Estimated Free Energy of Binding    =  -11.32 kcal/mol  [=(1)+(2)+(3)-(4)]
DOCKED: USER    Estimated Inhibition Constant, Ki   =    5.04 nM (nanomolar)  [Temperature = 298.15 K]
DOCKED: USER    
DOCKED: USER    (1) Final Intermolecular Energy     =  -13.11 kcal/mol
DOCKED: USER        vdW + Hbond + desolv Energy     =  -13.11 kcal/mol
DOCKED: USER        Electrostatic Energy            =   +0.00 kcal/mol
DOCKED: USER    (2) Final Total Internal Energy     =   -1.21 kcal/mol
DOCKED: USER    (3) Torsional Free Energy           =   +1.79 kcal/mol
DOCKED: USER    (4) Unbound System's Energy  [=(2)] =   -1.21 kcal/mol
DOCKED: USER    
DOCKED: USER    
DOCKED: USER    NEWDPF move ligand.pdbqt
DOCKED: USER    NEWDPF about -0.973000 -0.390000 0.234000
DOCKED: USER    NEWDPF tran0 26.362355 -15.553176 -0.139047
DOCKED: USER    NEWDPF quaternion0 0.892091 0.348502 -0.034995 0.285472
DOCKED: USER    NEWDPF axisangle0 0.930826 0.363634 -0.036515 146.825885
DOCKED: USER    NEWDPF quat0 0.930826 0.363634 -0.036515 146.825885
DOCKED: USER    NEWDPF dihe0 150.88 -90.53 -149.46 174.88 23.27 -54.70 
DOCKED: USER  keepresnum = 1 
DOCKED: USER  
DOCKED: REMARK  Name = 
DOCKED: REMARK  10 active torsions:
DOCKED: REMARK  status: ('A' for Active; 'I' for Inactive)
DOCKED: REMARK    1  A    between atoms: C_1  and  N_2
DOCKED: REMARK    2  A    between atoms: N_2  and  C_3
DOCKED: REMARK    3  A    between atoms: N_2  and  C_22
DOCKED: REMARK    4  A    between atoms: C_6  and  C_9
DOCKED: REMARK    5  A    between atoms: C_9  and  C_10
DOCKED: REMARK    6  A    between atoms: C_10  and  C_11
DOCKED: REMARK    7  A    between atoms: C_10  and  C_20
DOCKED: REMARK    8  A    between atoms: C_12  and  C_13
DOCKED: REMARK    9  A    between atoms: C_12  and  C_19
DOCKED: REMARK   10  A    between atoms: C_14  and  C_15
DOCKED: REMARK                            x       y       z     vdW  Elec       q    Type
DOCKED: REMARK                         _______ _______ _______ _____ _____    ______ ____
DOCKED: USER                              x       y       z     vdW  Elec       q    Type
DOCKED: USER                           _______ _______ _______ _____ _____    ______ ____
DOCKED: ROOT
DOCKED: ATOM      1  C   UNL     1      26.734 -15.649  -1.691 -0.39 -0.00    +0.000 C 
DOCKED: ATOM      2  C   UNL     1      26.991 -15.722  -3.200 -0.38 -0.00    +0.000 C 
DOCKED: ENDROOT
DOCKED: BRANCH   1   3
DOCKED: ATOM      3  C   UNL     1      25.372 -16.231  -1.367 -0.56 -0.00    +0.000 C 
DOCKED: ATOM      4  C   UNL     1      25.164 -17.345  -0.633 -0.65 -0.00    +0.000 C 
DOCKED: ATOM      5  C   UNL     1      26.308 -18.134  -0.036 -0.63 -0.00    +0.000 C 
DOCKED: BRANCH   4   6
DOCKED: ATOM      6  C   UNL     1      23.759 -17.759  -0.384 -0.74 -0.00    +0.000 C 
DOCKED: ATOM      7  C   UNL     1      22.884 -18.004  -1.368 -0.64 -0.00    +0.000 C 
DOCKED: BRANCH   7   8
DOCKED: ATOM      8  C   UNL     1      21.485 -18.419  -1.133 -0.64 -0.00    +0.000 C 
DOCKED: ATOM      9  N   UNL     1      21.024 -19.749  -1.397 -0.73 -0.00    +0.000 N 
DOCKED: ATOM     10  O   UNL     1      19.762 -20.109  -1.068 -1.85 -0.00    +0.000 OA
DOCKED: ATOM     11  O   UNL     1      20.668 -17.559  -0.707 -2.13 +0.00    +0.000 OA
DOCKED: ATOM     12  H   UNL     1      21.628 -20.404  -1.819 -0.43 -0.00    +0.000 HD
DOCKED: ENDBRANCH   7   8
DOCKED: ENDBRANCH   4   6
DOCKED: ENDBRANCH   1   3
DOCKED: BRANCH   1  13
DOCKED: ATOM     13  C   UNL     1      26.828 -14.210  -1.224 -0.28 -0.00    +0.000 C 
DOCKED: ATOM     14  O   UNL     1      26.690 -13.280  -2.067 -0.23 -0.00    +0.000 OA
DOCKED: BRANCH  13  18
DOCKED: ATOM     15  C   UNL     1      27.657 -13.225   2.903 -0.30 -0.00    +0.000 A 
DOCKED: ATOM     16  C   UNL     1      27.992 -14.486   2.370 -0.23 -0.00    +0.000 A 
DOCKED: ATOM     17  C   UNL     1      27.719 -14.796   1.037 -0.24 -0.00    +0.000 A 
DOCKED: ATOM     18  C   UNL     1      27.112 -13.854   0.191 -0.25 -0.00    +0.000 A 
DOCKED: ATOM     19  C   UNL     1      26.765 -12.599   0.718 -0.26 -0.00    +0.000 A 
DOCKED: ATOM     20  C   UNL     1      27.036 -12.288   2.054 -0.28 +0.00    +0.000 A 
DOCKED: BRANCH  15  22
DOCKED: ATOM     21  C   UNL     1      28.411 -13.937   5.218 -0.52 -0.00    +0.000 C 
DOCKED: ATOM     22  N   UNL     1      27.941 -12.901   4.290 -0.37 -0.00    +0.000 N 
DOCKED: ATOM     23  C   UNL     1      27.764 -11.531   4.788 -0.38 +0.00    +0.000 C 
DOCKED: ENDBRANCH  15  22
DOCKED: ENDBRANCH  13  18
DOCKED: ENDBRANCH   1  13
DOCKED: TORSDOF 6
DOCKED: TER
DOCKED: ENDMDL
________________________________________________________________________________


	BEGINNING GENETIC ALGORITHM DOCKING 96 of 100
Run: 96 Seed: 67125993 1018009572 [ Run 96 of 100 GA/GALS ]
Beginning LAMARCKIAN GENETIC ALGORITHM (LGA), with a maximum of 2500000 energy evaluations.

Final-Value: -14.198


	FINAL GENETIC ALGORITHM DOCKED STATE
	_______________________________________________


Detailed state:  trans 25.854 -15.450 0.559 quatxyzw 0.900929 0.370076 0.220378 0.052951 center -0.973 -0.390 0.234 ntor 6 -36.2030 94.9949 63.3628 176.5670 -20.7699 -20.6848
State:	 25.854 -15.450   0.559   0.902  0.371  0.221 173.929    -36.20   94.99   63.36  176.57  -20.77  -20.68

DOCKED: MODEL       96
DOCKED: USER    Run = 96
DOCKED: USER    DPF = ligand_dock.biased.dpf
DOCKED: USER  
DOCKED: USER    Estimated Free Energy of Binding    =  -11.41 kcal/mol  [=(1)+(2)+(3)-(4)]
DOCKED: USER    Estimated Inhibition Constant, Ki   =    4.36 nM (nanomolar)  [Temperature = 298.15 K]
DOCKED: USER    
DOCKED: USER    (1) Final Intermolecular Energy     =  -13.19 kcal/mol
DOCKED: USER        vdW + Hbond + desolv Energy     =  -13.19 kcal/mol
DOCKED: USER        Electrostatic Energy            =   +0.00 kcal/mol
DOCKED: USER    (2) Final Total Internal Energy     =   -1.00 kcal/mol
DOCKED: USER    (3) Torsional Free Energy           =   +1.79 kcal/mol
DOCKED: USER    (4) Unbound System's Energy  [=(2)] =   -1.00 kcal/mol
DOCKED: USER    
DOCKED: USER    
DOCKED: USER    NEWDPF move ligand.pdbqt
DOCKED: USER    NEWDPF about -0.973000 -0.390000 0.234000
DOCKED: USER    NEWDPF tran0 25.853686 -15.449650 0.559249
DOCKED: USER    NEWDPF quaternion0 0.900929 0.370076 0.220378 0.052951
DOCKED: USER    NEWDPF axisangle0 0.902195 0.370595 0.220688 173.929406
DOCKED: USER    NEWDPF quat0 0.902195 0.370595 0.220688 173.929406
DOCKED: USER    NEWDPF dihe0 -36.20 94.99 63.36 176.57 -20.77 -20.68 
DOCKED: USER  keepresnum = 1 
DOCKED: USER  
DOCKED: REMARK  Name = 
DOCKED: REMARK  10 active torsions:
DOCKED: REMARK  status: ('A' for Active; 'I' for Inactive)
DOCKED: REMARK    1  A    between atoms: C_1  and  N_2
DOCKED: REMARK    2  A    between atoms: N_2  and  C_3
DOCKED: REMARK    3  A    between atoms: N_2  and  C_22
DOCKED: REMARK    4  A    between atoms: C_6  and  C_9
DOCKED: REMARK    5  A    between atoms: C_9  and  C_10
DOCKED: REMARK    6  A    between atoms: C_10  and  C_11
DOCKED: REMARK    7  A    between atoms: C_10  and  C_20
DOCKED: REMARK    8  A    between atoms: C_12  and  C_13
DOCKED: REMARK    9  A    between atoms: C_12  and  C_19
DOCKED: REMARK   10  A    between atoms: C_14  and  C_15
DOCKED: REMARK                            x       y       z     vdW  Elec       q    Type
DOCKED: REMARK                         _______ _______ _______ _____ _____    ______ ____
DOCKED: USER                              x       y       z     vdW  Elec       q    Type
DOCKED: USER                           _______ _______ _______ _____ _____    ______ ____
DOCKED: ROOT
DOCKED: ATOM      1  C   UNL     1      27.036 -15.946  -0.396 -0.39 -0.00    +0.000 C 
DOCKED: ATOM      2  C   UNL     1      28.105 -16.408  -1.391 -0.34 -0.00    +0.000 C 
DOCKED: ENDROOT
DOCKED: BRANCH   1   3
DOCKED: ATOM      3  C   UNL     1      25.665 -16.404  -0.855 -0.52 -0.00    +0.000 C 
DOCKED: ATOM      4  C   UNL     1      25.234 -17.684  -0.840 -0.68 -0.00    +0.000 C 
DOCKED: ATOM      5  C   UNL     1      26.103 -18.814  -0.334 -0.45 -0.00    +0.000 C 
DOCKED: BRANCH   4   6
DOCKED: ATOM      6  C   UNL     1      23.846 -17.953  -1.297 -0.76 -0.00    +0.000 C 
DOCKED: ATOM      7  C   UNL     1      22.791 -17.948  -0.471 -0.81 -0.00    +0.000 C 
DOCKED: BRANCH   7   8
DOCKED: ATOM      8  C   UNL     1      21.406 -18.212  -0.914 -0.73 -0.00    +0.000 C 
DOCKED: ATOM      9  N   UNL     1      20.928 -19.534  -1.189 -0.80 -0.00    +0.000 N 
DOCKED: ATOM     10  O   UNL     1      19.624 -19.735  -1.492 -2.15 -0.00    +0.000 OA
DOCKED: ATOM     11  O   UNL     1      20.631 -17.232  -1.077 -1.90 -0.00    +0.000 OA
DOCKED: ATOM     12  H   UNL     1      21.549 -20.298  -1.158 -0.21 -0.00    +0.000 HD
DOCKED: ENDBRANCH   7   8
DOCKED: ENDBRANCH   4   6
DOCKED: ENDBRANCH   1   3
DOCKED: BRANCH   1  13
DOCKED: ATOM     13  C   UNL     1      27.079 -14.437  -0.260 -0.30 -0.00    +0.000 C 
DOCKED: ATOM     14  O   UNL     1      26.981 -13.724  -1.297 -0.24 -0.00    +0.000 OA
DOCKED: BRANCH  13  18
DOCKED: ATOM     15  C   UNL     1      27.634 -12.532   3.581 -0.29 -0.00    +0.000 A 
DOCKED: ATOM     16  C   UNL     1      28.052 -13.858   3.356 -0.36 -0.00    +0.000 A 
DOCKED: ATOM     17  C   UNL     1      27.867 -14.467   2.112 -0.24 -0.00    +0.000 A 
DOCKED: ATOM     18  C   UNL     1      27.269 -13.766   1.053 -0.26 -0.00    +0.000 A 
DOCKED: ATOM     19  C   UNL     1      26.840 -12.447   1.274 -0.28 -0.00    +0.000 A 
DOCKED: ATOM     20  C   UNL     1      27.022 -11.837   2.518 -0.28 +0.00    +0.000 A 
DOCKED: BRANCH  15  22
DOCKED: ATOM     21  C   UNL     1      27.713 -10.441   5.015 -0.37 +0.00    +0.000 C 
DOCKED: ATOM     22  N   UNL     1      27.826 -11.898   4.873 -0.37 +0.00    +0.000 N 
DOCKED: ATOM     23  C   UNL     1      28.135 -12.704   6.062 -0.46 -0.00    +0.000 C 
DOCKED: ENDBRANCH  15  22
DOCKED: ENDBRANCH  13  18
DOCKED: ENDBRANCH   1  13
DOCKED: TORSDOF 6
DOCKED: TER
DOCKED: ENDMDL
________________________________________________________________________________


	BEGINNING GENETIC ALGORITHM DOCKING 97 of 100
Run: 97 Seed: 927509569 552571422 [ Run 97 of 100 GA/GALS ]
Beginning LAMARCKIAN GENETIC ALGORITHM (LGA), with a maximum of 2500000 energy evaluations.

Final-Value: -14.131


	FINAL GENETIC ALGORITHM DOCKED STATE
	_______________________________________________


Detailed state:  trans 26.522 -15.608 -0.304 quatxyzw -0.889929 -0.369319 0.042045 -0.264315 center -0.973 -0.390 0.234 ntor 6 -43.6865 -78.1893 -173.8215 172.9308 31.6518 -58.2866
State:	 26.522 -15.608  -0.304  -0.923 -0.383  0.044 -149.347    -43.69  -78.19 -173.82  172.93   31.65  -58.29

DOCKED: MODEL       97
DOCKED: USER    Run = 97
DOCKED: USER    DPF = ligand_dock.biased.dpf
DOCKED: USER  
DOCKED: USER    Estimated Free Energy of Binding    =  -11.08 kcal/mol  [=(1)+(2)+(3)-(4)]
DOCKED: USER    Estimated Inhibition Constant, Ki   =    7.61 nM (nanomolar)  [Temperature = 298.15 K]
DOCKED: USER    
DOCKED: USER    (1) Final Intermolecular Energy     =  -12.87 kcal/mol
DOCKED: USER        vdW + Hbond + desolv Energy     =  -12.87 kcal/mol
DOCKED: USER        Electrostatic Energy            =   +0.00 kcal/mol
DOCKED: USER    (2) Final Total Internal Energy     =   -1.27 kcal/mol
DOCKED: USER    (3) Torsional Free Energy           =   +1.79 kcal/mol
DOCKED: USER    (4) Unbound System's Energy  [=(2)] =   -1.27 kcal/mol
DOCKED: USER    
DOCKED: USER    
DOCKED: USER    NEWDPF move ligand.pdbqt
DOCKED: USER    NEWDPF about -0.973000 -0.390000 0.234000
DOCKED: USER    NEWDPF tran0 26.522243 -15.607687 -0.303654
DOCKED: USER    NEWDPF quaternion0 -0.889929 -0.369319 0.042045 -0.264315
DOCKED: USER    NEWDPF axisangle0 -0.922745 -0.382937 0.043595 -149.347434
DOCKED: USER    NEWDPF quat0 -0.922745 -0.382937 0.043595 -149.347434
DOCKED: USER    NEWDPF dihe0 -43.69 -78.19 -173.82 172.93 31.65 -58.29 
DOCKED: USER  keepresnum = 1 
DOCKED: USER  
DOCKED: REMARK  Name = 
DOCKED: REMARK  10 active torsions:
DOCKED: REMARK  status: ('A' for Active; 'I' for Inactive)
DOCKED: REMARK    1  A    between atoms: C_1  and  N_2
DOCKED: REMARK    2  A    between atoms: N_2  and  C_3
DOCKED: REMARK    3  A    between atoms: N_2  and  C_22
DOCKED: REMARK    4  A    between atoms: C_6  and  C_9
DOCKED: REMARK    5  A    between atoms: C_9  and  C_10
DOCKED: REMARK    6  A    between atoms: C_10  and  C_11
DOCKED: REMARK    7  A    between atoms: C_10  and  C_20
DOCKED: REMARK    8  A    between atoms: C_12  and  C_13
DOCKED: REMARK    9  A    between atoms: C_12  and  C_19
DOCKED: REMARK   10  A    between atoms: C_14  and  C_15
DOCKED: REMARK                            x       y       z     vdW  Elec       q    Type
DOCKED: REMARK                         _______ _______ _______ _____ _____    ______ ____
DOCKED: USER                              x       y       z     vdW  Elec       q    Type
DOCKED: USER                           _______ _______ _______ _____ _____    ______ ____
DOCKED: ROOT
DOCKED: ATOM      1  C   UNL     1      26.921 -15.748  -1.846 -0.38 -0.00    +0.000 C 
DOCKED: ATOM      2  C   UNL     1      27.203 -15.870  -3.346 -0.31 -0.00    +0.000 C 
DOCKED: ENDROOT
DOCKED: BRANCH   1   3
DOCKED: ATOM      3  C   UNL     1      25.581 -16.377  -1.516 -0.56 -0.00    +0.000 C 
DOCKED: ATOM      4  C   UNL     1      25.393 -17.366  -0.617 -0.64 -0.00    +0.000 C 
DOCKED: ATOM      5  C   UNL     1      26.539 -17.949   0.181 -0.52 -0.00    +0.000 C 
DOCKED: BRANCH   4   6
DOCKED: ATOM      6  C   UNL     1      24.005 -17.845  -0.392 -0.75 -0.00    +0.000 C 
DOCKED: ATOM      7  C   UNL     1      23.076 -17.873  -1.358 -0.66 -0.00    +0.000 C 
DOCKED: BRANCH   7   8
DOCKED: ATOM      8  C   UNL     1      21.693 -18.350  -1.148 -0.62 -0.00    +0.000 C 
DOCKED: ATOM      9  N   UNL     1      21.290 -19.691  -1.452 -0.65 -0.00    +0.000 N 
DOCKED: ATOM     10  O   UNL     1      20.040 -20.109  -1.146 -1.97 -0.00    +0.000 OA
DOCKED: ATOM     11  O   UNL     1      20.839 -17.536  -0.708 -2.10 +0.00    +0.000 OA
DOCKED: ATOM     12  H   UNL     1      21.923 -20.309  -1.886 -0.45 -0.00    +0.000 HD
DOCKED: ENDBRANCH   7   8
DOCKED: ENDBRANCH   4   6
DOCKED: ENDBRANCH   1   3
DOCKED: BRANCH   1  13
DOCKED: ATOM     13  C   UNL     1      26.944 -14.289  -1.435 -0.27 -0.00    +0.000 C 
DOCKED: ATOM     14  O   UNL     1      26.846 -13.399  -2.326 -0.24 -0.00    +0.000 OA
DOCKED: BRANCH  13  18
DOCKED: ATOM     15  C   UNL     1      27.439 -13.112   2.695 -0.30 -0.00    +0.000 A 
DOCKED: ATOM     16  C   UNL     1      27.806 -14.398   2.252 -0.25 -0.00    +0.000 A 
DOCKED: ATOM     17  C   UNL     1      27.642 -14.771   0.916 -0.24 -0.00    +0.000 A 
DOCKED: ATOM     18  C   UNL     1      27.114 -13.867  -0.020 -0.24 -0.00    +0.000 A 
DOCKED: ATOM     19  C   UNL     1      26.735 -12.587   0.416 -0.24 -0.00    +0.000 A 
DOCKED: ATOM     20  C   UNL     1      26.898 -12.214   1.753 -0.28 +0.00    +0.000 A 
DOCKED: BRANCH  15  22
DOCKED: ATOM     21  C   UNL     1      27.720 -11.307   4.455 -0.35 +0.00    +0.000 C 
DOCKED: ATOM     22  N   UNL     1      27.610 -12.723   4.083 -0.36 -0.00    +0.000 N 
DOCKED: ATOM     23  C   UNL     1      27.676 -13.740   5.141 -0.49 -0.00    +0.000 C 
DOCKED: ENDBRANCH  15  22
DOCKED: ENDBRANCH  13  18
DOCKED: ENDBRANCH   1  13
DOCKED: TORSDOF 6
DOCKED: TER
DOCKED: ENDMDL
________________________________________________________________________________


	BEGINNING GENETIC ALGORITHM DOCKING 98 of 100
Run: 98 Seed: 1344064629 137111370 [ Run 98 of 100 GA/GALS ]
Beginning LAMARCKIAN GENETIC ALGORITHM (LGA), with a maximum of 2500000 energy evaluations.

Final-Value: -14.675


	FINAL GENETIC ALGORITHM DOCKED STATE
	_______________________________________________


Detailed state:  trans 26.089 -15.697 0.484 quatxyzw 0.879739 0.433417 0.062019 0.185373 center -0.973 -0.390 0.234 ntor 6 133.9361 -27.1512 158.0295 -7.1423 -0.8707 -33.2139
State:	 26.089 -15.697   0.484   0.895  0.441  0.063 158.634    133.94  -27.15  158.03   -7.14   -0.87  -33.21

DOCKED: MODEL       98
DOCKED: USER    Run = 98
DOCKED: USER    DPF = ligand_dock.biased.dpf
DOCKED: USER  
DOCKED: USER    Estimated Free Energy of Binding    =  -11.76 kcal/mol  [=(1)+(2)+(3)-(4)]
DOCKED: USER    Estimated Inhibition Constant, Ki   =    2.41 nM (nanomolar)  [Temperature = 298.15 K]
DOCKED: USER    
DOCKED: USER    (1) Final Intermolecular Energy     =  -13.55 kcal/mol
DOCKED: USER        vdW + Hbond + desolv Energy     =  -13.55 kcal/mol
DOCKED: USER        Electrostatic Energy            =   +0.00 kcal/mol
DOCKED: USER    (2) Final Total Internal Energy     =   -1.13 kcal/mol
DOCKED: USER    (3) Torsional Free Energy           =   +1.79 kcal/mol
DOCKED: USER    (4) Unbound System's Energy  [=(2)] =   -1.13 kcal/mol
DOCKED: USER    
DOCKED: USER    
DOCKED: USER    NEWDPF move ligand.pdbqt
DOCKED: USER    NEWDPF about -0.973000 -0.390000 0.234000
DOCKED: USER    NEWDPF tran0 26.089220 -15.697292 0.483816
DOCKED: USER    NEWDPF quaternion0 0.879739 0.433417 0.062019 0.185373
DOCKED: USER    NEWDPF axisangle0 0.895255 0.441061 0.063113 158.634187
DOCKED: USER    NEWDPF quat0 0.895255 0.441061 0.063113 158.634187
DOCKED: USER    NEWDPF dihe0 133.94 -27.15 158.03 -7.14 -0.87 -33.21 
DOCKED: USER  keepresnum = 1 
DOCKED: USER  
DOCKED: REMARK  Name = 
DOCKED: REMARK  10 active torsions:
DOCKED: REMARK  status: ('A' for Active; 'I' for Inactive)
DOCKED: REMARK    1  A    between atoms: C_1  and  N_2
DOCKED: REMARK    2  A    between atoms: N_2  and  C_3
DOCKED: REMARK    3  A    between atoms: N_2  and  C_22
DOCKED: REMARK    4  A    between atoms: C_6  and  C_9
DOCKED: REMARK    5  A    between atoms: C_9  and  C_10
DOCKED: REMARK    6  A    between atoms: C_10  and  C_11
DOCKED: REMARK    7  A    between atoms: C_10  and  C_20
DOCKED: REMARK    8  A    between atoms: C_12  and  C_13
DOCKED: REMARK    9  A    between atoms: C_12  and  C_19
DOCKED: REMARK   10  A    between atoms: C_14  and  C_15
DOCKED: REMARK                            x       y       z     vdW  Elec       q    Type
DOCKED: REMARK                         _______ _______ _______ _____ _____    ______ ____
DOCKED: USER                              x       y       z     vdW  Elec       q    Type
DOCKED: USER                           _______ _______ _______ _____ _____    ______ ____
DOCKED: ROOT
DOCKED: ATOM      1  C   UNL     1      26.905 -15.871  -0.880 -0.40 -0.00    +0.000 C 
DOCKED: ATOM      2  C   UNL     1      27.597 -16.032  -2.237 -0.33 -0.00    +0.000 C 
DOCKED: ENDROOT
DOCKED: BRANCH   1   3
DOCKED: ATOM      3  C   UNL     1      25.570 -16.590  -0.888 -0.55 -0.00    +0.000 C 
DOCKED: ATOM      4  C   UNL     1      25.383 -17.874  -0.514 -0.69 -0.00    +0.000 C 
DOCKED: ATOM      5  C   UNL     1      26.524 -18.737  -0.024 -0.47 -0.00    +0.000 C 
DOCKED: BRANCH   4   6
DOCKED: ATOM      6  C   UNL     1      23.999 -18.412  -0.553 -0.78 -0.00    +0.000 C 
DOCKED: ATOM      7  C   UNL     1      22.957 -17.715  -1.025 -0.75 -0.00    +0.000 C 
DOCKED: BRANCH   7   8
DOCKED: ATOM      8  C   UNL     1      21.576 -18.241  -1.071 -0.71 -0.00    +0.000 C 
DOCKED: ATOM      9  N   UNL     1      21.275 -19.563  -1.532 -0.68 -0.00    +0.000 N 
DOCKED: ATOM     10  O   UNL     1      20.009 -20.036  -1.458 -2.13 -0.00    +0.000 OA
DOCKED: ATOM     11  O   UNL     1      20.634 -17.485  -0.714 -2.08 +0.00    +0.000 OA
DOCKED: ATOM     12  H   UNL     1      21.990 -20.130  -1.903 -0.50 -0.00    +0.000 HD
DOCKED: ENDBRANCH   7   8
DOCKED: ENDBRANCH   4   6
DOCKED: ENDBRANCH   1   3
DOCKED: BRANCH   1  13
DOCKED: ATOM     13  C   UNL     1      26.720 -14.398  -0.571 -0.31 -0.00    +0.000 C 
DOCKED: ATOM     14  O   UNL     1      26.339 -13.621  -1.491 -0.25 -0.00    +0.000 OA
DOCKED: BRANCH  13  18
DOCKED: ATOM     15  C   UNL     1      27.539 -12.697   3.318 -0.30 -0.00    +0.000 A 
DOCKED: ATOM     16  C   UNL     1      26.724 -12.027   2.384 -0.26 +0.00    +0.000 A 
DOCKED: ATOM     17  C   UNL     1      26.466 -12.583   1.129 -0.31 -0.00    +0.000 A 
DOCKED: ATOM     18  C   UNL     1      27.005 -13.830   0.772 -0.27 -0.00    +0.000 A 
DOCKED: ATOM     19  C   UNL     1      27.828 -14.497   1.695 -0.24 -0.00    +0.000 A 
DOCKED: ATOM     20  C   UNL     1      28.089 -13.941   2.950 -0.32 -0.00    +0.000 A 
DOCKED: BRANCH  15  22
DOCKED: ATOM     21  C   UNL     1      27.742 -10.667   4.826 -0.37 +0.00    +0.000 C 
DOCKED: ATOM     22  N   UNL     1      27.807 -12.119   4.623 -0.36 +0.00    +0.000 N 
DOCKED: ATOM     23  C   UNL     1      28.149 -12.979   5.764 -0.47 -0.00    +0.000 C 
DOCKED: ENDBRANCH  15  22
DOCKED: ENDBRANCH  13  18
DOCKED: ENDBRANCH   1  13
DOCKED: TORSDOF 6
DOCKED: TER
DOCKED: ENDMDL
________________________________________________________________________________


	BEGINNING GENETIC ALGORITHM DOCKING 99 of 100
Run: 99 Seed: 1414747153 1405598931 [ Run 99 of 100 GA/GALS ]
Beginning LAMARCKIAN GENETIC ALGORITHM (LGA), with a maximum of 2500000 energy evaluations.

Final-Value: -14.042


	FINAL GENETIC ALGORITHM DOCKED STATE
	_______________________________________________


Detailed state:  trans 26.203 -15.638 -0.917 quatxyzw 0.889605 0.277665 -0.090797 0.351085 center -0.973 -0.390 0.234 ntor 6 -43.1024 -107.5393 -107.6942 -179.1687 42.7448 -67.0555
State:	 26.203 -15.638  -0.917   0.950  0.297 -0.097 138.893    -43.10 -107.54 -107.69 -179.17   42.74  -67.06

DOCKED: MODEL       99
DOCKED: USER    Run = 99
DOCKED: USER    DPF = ligand_dock.biased.dpf
DOCKED: USER  
DOCKED: USER    Estimated Free Energy of Binding    =  -11.07 kcal/mol  [=(1)+(2)+(3)-(4)]
DOCKED: USER    Estimated Inhibition Constant, Ki   =    7.73 nM (nanomolar)  [Temperature = 298.15 K]
DOCKED: USER    
DOCKED: USER    (1) Final Intermolecular Energy     =  -12.86 kcal/mol
DOCKED: USER        vdW + Hbond + desolv Energy     =  -12.86 kcal/mol
DOCKED: USER        Electrostatic Energy            =   +0.00 kcal/mol
DOCKED: USER    (2) Final Total Internal Energy     =   -1.19 kcal/mol
DOCKED: USER    (3) Torsional Free Energy           =   +1.79 kcal/mol
DOCKED: USER    (4) Unbound System's Energy  [=(2)] =   -1.19 kcal/mol
DOCKED: USER    
DOCKED: USER    
DOCKED: USER    NEWDPF move ligand.pdbqt
DOCKED: USER    NEWDPF about -0.973000 -0.390000 0.234000
DOCKED: USER    NEWDPF tran0 26.202894 -15.638080 -0.916706
DOCKED: USER    NEWDPF quaternion0 0.889605 0.277665 -0.090797 0.351085
DOCKED: USER    NEWDPF axisangle0 0.950084 0.296542 -0.096970 138.892661
DOCKED: USER    NEWDPF quat0 0.950084 0.296542 -0.096970 138.892661
DOCKED: USER    NEWDPF dihe0 -43.10 -107.54 -107.69 -179.17 42.74 -67.06 
DOCKED: USER  keepresnum = 1 
DOCKED: USER  
DOCKED: REMARK  Name = 
DOCKED: REMARK  10 active torsions:
DOCKED: REMARK  status: ('A' for Active; 'I' for Inactive)
DOCKED: REMARK    1  A    between atoms: C_1  and  N_2
DOCKED: REMARK    2  A    between atoms: N_2  and  C_3
DOCKED: REMARK    3  A    between atoms: N_2  and  C_22
DOCKED: REMARK    4  A    between atoms: C_6  and  C_9
DOCKED: REMARK    5  A    between atoms: C_9  and  C_10
DOCKED: REMARK    6  A    between atoms: C_10  and  C_11
DOCKED: REMARK    7  A    between atoms: C_10  and  C_20
DOCKED: REMARK    8  A    between atoms: C_12  and  C_13
DOCKED: REMARK    9  A    between atoms: C_12  and  C_19
DOCKED: REMARK   10  A    between atoms: C_14  and  C_15
DOCKED: REMARK                            x       y       z     vdW  Elec       q    Type
DOCKED: REMARK                         _______ _______ _______ _____ _____    ______ ____
DOCKED: USER                              x       y       z     vdW  Elec       q    Type
DOCKED: USER                           _______ _______ _______ _____ _____    ______ ____
DOCKED: ROOT
DOCKED: ATOM      1  C   UNL     1      26.275 -15.637  -2.514 -0.47 -0.00    +0.000 C 
DOCKED: ATOM      2  C   UNL     1      26.246 -15.607  -4.045 -0.53 -0.00    +0.000 C 
DOCKED: ENDROOT
DOCKED: BRANCH   1   3
DOCKED: ATOM      3  C   UNL     1      24.942 -16.120  -1.978 -0.53 -0.00    +0.000 C 
DOCKED: ATOM      4  C   UNL     1      24.790 -17.037  -0.998 -0.66 -0.00    +0.000 C 
DOCKED: ATOM      5  C   UNL     1      25.977 -17.679  -0.315 -0.64 -0.00    +0.000 C 
DOCKED: BRANCH   4   6
DOCKED: ATOM      6  C   UNL     1      23.408 -17.372  -0.570 -0.71 -0.00    +0.000 C 
DOCKED: ATOM      7  C   UNL     1      22.750 -18.456  -1.004 -0.82 -0.00    +0.000 C 
DOCKED: BRANCH   7   8
DOCKED: ATOM      8  C   UNL     1      21.376 -18.801  -0.583 -0.86 -0.00    +0.000 C 
DOCKED: ATOM      9  N   UNL     1      21.045 -20.072  -0.012 -0.63 -0.00    +0.000 N 
DOCKED: ATOM     10  O   UNL     1      19.796 -20.303   0.453 -0.91 -0.00    +0.000 OA
DOCKED: ATOM     11  O   UNL     1      20.464 -17.950  -0.759 -2.25 -0.00    +0.000 OA
DOCKED: ATOM     12  H   UNL     1      21.729 -20.780   0.043 -0.55 -0.00    +0.000 HD
DOCKED: ENDBRANCH   7   8
DOCKED: ENDBRANCH   4   6
DOCKED: ENDBRANCH   1   3
DOCKED: BRANCH   1  13
DOCKED: ATOM     13  C   UNL     1      26.601 -14.257  -1.980 -0.30 -0.00    +0.000 C 
DOCKED: ATOM     14  O   UNL     1      26.637 -13.281  -2.781 -0.26 -0.00    +0.000 OA
DOCKED: BRANCH  13  18
DOCKED: ATOM     15  C   UNL     1      27.512 -13.607   2.196 -0.29 -0.00    +0.000 A 
DOCKED: ATOM     16  C   UNL     1      27.756 -14.850   1.579 -0.15 -0.00    +0.000 A 
DOCKED: ATOM     17  C   UNL     1      27.457 -15.051   0.230 -0.27 -0.00    +0.000 A 
DOCKED: ATOM     18  C   UNL     1      26.915 -14.016  -0.547 -0.24 -0.00    +0.000 A 
DOCKED: ATOM     19  C   UNL     1      26.658 -12.777   0.064 -0.22 -0.00    +0.000 A 
DOCKED: ATOM     20  C   UNL     1      26.954 -12.574   1.415 -0.27 -0.00    +0.000 A 
DOCKED: BRANCH  15  22
DOCKED: ATOM     21  C   UNL     1      28.043 -12.041   4.120 -0.33 +0.00    +0.000 C 
DOCKED: ATOM     22  N   UNL     1      27.822 -13.396   3.599 -0.37 -0.00    +0.000 N 
DOCKED: ATOM     23  C   UNL     1      27.921 -14.534   4.521 -0.62 -0.00    +0.000 C 
DOCKED: ENDBRANCH  15  22
DOCKED: ENDBRANCH  13  18
DOCKED: ENDBRANCH   1  13
DOCKED: TORSDOF 6
DOCKED: TER
DOCKED: ENDMDL
________________________________________________________________________________


	BEGINNING GENETIC ALGORITHM DOCKING 100 of 100
Run: 100 Seed: 1031464750 638191104 [ Run 100 of 100 GA/GALS ]
Beginning LAMARCKIAN GENETIC ALGORITHM (LGA), with a maximum of 2500000 energy evaluations.

Final-Value: -14.439


	FINAL GENETIC ALGORITHM DOCKED STATE
	_______________________________________________


Detailed state:  trans 26.519 -15.421 -1.134 quatxyzw -0.884286 -0.293687 0.015188 -0.362706 center -0.973 -0.390 0.234 ntor 6 -90.4263 167.2807 -84.0452 -144.0069 50.7124 -63.1980
State:	 26.519 -15.421  -1.134  -0.949 -0.315  0.016 -137.467    -90.43  167.28  -84.05 -144.01   50.71  -63.20

DOCKED: MODEL      100
DOCKED: USER    Run = 100
DOCKED: USER    DPF = ligand_dock.biased.dpf
DOCKED: USER  
DOCKED: USER    Estimated Free Energy of Binding    =  -11.33 kcal/mol  [=(1)+(2)+(3)-(4)]
DOCKED: USER    Estimated Inhibition Constant, Ki   =    4.98 nM (nanomolar)  [Temperature = 298.15 K]
DOCKED: USER    
DOCKED: USER    (1) Final Intermolecular Energy     =  -13.12 kcal/mol
DOCKED: USER        vdW + Hbond + desolv Energy     =  -13.12 kcal/mol
DOCKED: USER        Electrostatic Energy            =   +0.00 kcal/mol
DOCKED: USER    (2) Final Total Internal Energy     =   -1.32 kcal/mol
DOCKED: USER    (3) Torsional Free Energy           =   +1.79 kcal/mol
DOCKED: USER    (4) Unbound System's Energy  [=(2)] =   -1.32 kcal/mol
DOCKED: USER    
DOCKED: USER    
DOCKED: USER    NEWDPF move ligand.pdbqt
DOCKED: USER    NEWDPF about -0.973000 -0.390000 0.234000
DOCKED: USER    NEWDPF tran0 26.519070 -15.421296 -1.134276
DOCKED: USER    NEWDPF quaternion0 -0.884286 -0.293687 0.015188 -0.362706
DOCKED: USER    NEWDPF axisangle0 -0.948903 -0.315147 0.016298 -137.467096
DOCKED: USER    NEWDPF quat0 -0.948903 -0.315147 0.016298 -137.467096
DOCKED: USER    NEWDPF dihe0 -90.43 167.28 -84.05 -144.01 50.71 -63.20 
DOCKED: USER  keepresnum = 1 
DOCKED: USER  
DOCKED: REMARK  Name = 
DOCKED: REMARK  10 active torsions:
DOCKED: REMARK  status: ('A' for Active; 'I' for Inactive)
DOCKED: REMARK    1  A    between atoms: C_1  and  N_2
DOCKED: REMARK    2  A    between atoms: N_2  and  C_3
DOCKED: REMARK    3  A    between atoms: N_2  and  C_22
DOCKED: REMARK    4  A    between atoms: C_6  and  C_9
DOCKED: REMARK    5  A    between atoms: C_9  and  C_10
DOCKED: REMARK    6  A    between atoms: C_10  and  C_11
DOCKED: REMARK    7  A    between atoms: C_10  and  C_20
DOCKED: REMARK    8  A    between atoms: C_12  and  C_13
DOCKED: REMARK    9  A    between atoms: C_12  and  C_19
DOCKED: REMARK   10  A    between atoms: C_14  and  C_15
DOCKED: REMARK                            x       y       z     vdW  Elec       q    Type
DOCKED: REMARK                         _______ _______ _______ _____ _____    ______ ____
DOCKED: USER                              x       y       z     vdW  Elec       q    Type
DOCKED: USER                           _______ _______ _______ _____ _____    ______ ____
DOCKED: ROOT
DOCKED: ATOM      1  C   UNL     1      26.812 -15.315  -2.703 -0.39 -0.00    +0.000 C 
DOCKED: ATOM      2  C   UNL     1      26.996 -15.181  -4.217 -0.47 -0.00    +0.000 C 
DOCKED: ENDROOT
DOCKED: BRANCH   1   3
DOCKED: ATOM      3  C   UNL     1      25.408 -15.794  -2.389 -0.54 -0.00    +0.000 C 
DOCKED: ATOM      4  C   UNL     1      25.090 -16.659  -1.402 -0.62 -0.00    +0.000 C 
DOCKED: ATOM      5  C   UNL     1      26.139 -17.239  -0.479 -0.59 -0.00    +0.000 C 
DOCKED: BRANCH   4   6
DOCKED: ATOM      6  C   UNL     1      23.657 -16.998  -1.213 -0.61 -0.00    +0.000 C 
DOCKED: ATOM      7  C   UNL     1      23.189 -18.253  -1.265 -0.78 -0.00    +0.000 C 
DOCKED: BRANCH   7   8
DOCKED: ATOM      8  C   UNL     1      21.766 -18.603  -1.075 -0.81 -0.00    +0.000 C 
DOCKED: ATOM      9  N   UNL     1      21.162 -19.733  -1.716 -0.61 -0.00    +0.000 N 
DOCKED: ATOM     10  O   UNL     1      19.883 -20.071  -1.431 -2.06 -0.00    +0.000 OA
DOCKED: ATOM     11  O   UNL     1      21.058 -17.862  -0.342 -1.91 +0.00    +0.000 OA
DOCKED: ATOM     12  H   UNL     1      21.678 -20.264  -2.366 -0.58 -0.00    +0.000 HD
DOCKED: ENDBRANCH   7   8
DOCKED: ENDBRANCH   4   6
DOCKED: ENDBRANCH   1   3
DOCKED: BRANCH   1  13
DOCKED: ATOM     13  C   UNL     1      27.087 -13.983  -2.032 -0.24 -0.00    +0.000 C 
DOCKED: ATOM     14  O   UNL     1      27.179 -12.945  -2.745 -0.19 -0.00    +0.000 OA
DOCKED: BRANCH  13  18
DOCKED: ATOM     15  C   UNL     1      27.695 -13.673   2.236 -0.28 -0.00    +0.000 A 
DOCKED: ATOM     16  C   UNL     1      28.564 -14.431   1.427 -0.19 -0.00    +0.000 A 
DOCKED: ATOM     17  C   UNL     1      28.360 -14.527   0.049 -0.18 -0.00    +0.000 A 
DOCKED: ATOM     18  C   UNL     1      27.286 -13.862  -0.565 -0.20 -0.00    +0.000 A 
DOCKED: ATOM     19  C   UNL     1      26.409 -13.113   0.238 -0.25 -0.00    +0.000 A 
DOCKED: ATOM     20  C   UNL     1      26.612 -13.018   1.618 -0.30 -0.00    +0.000 A 
DOCKED: BRANCH  15  22
DOCKED: ATOM     21  C   UNL     1      28.346 -12.308   4.273 -0.32 -0.00    +0.000 C 
DOCKED: ATOM     22  N   UNL     1      27.908 -13.573   3.669 -0.39 -0.00    +0.000 N 
DOCKED: ATOM     23  C   UNL     1      27.687 -14.734   4.541 -0.61 -0.00    +0.000 C 
DOCKED: ENDBRANCH  15  22
DOCKED: ENDBRANCH  13  18
DOCKED: ENDBRANCH   1  13
DOCKED: TORSDOF 6
DOCKED: TER
DOCKED: ENDMDL
________________________________________________________________________________

DPF>                           # do this many hybrid GA-LS runs

DPF> analysis                             # perform a ranked cluster analysis


		CLUSTER ANALYSIS OF CONFORMATIONS
		_________________________________

Number of conformations = 100

RMSD cluster analysis will be performed using the ligand atoms only (23 / 23 total atoms).

Outputting structurally similar clusters, ranked in order of increasing energy.


________________________________________________________________________________

Number of distinct conformational clusters found = 6,  out of 100 runs,
Using an rmsd-tolerance of 2.0 A


	CLUSTERING HISTOGRAM
	____________________

________________________________________________________________________________
     |           |     |           |     |                                    
Clus | Lowest    | Run | Mean      | Num | Histogram                          
-ter | Binding   |     | Binding   | in  |                                    
Rank | Energy    |     | Energy    | Clus|    5    10   15   20   25   30   35
_____|___________|_____|___________|_____|____:____|____:____|____:____|____:___
   1 |    -11.89 |  50 |    -11.19 |  61 |#############################################################
   2 |    -11.56 |  88 |    -11.10 |  14 |##############
   3 |    -11.54 |  87 |    -10.98 |  18 |##################
   4 |    -11.16 |   4 |    -10.93 |   3 |###
   5 |    -10.96 |  76 |    -10.92 |   3 |###
   6 |    -10.48 |  59 |    -10.48 |   1 |#
_____|___________|_____|___________|_____|______________________________________


Number of multi-member conformational clusters found = 5, out of 100 runs.

	RMSD TABLE
	__________

_____________________________________________________________________
     |      |      |           |         |                 |
Rank | Sub- | Run  | Binding   | Cluster | Reference       | Grep
     | Rank |      | Energy    | RMSD    | RMSD            | Pattern
_____|______|______|___________|_________|_________________|___________
   1      1     50      -11.89      0.00     26.40           RANKING
   1      2      3      -11.88      0.36     26.38           RANKING
   1      3     54      -11.85      0.85     26.51           RANKING
   1      4     43      -11.76      0.41     26.41           RANKING
   1      5     98      -11.76      0.59     26.34           RANKING
   1      6     44      -11.74      0.93     26.55           RANKING
   1      7      1      -11.59      0.71     26.47           RANKING
   1      8     39      -11.47      1.05     26.31           RANKING
   1      9     86      -11.45      0.81     26.48           RANKING
   1     10     11      -11.41      1.12     26.31           RANKING
   1     11      2      -11.41      0.93     26.31           RANKING
   1     12     96      -11.41      0.45     26.35           RANKING
   1     13     83      -11.38      0.85     26.25           RANKING
   1     14     20      -11.36      1.49     26.27           RANKING
   1     15     55      -11.34      0.89     26.55           RANKING
   1     16     64      -11.33      1.02     26.74           RANKING
   1     17     40      -11.33      1.09     26.41           RANKING
   1     18    100      -11.33      1.40     26.38           RANKING
   1     19     53      -11.32      1.54     26.26           RANKING
   1     20     95      -11.32      0.89     26.33           RANKING
   1     21      5      -11.29      1.13     26.32           RANKING
   1     22     57      -11.28      1.16     26.94           RANKING
   1     23     48      -11.26      1.40     26.44           RANKING
   1     24     17      -11.26      1.38     26.21           RANKING
   1     25     18      -11.25      1.16     26.31           RANKING
   1     26     10      -11.20      1.32     26.25           RANKING
   1     27      7      -11.20      1.27     26.35           RANKING
   1     28     27      -11.20      1.17     26.25           RANKING
   1     29     65      -11.18      1.14     26.62           RANKING
   1     30     19      -11.18      1.63     26.21           RANKING
   1     31     28      -11.17      1.14     26.19           RANKING
   1     32     69      -11.16      1.53     26.26           RANKING
   1     33     85      -11.14      1.49     26.27           RANKING
   1     34     31      -11.13      1.27     26.22           RANKING
   1     35     51      -11.12      1.05     26.31           RANKING
   1     36     74      -11.08      1.04     26.36           RANKING
   1     37     72      -11.08      1.27     26.68           RANKING
   1     38     97      -11.08      0.94     26.34           RANKING
   1     39     99      -11.07      1.58     26.23           RANKING
   1     40     84      -11.07      1.45     26.38           RANKING
   1     41     61      -11.06      1.53     26.29           RANKING
   1     42     25      -11.05      1.57     26.43           RANKING
   1     43      6      -11.04      1.61     26.30           RANKING
   1     44     32      -11.02      1.50     26.26           RANKING
   1     45     37      -11.01      1.37     26.34           RANKING
   1     46     34      -11.01      1.90     26.30           RANKING
   1     47     68      -11.00      1.26     26.34           RANKING
   1     48     62      -10.99      1.68     26.27           RANKING
   1     49     67      -10.97      1.42     26.78           RANKING
   1     50     82      -10.95      1.82     26.32           RANKING
   1     51     73      -10.95      1.24     26.44           RANKING
   1     52      9      -10.93      1.06     26.37           RANKING
   1     53     36      -10.87      1.73     26.13           RANKING
   1     54     91      -10.83      1.74     26.43           RANKING
   1     55      8      -10.82      1.37     26.48           RANKING
   1     56     80      -10.81      0.85     26.55           RANKING
   1     57     90      -10.80      1.20     26.98           RANKING
   1     58     60      -10.79      1.85     26.51           RANKING
   1     59     79      -10.79      1.98     26.18           RANKING
   1     60     38      -10.75      1.77     26.52           RANKING
   1     61     93      -10.20      1.77     25.89           RANKING
   2      1     88      -11.56      0.00     28.08           RANKING
   2      2     63      -11.55      0.56     28.05           RANKING
   2      3     46      -11.53      0.26     28.20           RANKING
   2      4     71      -11.39      0.50     28.28           RANKING
   2      5     22      -11.37      1.16     27.52           RANKING
   2      6     45      -11.19      0.47     28.05           RANKING
   2      7     89      -11.18      1.38     27.37           RANKING
   2      8     41      -11.17      1.25     27.44           RANKING
   2      9     13      -11.15      1.97     27.13           RANKING
   2     10     58      -11.11      0.66     28.04           RANKING
   2     11     12      -10.97      1.90     26.88           RANKING
   2     12     81      -10.86      1.33     27.34           RANKING
   2     13     33      -10.64      1.72     27.10           RANKING
   2     14     49       -9.68      1.15     28.31           RANKING
   3      1     87      -11.54      0.00     25.74           RANKING
   3      2     94      -11.38      0.81     25.52           RANKING
   3      3     23      -11.30      1.80     26.01           RANKING
   3      4     70      -11.23      1.79     26.00           RANKING
   3      5     14      -11.23      0.89     25.73           RANKING
   3      6     47      -11.23      1.66     25.99           RANKING
   3      7     26      -11.21      0.49     25.66           RANKING
   3      8     52      -11.21      1.09     25.51           RANKING
   3      9     15      -11.12      0.61     25.78           RANKING
   3     10     77      -11.12      0.89     25.62           RANKING
   3     11     78      -11.04      0.66     25.84           RANKING
   3     12     75      -10.95      1.10     25.52           RANKING
   3     13     16      -10.94      0.69     25.72           RANKING
   3     14     35      -10.85      1.63     26.54           RANKING
   3     15     66      -10.82      0.97     25.67           RANKING
   3     16     42      -10.76      1.41     25.92           RANKING
   3     17     30       -9.95      1.42     26.31           RANKING
   3     18     24       -9.81      0.85     25.85           RANKING
   4      1      4      -11.16      0.00     27.06           RANKING
   4      2     92      -10.96      1.39     26.91           RANKING
   4      3     21      -10.66      1.64     26.35           RANKING
   5      1     76      -10.96      0.00     26.73           RANKING
   5      2     29      -10.90      1.03     26.85           RANKING
   5      3     56      -10.89      0.51     26.85           RANKING
   6      1     59      -10.48      0.00     27.77           RANKING
_______________________________________________________________________



	INFORMATION ENTROPY ANALYSIS FOR THIS CLUSTERING
	________________________________________________


Information entropy for this clustering = 0.25  (rmstol = 2.00 Angstrom)

_______________________________________________________________________


	STATISTICAL MECHANICAL ANALYSIS
	_______________________________


Partition function, Q =   101.89            at Temperature, T = 298.15 K
Free energy,        A ~ -2739.59 kcal/mol   at Temperature, T = 298.15 K
Internal energy,    U =   -11.11 kcal/mol   at Temperature, T = 298.15 K
Entropy,            S =     9.15 kcal/mol/K at Temperature, T = 298.15 K

_______________________________________________________________________


	LOWEST ENERGY DOCKED CONFORMATION from EACH CLUSTER
	___________________________________________________



Keeping original residue number (specified in the input PDBQ file) for outputting.

MODEL       50
USER    Run = 50
USER    Cluster Rank = 1
USER    Number of conformations in this cluster = 61
USER  
USER    RMSD from reference structure       = 26.395 A
USER  
USER    Estimated Free Energy of Binding    =  -11.89 kcal/mol  [=(1)+(2)+(3)-(4)]
USER    Estimated Inhibition Constant, Ki   =    1.93 nM (nanomolar)  [Temperature = 298.15 K]
USER    
USER    (1) Final Intermolecular Energy     =  -13.68 kcal/mol
USER        vdW + Hbond + desolv Energy     =  -13.68 kcal/mol
USER        Electrostatic Energy            =   +0.00 kcal/mol
USER    (2) Final Total Internal Energy     =   -1.04 kcal/mol
USER    (3) Torsional Free Energy           =   +1.79 kcal/mol
USER    (4) Unbound System's Energy  [=(2)] =   -1.04 kcal/mol
USER    
USER    
USER  
USER    DPF = ligand_dock.biased.dpf
USER    NEWDPF move	ligand.pdbqt
USER    NEWDPF about	-0.973000 -0.390000 0.234000
USER    NEWDPF tran0	26.083535 -15.258645 0.408294
USER    NEWDPF axisangle0	-0.912203 -0.349897 -0.213207 -168.879204
USER    NEWDPF quaternion0	-0.907911 -0.348250 -0.212204 -0.096895
USER    NEWDPF dihe0	157.73 111.59 3.69 170.38 -0.00 -27.24 
USER  
USER                              x       y       z    vdW   Elec        q     RMS 
ATOM      1  C   UNL     1      27.201 -15.701  -0.646 -0.36 -0.00    +0.000    26.395
ATOM      2  C   UNL     1      28.205 -16.102  -1.731 -0.30 -0.00    +0.000    26.395
ATOM      3  C   UNL     1      25.797 -16.089  -1.067 -0.51 -0.00    +0.000    26.395
ATOM      4  C   UNL     1      25.199 -17.262  -0.769 -0.65 -0.00    +0.000    26.395
ATOM      5  C   UNL     1      25.893 -18.327   0.051 -0.64 -0.00    +0.000    26.395
ATOM      6  C   UNL     1      23.803 -17.466  -1.234 -0.72 -0.00    +0.000    26.395
ATOM      7  C   UNL     1      22.917 -18.227  -0.576 -0.83 -0.00    +0.000    26.395
ATOM      8  C   UNL     1      21.525 -18.435  -1.028 -0.76 -0.00    +0.000    26.395
ATOM      9  N   UNL     1      21.141 -19.554  -1.836 -0.62 -0.00    +0.000    26.395
ATOM     10  O   UNL     1      19.838 -19.757  -2.138 -2.28 -0.00    +0.000    26.395
ATOM     11  O   UNL     1      20.656 -17.581  -0.707 -2.15 +0.00    +0.000    26.395
ATOM     12  H   UNL     1      21.826 -20.176  -2.173 -0.55 -0.00    +0.000    26.395
ATOM     13  C   UNL     1      27.291 -14.209  -0.390 -0.26 -0.00    +0.000    26.395
ATOM     14  O   UNL     1      27.284 -13.416  -1.373 -0.20 -0.00    +0.000    26.395
ATOM     15  C   UNL     1      27.671 -12.624   3.614 -0.30 -0.00    +0.000    26.395
ATOM     16  C   UNL     1      27.932 -13.981   3.337 -0.38 -0.00    +0.000    26.395
ATOM     17  C   UNL     1      27.805 -14.485   2.041 -0.24 -0.00    +0.000    26.395
ATOM     18  C   UNL     1      27.424 -13.648   0.980 -0.25 -0.00    +0.000    26.395
ATOM     19  C   UNL     1      27.152 -12.297   1.251 -0.24 -0.00    +0.000    26.395
ATOM     20  C   UNL     1      27.276 -11.791   2.548 -0.26 +0.00    +0.000    26.395
ATOM     21  C   UNL     1      28.175 -12.981   6.074 -0.44 -0.00    +0.000    26.395
ATOM     22  N   UNL     1      27.803 -12.099   4.961 -0.39 +0.00    +0.000    26.395
ATOM     23  C   UNL     1      27.567 -10.675   5.234 -0.37 +0.00    +0.000    26.395
TER
ENDMDL
MODEL       88
USER    Run = 88
USER    Cluster Rank = 2
USER    Number of conformations in this cluster = 14
USER  
USER    RMSD from reference structure       = 28.085 A
USER  
USER    Estimated Free Energy of Binding    =  -11.56 kcal/mol  [=(1)+(2)+(3)-(4)]
USER    Estimated Inhibition Constant, Ki   =    3.35 nM (nanomolar)  [Temperature = 298.15 K]
USER    
USER    (1) Final Intermolecular Energy     =  -13.35 kcal/mol
USER        vdW + Hbond + desolv Energy     =  -13.35 kcal/mol
USER        Electrostatic Energy            =   +0.00 kcal/mol
USER    (2) Final Total Internal Energy     =   -0.97 kcal/mol
USER    (3) Torsional Free Energy           =   +1.79 kcal/mol
USER    (4) Unbound System's Energy  [=(2)] =   -0.97 kcal/mol
USER    
USER    
USER  
USER    DPF = ligand_dock.biased.dpf
USER    NEWDPF move	ligand.pdbqt
USER    NEWDPF about	-0.973000 -0.390000 0.234000
USER    NEWDPF tran0	26.991250 -15.818260 -2.662624
USER    NEWDPF axisangle0	0.962275 0.243508 0.121372 -31.672784
USER    NEWDPF quaternion0	0.262596 0.066451 0.033121 -0.962045
USER    NEWDPF dihe0	-154.31 82.46 30.19 -31.11 -152.80 -51.17 
USER  
USER                              x       y       z    vdW   Elec        q     RMS 
ATOM      1  C   UNL     1      27.134 -15.441  -1.115 -0.34 -0.00    +0.000    28.085
ATOM      2  C   UNL     1      27.214 -15.163   0.389 -0.29 -0.00    +0.000    28.085
ATOM      3  C   UNL     1      25.782 -16.032  -1.463 -0.52 -0.00    +0.000    28.085
ATOM      4  C   UNL     1      25.301 -17.198  -0.979 -0.65 -0.00    +0.000    28.085
ATOM      5  C   UNL     1      26.090 -18.043  -0.002 -0.64 -0.00    +0.000    28.085
ATOM      6  C   UNL     1      23.940 -17.615  -1.401 -0.73 -0.00    +0.000    28.085
ATOM      7  C   UNL     1      22.952 -17.873  -0.531 -0.80 -0.00    +0.000    28.085
ATOM      8  C   UNL     1      21.593 -18.286  -0.939 -0.76 -0.00    +0.000    28.085
ATOM      9  N   UNL     1      21.337 -19.527  -1.608 -0.65 -0.00    +0.000    28.085
ATOM     10  O   UNL     1      20.065 -19.908  -1.868 -2.29 -0.00    +0.000    28.085
ATOM     11  O   UNL     1      20.634 -17.503  -0.709 -2.10 +0.00    +0.000    28.085
ATOM     12  H   UNL     1      22.088 -20.104  -1.879 -0.49 -0.00    +0.000    28.085
ATOM     13  C   UNL     1      28.251 -16.379  -1.525 -0.32 -0.00    +0.000    28.085
ATOM     14  O   UNL     1      28.757 -17.146  -0.658 -0.35 -0.00    +0.000    28.085
ATOM     15  C   UNL     1      29.888 -16.468  -5.525 -0.29 -0.00    +0.000    28.085
ATOM     16  C   UNL     1      30.443 -17.246  -4.491 -0.23 -0.00    +0.000    28.085
ATOM     17  C   UNL     1      29.909 -17.211  -3.201 -0.18 -0.00    +0.000    28.085
ATOM     18  C   UNL     1      28.798 -16.404  -2.906 -0.23 -0.00    +0.000    28.085
ATOM     19  C   UNL     1      28.247 -15.616  -3.930 -0.28 -0.00    +0.000    28.085
ATOM     20  C   UNL     1      28.781 -15.649  -5.221 -0.32 -0.00    +0.000    28.085
ATOM     21  C   UNL     1      30.766 -17.785  -7.507 -0.34 -0.00    +0.000    28.085
ATOM     22  N   UNL     1      30.442 -16.504  -6.867 -0.33 -0.00    +0.000    28.085
ATOM     23  C   UNL     1      30.688 -15.260  -7.607 -0.23 -0.00    +0.000    28.085
TER
ENDMDL
MODEL       87
USER    Run = 87
USER    Cluster Rank = 3
USER    Number of conformations in this cluster = 18
USER  
USER    RMSD from reference structure       = 25.744 A
USER  
USER    Estimated Free Energy of Binding    =  -11.54 kcal/mol  [=(1)+(2)+(3)-(4)]
USER    Estimated Inhibition Constant, Ki   =    3.49 nM (nanomolar)  [Temperature = 298.15 K]
USER    
USER    (1) Final Intermolecular Energy     =  -13.33 kcal/mol
USER        vdW + Hbond + desolv Energy     =  -13.33 kcal/mol
USER        Electrostatic Energy            =   +0.00 kcal/mol
USER    (2) Final Total Internal Energy     =   -0.84 kcal/mol
USER    (3) Torsional Free Energy           =   +1.79 kcal/mol
USER    (4) Unbound System's Energy  [=(2)] =   -0.84 kcal/mol
USER    
USER    
USER  
USER    DPF = ligand_dock.biased.dpf
USER    NEWDPF move	ligand.pdbqt
USER    NEWDPF about	-0.973000 -0.390000 0.234000
USER    NEWDPF tran0	25.696835 -15.051758 -2.714388
USER    NEWDPF axisangle0	0.837650 0.544359 0.044907 -116.459985
USER    NEWDPF quaternion0	0.712143 0.462797 0.038179 -0.526511
USER    NEWDPF dihe0	-105.56 -14.76 97.33 -85.81 -44.41 -52.51 
USER  
USER                              x       y       z    vdW   Elec        q     RMS 
ATOM      1  C   UNL     1      27.011 -15.889  -2.357 -0.38 -0.00    +0.000    25.744
ATOM      2  C   UNL     1      28.225 -16.774  -2.055 -0.31 -0.00    +0.000    25.744
ATOM      3  C   UNL     1      25.732 -16.686  -2.190 -0.55 -0.00    +0.000    25.744
ATOM      4  C   UNL     1      25.449 -17.479  -1.134 -0.65 -0.00    +0.000    25.744
ATOM      5  C   UNL     1      26.408 -17.639   0.025 -0.57 -0.00    +0.000    25.744
ATOM      6  C   UNL     1      24.131 -18.165  -1.116 -0.78 -0.00    +0.000    25.744
ATOM      7  C   UNL     1      22.965 -17.511  -1.211 -0.59 -0.00    +0.000    25.744
ATOM      8  C   UNL     1      21.649 -18.183  -1.197 -0.39 -0.00    +0.000    25.744
ATOM      9  N   UNL     1      21.451 -19.492  -1.742 -0.58 -0.00    +0.000    25.744
ATOM     10  O   UNL     1      20.253 -20.107  -1.614 -2.24 -0.00    +0.000    25.744
ATOM     11  O   UNL     1      20.666 -17.565  -0.709 -2.14 +0.00    +0.000    25.744
ATOM     12  H   UNL     1      22.188 -19.946  -2.212 -0.54 -0.00    +0.000    25.744
ATOM     13  C   UNL     1      27.118 -15.333  -3.763 -0.41 -0.00    +0.000    25.744
ATOM     14  O   UNL     1      27.830 -15.941  -4.611 -0.53 -0.00    +0.000    25.744
ATOM     15  C   UNL     1      25.189 -11.648  -4.942 -0.31 -0.00    +0.000    25.744
ATOM     16  C   UNL     1      26.587 -11.800  -5.023 -0.22 -0.00    +0.000    25.744
ATOM     17  C   UNL     1      27.202 -12.994  -4.639 -0.23 -0.00    +0.000    25.744
ATOM     18  C   UNL     1      26.439 -14.075  -4.170 -0.39 -0.00    +0.000    25.744
ATOM     19  C   UNL     1      25.046 -13.927  -4.076 -0.40 -0.00    +0.000    25.744
ATOM     20  C   UNL     1      24.429 -12.732  -4.458 +0.07 -0.00    +0.000    25.744
ATOM     21  C   UNL     1      24.005 -10.250  -6.696 -0.48 -0.00    +0.000    25.744
ATOM     22  N   UNL     1      24.549 -10.408  -5.342 -0.40 -0.00    +0.000    25.744
ATOM     23  C   UNL     1      24.433  -9.289  -4.397 -0.33 -0.00    +0.000    25.744
TER
ENDMDL
MODEL        4
USER    Run = 4
USER    Cluster Rank = 4
USER    Number of conformations in this cluster = 3
USER  
USER    RMSD from reference structure       = 27.056 A
USER  
USER    Estimated Free Energy of Binding    =  -11.16 kcal/mol  [=(1)+(2)+(3)-(4)]
USER    Estimated Inhibition Constant, Ki   =    6.65 nM (nanomolar)  [Temperature = 298.15 K]
USER    
USER    (1) Final Intermolecular Energy     =  -12.95 kcal/mol
USER        vdW + Hbond + desolv Energy     =  -12.95 kcal/mol
USER        Electrostatic Energy            =   +0.00 kcal/mol
USER    (2) Final Total Internal Energy     =   -0.79 kcal/mol
USER    (3) Torsional Free Energy           =   +1.79 kcal/mol
USER    (4) Unbound System's Energy  [=(2)] =   -0.79 kcal/mol
USER    
USER    
USER  
USER    DPF = ligand_dock.biased.dpf
USER    NEWDPF move	ligand.pdbqt
USER    NEWDPF about	-0.973000 -0.390000 0.234000
USER    NEWDPF tran0	24.484977 -14.908670 -1.834942
USER    NEWDPF axisangle0	-0.888581 -0.456400 -0.046085 133.269996
USER    NEWDPF quaternion0	-0.815714 -0.418974 -0.042306 0.396587
USER    NEWDPF dihe0	131.20 -110.88 -51.11 -85.01 -40.62 81.11 
USER  
USER                              x       y       z    vdW   Elec        q     RMS 
ATOM      1  C   UNL     1      25.673 -15.979  -1.865 -0.53 -0.00    +0.000    27.056
ATOM      2  C   UNL     1      26.750 -17.064  -1.954 -0.31 -0.00    +0.000    27.056
ATOM      3  C   UNL     1      24.297 -16.615  -1.815 -0.48 -0.00    +0.000    27.056
ATOM      4  C   UNL     1      23.932 -17.597  -0.963 -0.75 -0.00    +0.000    27.056
ATOM      5  C   UNL     1      24.889 -18.162   0.063 -0.64 -0.00    +0.000    27.056
ATOM      6  C   UNL     1      22.530 -18.085  -1.028 -0.78 -0.00    +0.000    27.056
ATOM      7  C   UNL     1      22.163 -19.308  -0.622 -0.76 -0.00    +0.000    27.056
ATOM      8  C   UNL     1      20.771 -19.804  -0.679 -0.77 -0.00    +0.000    27.056
ATOM      9  N   UNL     1      20.116 -20.383   0.456 -0.71 -0.00    +0.000    27.056
ATOM     10  O   UNL     1      18.810 -20.727   0.383 -0.90 -0.00    +0.000    27.056
ATOM     11  O   UNL     1      20.154 -19.734  -1.775 -2.36 -0.00    +0.000    27.056
ATOM     12  H   UNL     1      20.618 -20.531   1.291 -0.50 -0.00    +0.000    27.056
ATOM     13  C   UNL     1      25.788 -15.043  -3.052 -0.51 -0.00    +0.000    27.056
ATOM     14  O   UNL     1      24.774 -14.382  -3.413 -0.84 -0.00    +0.000    27.056
ATOM     15  C   UNL     1      29.429 -14.666  -5.352 -0.21 -0.00    +0.000    27.056
ATOM     16  C   UNL     1      28.222 -15.072  -5.955 -0.35 -0.00    +0.000    27.056
ATOM     17  C   UNL     1      27.051 -15.192  -5.204 -0.43 +0.00    +0.000    27.056
ATOM     18  C   UNL     1      27.046 -14.902  -3.831 -0.36 -0.00    +0.000    27.056
ATOM     19  C   UNL     1      28.249 -14.508  -3.221 -0.17 -0.00    +0.000    27.056
ATOM     20  C   UNL     1      29.422 -14.389  -3.970 -0.11 -0.00    +0.000    27.056
ATOM     21  C   UNL     1      30.856 -15.362  -7.330 -0.27 -0.00    +0.000    27.056
ATOM     22  N   UNL     1      30.647 -14.540  -6.132 -0.14 -0.00    +0.000    27.056
ATOM     23  C   UNL     1      31.692 -13.587  -5.736 -0.05 -0.00    +0.000    27.056
TER
ENDMDL
MODEL       76
USER    Run = 76
USER    Cluster Rank = 5
USER    Number of conformations in this cluster = 3
USER  
USER    RMSD from reference structure       = 26.733 A
USER  
USER    Estimated Free Energy of Binding    =  -10.96 kcal/mol  [=(1)+(2)+(3)-(4)]
USER    Estimated Inhibition Constant, Ki   =    9.19 nM (nanomolar)  [Temperature = 298.15 K]
USER    
USER    (1) Final Intermolecular Energy     =  -12.75 kcal/mol
USER        vdW + Hbond + desolv Energy     =  -12.75 kcal/mol
USER        Electrostatic Energy            =   +0.00 kcal/mol
USER    (2) Final Total Internal Energy     =   -0.81 kcal/mol
USER    (3) Torsional Free Energy           =   +1.79 kcal/mol
USER    (4) Unbound System's Energy  [=(2)] =   -0.81 kcal/mol
USER    
USER    
USER  
USER    DPF = ligand_dock.biased.dpf
USER    NEWDPF move	ligand.pdbqt
USER    NEWDPF about	-0.973000 -0.390000 0.234000
USER    NEWDPF tran0	25.308623 -15.612144 -2.524060
USER    NEWDPF axisangle0	0.724163 0.668606 0.168979 -62.160756
USER    NEWDPF quaternion0	0.373842 0.345161 0.087234 -0.856444
USER    NEWDPF dihe0	156.65 16.79 157.00 143.18 -143.03 -16.72 
USER  
USER                              x       y       z    vdW   Elec        q     RMS 
ATOM      1  C   UNL     1      26.191 -15.495  -1.195 -0.43 -0.00    +0.000    26.733
ATOM      2  C   UNL     1      27.014 -15.483   0.096 -0.33 -0.00    +0.000    26.733
ATOM      3  C   UNL     1      24.978 -16.390  -1.030 -0.56 -0.00    +0.000    26.733
ATOM      4  C   UNL     1      25.014 -17.664  -0.582 -0.69 -0.00    +0.000    26.733
ATOM      5  C   UNL     1      26.310 -18.333  -0.180 -0.63 -0.00    +0.000    26.733
ATOM      6  C   UNL     1      23.724 -18.389  -0.450 -0.79 -0.00    +0.000    26.733
ATOM      7  C   UNL     1      22.548 -17.862  -0.819 -0.79 -0.00    +0.000    26.733
ATOM      8  C   UNL     1      21.260 -18.575  -0.695 -0.85 -0.00    +0.000    26.733
ATOM      9  N   UNL     1      21.168 -19.909  -0.181 -0.64 -0.00    +0.000    26.733
ATOM     10  O   UNL     1      19.956 -20.481   0.010 -1.19 -0.00    +0.000    26.733
ATOM     11  O   UNL     1      20.212 -17.992  -1.080 -2.10 -0.00    +0.000    26.733
ATOM     12  H   UNL     1      21.988 -20.411   0.033 -0.56 -0.00    +0.000    26.733
ATOM     13  C   UNL     1      27.052 -15.968  -2.350 -0.38 -0.00    +0.000    26.733
ATOM     14  O   UNL     1      27.588 -17.109  -2.288 -0.35 -0.00    +0.000    26.733
ATOM     15  C   UNL     1      27.778 -13.472  -5.805 -0.23 -0.00    +0.000    26.733
ATOM     16  C   UNL     1      26.811 -13.124  -4.841 -0.27 -0.00    +0.000    26.733
ATOM     17  C   UNL     1      26.582 -13.936  -3.728 -0.34 -0.00    +0.000    26.733
ATOM     18  C   UNL     1      27.318 -15.117  -3.539 -0.32 -0.00    +0.000    26.733
ATOM     19  C   UNL     1      28.275 -15.477  -4.502 -0.31 -0.00    +0.000    26.733
ATOM     20  C   UNL     1      28.504 -14.666  -5.617 -0.33 -0.00    +0.000    26.733
ATOM     21  C   UNL     1      27.212 -11.421  -7.185 -0.19 -0.00    +0.000    26.733
ATOM     22  N   UNL     1      28.017 -12.628  -6.961 -0.22 -0.00    +0.000    26.733
ATOM     23  C   UNL     1      29.069 -12.967  -7.928 -0.26 -0.00    +0.000    26.733
TER
ENDMDL
MODEL       59
USER    Run = 59
USER    Cluster Rank = 6
USER    Number of conformations in this cluster = 1
USER  
USER    RMSD from reference structure       = 27.767 A
USER  
USER    Estimated Free Energy of Binding    =  -10.48 kcal/mol  [=(1)+(2)+(3)-(4)]
USER    Estimated Inhibition Constant, Ki   =   20.74 nM (nanomolar)  [Temperature = 298.15 K]
USER    
USER    (1) Final Intermolecular Energy     =  -12.27 kcal/mol
USER        vdW + Hbond + desolv Energy     =  -12.27 kcal/mol
USER        Electrostatic Energy            =   +0.00 kcal/mol
USER    (2) Final Total Internal Energy     =   -1.10 kcal/mol
USER    (3) Torsional Free Energy           =   +1.79 kcal/mol
USER    (4) Unbound System's Energy  [=(2)] =   -1.10 kcal/mol
USER    
USER    
USER  
USER    DPF = ligand_dock.biased.dpf
USER    NEWDPF move	ligand.pdbqt
USER    NEWDPF about	-0.973000 -0.390000 0.234000
USER    NEWDPF tran0	26.080007 -17.573801 -1.032395
USER    NEWDPF axisangle0	0.946508 0.302469 -0.112403 97.492953
USER    NEWDPF quaternion0	0.711584 0.227396 -0.084505 0.659392
USER    NEWDPF dihe0	-135.63 21.62 178.38 135.05 92.42 -8.55 
USER  
USER                              x       y       z    vdW   Elec        q     RMS 
ATOM      1  C   UNL     1      25.837 -16.564  -2.248 -0.53 -0.00    +0.000    27.767
ATOM      2  C   UNL     1      25.513 -15.576  -3.373 -0.57 -0.00    +0.000    27.767
ATOM      3  C   UNL     1      24.586 -17.314  -1.837 -0.65 -0.00    +0.000    27.767
ATOM      4  C   UNL     1      24.515 -18.198  -0.819 -0.76 -0.00    +0.000    27.767
ATOM      5  C   UNL     1      25.716 -18.523   0.042 -0.56 -0.00    +0.000    27.767
ATOM      6  C   UNL     1      23.198 -18.821  -0.531 -0.79 -0.00    +0.000    27.767
ATOM      7  C   UNL     1      22.234 -18.952  -1.454 -0.71 -0.00    +0.000    27.767
ATOM      8  C   UNL     1      20.921 -19.572  -1.180 -0.79 -0.00    +0.000    27.767
ATOM      9  N   UNL     1      20.539 -20.014   0.128 -0.72 -0.00    +0.000    27.767
ATOM     10  O   UNL     1      19.288 -20.480   0.349 -0.97 -0.00    +0.000    27.767
ATOM     11  O   UNL     1      20.123 -19.738  -2.141 -2.33 -0.00    +0.000    27.767
ATOM     12  H   UNL     1      21.188 -19.978   0.868 -0.51 -0.00    +0.000    27.767
ATOM     13  C   UNL     1      26.430 -15.821  -1.067 -0.43 -0.00    +0.000    27.767
ATOM     14  O   UNL     1      25.702 -15.016  -0.421 -0.41 -0.00    +0.000    27.767
ATOM     15  C   UNL     1      30.561 -16.335   0.098 -0.12 -0.00    +0.000    27.767
ATOM     16  C   UNL     1      29.910 -17.276  -0.724 -0.20 -0.00    +0.000    27.767
ATOM     17  C   UNL     1      28.575 -17.103  -1.094 -0.29 -0.00    +0.000    27.767
ATOM     18  C   UNL     1      27.851 -15.980  -0.664 -0.29 -0.00    +0.000    27.767
ATOM     19  C   UNL     1      28.490 -15.043   0.165 -0.20 -0.00    +0.000    27.767
ATOM     20  C   UNL     1      29.826 -15.216   0.539 -0.11 -0.00    +0.000    27.767
ATOM     21  C   UNL     1      33.015 -16.482  -0.526 -0.04 -0.00    +0.000    27.767
ATOM     22  N   UNL     1      31.950 -16.513   0.484 -0.11 -0.00    +0.000    27.767
ATOM     23  C   UNL     1      32.312 -16.728   1.890 -0.19 -0.00    +0.000    27.767
TER
ENDMDL


AVSFLD: # AVS field file
AVSFLD: #
AVSFLD: # Created by AutoDock
AVSFLD: #
AVSFLD: ndim=2           # number of dimensions in the field
AVSFLD: nspace=1         # number of physical coordinates
AVSFLD: veclen=7         # vector size
AVSFLD: dim1=23          # atoms
AVSFLD: dim2=6           # conformations
AVSFLD: data=Real       # data type (byte,integer,Real,double)
AVSFLD: field=uniform    # field coordinate layout
AVSFLD: label= x y z vdW Elec q RMS
AVSFLD: variable 1 file = ligand_dock.biased.dlg.pdb filetype = ascii offset = 5 stride = 12
AVSFLD: variable 2 file = ligand_dock.biased.dlg.pdb filetype = ascii offset = 6 stride = 12
AVSFLD: variable 3 file = ligand_dock.biased.dlg.pdb filetype = ascii offset = 7 stride = 12
AVSFLD: variable 4 file = ligand_dock.biased.dlg.pdb filetype = ascii offset = 8 stride = 12
AVSFLD: variable 5 file = ligand_dock.biased.dlg.pdb filetype = ascii offset = 9 stride = 12
AVSFLD: variable 6 file = ligand_dock.biased.dlg.pdb filetype = ascii offset = 10 stride = 12
AVSFLD: variable 7 file = ligand_dock.biased.dlg.pdb filetype = ascii offset = 11 stride = 12
AVSFLD: # end of file

>>> Closing the docking parameter file (DPF)...
This docking finished at:			11:16 16" a.m., 11/08/2024


________________________________________________________________________________

autodock4: Successful Completion on "ThinkStation-P620"

Real= 10m 57.46s,  CPU= 10m 57.24s,  System= 0.16s
________________________________________________________________________________

