          AutoDock 4.2 Release 4.2.6   
         (C) 1989-2012 The Scripps Research Institute
        AutoDock comes with ABSOLUTELY NO WARRANTY.
        AutoDock is free software, and you are welcome
        to redistribute it under certain conditions;
        for details type 'autodock4 -C'

                     main.cc  $Revision: 1.213 $

                   Compiled on Feb 20 2022 at 09:48:33


This file was created at:			6:39 07" p.m., 11/08/2024
                   on host:		"ThinkStation-P620"
Current Working Directory = "/home/antonio/Documenti/buccheri/IDROSSAMICO HDAC/HDAC 8/P (copia)/Ligand_5"

      ________________________________________________________________

                   SETTING UP DEFAULT PARAMETER LIBRARY
      ________________________________________________________________


Random number generator was seeded with values 358154, 1731087547.
Docking parameter file (DPF) used for this docking:		ligand_dock.biased.dpf
DPF> parameter_file ad4_arom_params.dat

Using read_parameter_library() to try to open and read "ad4_arom_params.dat".

DPF> autodock_parameter_version 4.2       # used by autodock to validate parameter set

	Autodock parameter version 4.2.
DPF> outlev 1                             # diagnostic output level

Output Level = 1  ADT-COMPATIBLE OUTPUT DURING DOCKING.
DPF> intelec                              # calculate internal electrostatics

Electrostatic energies will be calculated for all non-bonds between moving atoms.
DPF> seed pid time                        # seeds for random generator

Random number generator was seeded with values 358154, 1731087547.
DPF> ligand_types A C HD OA N AC

WARNING: pairwise distance, Rij, 0.00, is not a very reasonable value for the equilibrium separation of two atoms! (0.90 Angstroms <= Rij <= 6.00 Angstroms)

Perhaps you meant to use "intnbp_coeffs" instead of "intnbp_r_eps"?

DPF> fld receptor.maps.fld                # grid_data_file

Opening Grid Map Dimensions file:		receptor.maps.fld
Grid Point Spacing =				0.375 Angstroms

Even Number of User-specified Grid Points =	70 x-points
						70 y-points
						70 z-points

Coordinates of Central Grid Point of Maps =	(36.691, 12.592, 124.207)
Macromolecule file used to create Grid Maps =	receptor.pdbqt
Grid Parameter file used to create Grid Maps =	receptor.gpf
Minimum coordinates in grid = (23.566, -0.533, 111.082)
Maximum coordinates in grid = (49.816, 25.717, 137.332)

DPF> map receptor.A.map                   # atom-specific affinity map

DPF> map receptor.C.map                   # atom-specific affinity map

DPF> map receptor.HD.map                  # atom-specific affinity map

DPF> map receptor.OA.biased.map

DPF> map receptor.N.map                   # atom-specific affinity map

DPF> map receptor.AC.biased.map

DPF> elecmap receptor.e.map               # electrostatics map

DPF> desolvmap receptor.d.map             # desolvation map

DPF> move ligand.dum.pdbqt

1,4-interactions will be _ignored_ in the non-bonded internal energy calculation.

Ligand PDBQT file = "ligand.dum.pdbqt"

INPUT LIGAND PDBQT FILE:
________________________

INPUT-LIGAND-PDBQT: REMARK  Name = 
INPUT-LIGAND-PDBQT: REMARK  7 active torsions:
INPUT-LIGAND-PDBQT: REMARK  status: ('A' for Active; 'I' for Inactive)
INPUT-LIGAND-PDBQT: REMARK    1  A    between atoms: C_2  and  C_5
INPUT-LIGAND-PDBQT: REMARK    2  A    between atoms: N_3  and  O_4
INPUT-LIGAND-PDBQT: REMARK    3  A    between atoms: C_5  and  C_6
INPUT-LIGAND-PDBQT: REMARK    4  A    between atoms: C_6  and  C_7
INPUT-LIGAND-PDBQT: REMARK    5  A    between atoms: C_7  and  C_8
INPUT-LIGAND-PDBQT: REMARK    6  A    between atoms: C_8  and  C_9
INPUT-LIGAND-PDBQT: REMARK    7  A    between atoms: C_9  and  N_10
INPUT-LIGAND-PDBQT: REMARK                            x       y       z     vdW  Elec       q    Type
INPUT-LIGAND-PDBQT: REMARK                         _______ _______ _______ _____ _____    ______ ____
INPUT-LIGAND-PDBQT: ROOT
INPUT-LIGAND-PDBQT: ATOM      1  N   UNL     1      -0.462  -0.610  -1.306  0.00  0.00     0.000 N 
INPUT-LIGAND-PDBQT: ATOM      2  C   UNL     1      -1.172   0.455  -1.967  0.00  0.00     0.000 C 
INPUT-LIGAND-PDBQT: ATOM      3  C   UNL     1      -2.510   0.867  -1.484  0.00  0.00     0.000 A 
INPUT-LIGAND-PDBQT: ATOM      4  C   UNL     1      -3.200   1.922  -2.107  0.00  0.00     0.000 A 
INPUT-LIGAND-PDBQT: ATOM      5  C   UNL     1      -4.460   2.313  -1.651  0.00  0.00     0.000 A 
INPUT-LIGAND-PDBQT: ATOM      6  C   UNL     1      -5.051   1.659  -0.570  0.00  0.00     0.000 A 
INPUT-LIGAND-PDBQT: ATOM      7  C   UNL     1      -4.383   0.604   0.067  0.00  0.00     0.000 A 
INPUT-LIGAND-PDBQT: ATOM      8  C   UNL     1      -4.978  -0.054   1.153  0.00  0.00     0.000 A 
INPUT-LIGAND-PDBQT: ATOM      9  C   UNL     1      -4.315  -1.105   1.785  0.00  0.00     0.000 A 
INPUT-LIGAND-PDBQT: ATOM     10  C   UNL     1      -3.055  -1.511   1.344  0.00  0.00     0.000 A 
INPUT-LIGAND-PDBQT: ATOM     11  C   UNL     1      -2.437  -0.867   0.257  0.00  0.00     0.000 A 
INPUT-LIGAND-PDBQT: ATOM     12  C   UNL     1      -3.102   0.199  -0.389  0.00  0.00     0.000 A 
INPUT-LIGAND-PDBQT: ATOM     13  O   UNL     1      -0.655   1.038  -2.960  0.00  0.00     0.000 OA
INPUT-LIGAND-PDBQT: ATOM     14  C   UNL     1      -1.099  -1.297  -0.210  0.00  0.00     0.000 C 
INPUT-LIGAND-PDBQT: ATOM     15  O   UNL     1      -0.521  -2.266   0.354  0.00  0.00     0.000 OA
INPUT-LIGAND-PDBQT: ATOM     27  CM  UNL     1      -1.761  -0.220  -0.862  1.00  0.00     0.000 AC
INPUT-LIGAND-PDBQT: ATOM     28  CM  UNL     1      -3.784   1.261  -1.022  1.00  0.00     0.000 AC
INPUT-LIGAND-PDBQT: ATOM     29  CM  UNL     1      -3.712  -0.456   0.703  1.00  0.00     0.000 AC
INPUT-LIGAND-PDBQT: ENDROOT
INPUT-LIGAND-PDBQT: BRANCH   1  16
INPUT-LIGAND-PDBQT: ATOM     16  C   UNL     1       0.905  -0.960  -1.727  0.00  0.00     0.000 C 
INPUT-LIGAND-PDBQT: BRANCH  16  17
INPUT-LIGAND-PDBQT: ATOM     17  C   UNL     1       1.933   0.065  -1.218  0.00  0.00     0.000 C 
INPUT-LIGAND-PDBQT: BRANCH  17  18
INPUT-LIGAND-PDBQT: ATOM     18  C   UNL     1       2.051   0.132   0.317  0.00  0.00     0.000 C 
INPUT-LIGAND-PDBQT: BRANCH  18  19
INPUT-LIGAND-PDBQT: ATOM     19  C   UNL     1       2.681  -1.115   0.971  0.00  0.00     0.000 C 
INPUT-LIGAND-PDBQT: BRANCH  19  20
INPUT-LIGAND-PDBQT: ATOM     20  C   UNL     1       4.160  -1.342   0.620  0.00  0.00     0.000 C 
INPUT-LIGAND-PDBQT: BRANCH  20  22
INPUT-LIGAND-PDBQT: ATOM     21  O   UNL     1       5.352  -0.136   2.304  0.00  0.00     0.000 OA
INPUT-LIGAND-PDBQT: ATOM     22  C   UNL     1       5.030  -0.211   1.088  0.00  0.00     0.000 C 
INPUT-LIGAND-PDBQT: ATOM     23  N   UNL     1       5.465   0.796   0.171  0.00  0.00     0.000 N 
INPUT-LIGAND-PDBQT: ATOM     24  H   UNL     1       5.205   0.739  -0.776  0.00  0.00     0.000 HD
INPUT-LIGAND-PDBQT: BRANCH  23  25
INPUT-LIGAND-PDBQT: ATOM     25  O   UNL     1       6.231   1.829   0.596  0.00  0.00     0.000 OA
INPUT-LIGAND-PDBQT: ATOM     26  H   UNL     1       6.397   1.739   1.548  0.00  0.00     0.000 HD
INPUT-LIGAND-PDBQT: ENDBRANCH  23  25
INPUT-LIGAND-PDBQT: ENDBRANCH  20  22
INPUT-LIGAND-PDBQT: ENDBRANCH  19  20
INPUT-LIGAND-PDBQT: ENDBRANCH  18  19
INPUT-LIGAND-PDBQT: ENDBRANCH  17  18
INPUT-LIGAND-PDBQT: ENDBRANCH  16  17
INPUT-LIGAND-PDBQT: ENDBRANCH   1  16
INPUT-LIGAND-PDBQT: TORSDOF 7________________________________________________________________________________

Total charge on ligand                               =	+0.000 e
REMARK  Name = 
REMARK  7 active torsions:
REMARK  status: ('A' for Active; 'I' for Inactive)
REMARK    1  A    between atoms: C_2  and  C_5
REMARK    2  A    between atoms: N_3  and  O_4
REMARK    3  A    between atoms: C_5  and  C_6
REMARK    4  A    between atoms: C_6  and  C_7
REMARK    5  A    between atoms: C_7  and  C_8
REMARK    6  A    between atoms: C_8  and  C_9
REMARK    7  A    between atoms: C_9  and  N_10
REMARK                            x       y       z     vdW  Elec       q    Type
REMARK                         _______ _______ _______ _____ _____    ______ ____


Number of Rotatable Bonds in Small Molecule =	7 torsions
Number of atoms in ligand:  29

Number of non-hydrogen atoms in ligand:  27

Number of vibrational degrees of freedom of ligand:  81


Number of torsional degrees of freedom = 7
Estimated loss of torsional free energy upon binding = +2.0881 kcal/mol


DPF> about 0.154 0.111 -0.146            # small molecule center

Small molecule center of rotation =	(+0.154, +0.111, -0.146)

DPF> tran0 random                         # initial coordinates/A or random

Initial translation =			(45.352, 24.619, 126.958) Angstroms
DPF> quaternion0 random                   # initial orientation

Each run will begin with a new, random initial orientation.
Initial quaternion,  (x,y,z,w) =	( -0.316, 0.151, 0.639, 0.685 ),
DPF> dihe0 random                         # initial dihedrals (relative) or random

DPF> torsdof 7                            # torsional degrees of freedom

Number of torsional degrees of freedom = 7
Free energy coefficient for torsional degrees of freedom = 0.2983 as specified in parameter library "ad4_arom_params.dat".

Estimated loss of torsional free energy upon binding = +2.0881 kcal/mol

DPF> rmstol 2.0                           # cluster_tolerance/A

Maximum RMS tolerance for conformational cluster analysis = 2.00 Angstroms
DPF> extnrg 1000.0                        # external grid energy

External grid energy (beyond grid map walls) = 1000.00

DPF> e0max 0.0 10000                      # max initial energy; max number of retries

Using user-specified maximum number of retries for simanneal initialization, 10000 retries.
If the simanneal initial energy is greater than e0max, 0.000,
then a new, random initial state will be created.

DPF> ga_pop_size 150                      # number of individuals in population

A population of 150 individuals will be used
DPF> ga_num_evals 2500000                 # maximum number of energy evaluations

There will be at most 2500000 function evaluations used.
DPF> ga_num_generations 27000             # maximum number of generations

The GA will run for at most 27000 generations.
DPF> ga_elitism 1                         # number of top individuals to survive to next generation

The 1 best will be preserved each GA generation.
DPF> ga_mutation_rate 0.02                # rate of gene mutation

The mutation rate is 0.020000.
DPF> ga_crossover_rate 0.8                # rate of crossover

The crossover rate is 0.800000.
DPF> ga_window_size 10                    # 

The GA's selection window is 10 generations.
DPF> ga_cauchy_alpha 0.0                  # Alpha parameter of Cauchy distribution

The alpha parameter (for the Cauchy distribution) is being set to 0.000000.
DPF> ga_cauchy_beta 1.0                   # Beta parameter Cauchy distribution

The beta parameter (for the Cauchy distribution) is being set to 1.000000.
DPF> set_ga                               # set the above parameters for GA or LGA

DPF> sw_max_its 300                       # iterations of Solis & Wets local search

Solis & Wets algorithms will perform at most 300 iterations.
DPF> sw_max_succ 4                        # consecutive successes before changing rho

Solis & Wets algorithms expand rho every 4 in a row successes.
DPF> sw_max_fail 4                        # consecutive failures before changing rho

Solis & Wets algorithms contract rho every 4 in a row failures.
DPF> sw_rho 1.0                           # size of local search space to sample

rho is set to 1.000000.
DPF> sw_lb_rho 0.01                       # lower bound on rho

rho will never get smaller than 0.010000.
DPF> ls_search_freq 0.06                  # probability of performing local search on individual

Local search will be performed with frequency 0.060000.
DPF> set_psw1                             # set the above pseudo-Solis & Wets parameters

Creating a new Local Search object using the pseudo-Solis-Wets algorithm (pSW1) with the current settings.

DPF> unbound_model bound                  # state of unbound ligand

DPF> ga_run 100                           # do this many hybrid GA-LS runs

centering ligand on specified point: 0.154 0.111 -0.146
Furthest true ligand atom from "about" center is 6.670 Angstroms (maxrad).
Number of requested GA dockings = 100 runs
Unbound model to be used is 'same as bound' [AutoDock 4.2 default].

	BEGINNING GENETIC ALGORITHM DOCKING 1 of 100
Run: 1 Seed: 156865137 1752260545 [ Run 1 of 100 GA/GALS ]
Beginning LAMARCKIAN GENETIC ALGORITHM (LGA), with a maximum of 2500000 energy evaluations.

Final-Value: -14.596


	FINAL GENETIC ALGORITHM DOCKED STATE
	_______________________________________________


Detailed state:  trans 40.250 13.583 120.598 quatxyzw -0.274530 0.514583 -0.673277 -0.454462 center 0.154 0.111 -0.146 ntor 7 3.0048 132.2183 62.8473 -32.8106 -164.8619 -164.1369 166.5218
State:	 40.250  13.583 120.598  -0.308  0.578 -0.756 -125.939      3.00  132.22   62.85  -32.81 -164.86 -164.14  166.52

DOCKED: MODEL        1
DOCKED: USER    Run = 1
DOCKED: USER    DPF = ligand_dock.biased.dpf
DOCKED: USER  
DOCKED: USER    Estimated Free Energy of Binding    =  -11.21 kcal/mol  [=(1)+(2)+(3)-(4)]
DOCKED: USER    Estimated Inhibition Constant, Ki   =    6.03 nM (nanomolar)  [Temperature = 298.15 K]
DOCKED: USER    
DOCKED: USER    (1) Final Intermolecular Energy     =  -13.30 kcal/mol
DOCKED: USER        vdW + Hbond + desolv Energy     =  -13.30 kcal/mol
DOCKED: USER        Electrostatic Energy            =   +0.00 kcal/mol
DOCKED: USER    (2) Final Total Internal Energy     =   -1.29 kcal/mol
DOCKED: USER    (3) Torsional Free Energy           =   +2.09 kcal/mol
DOCKED: USER    (4) Unbound System's Energy  [=(2)] =   -1.29 kcal/mol
DOCKED: USER    
DOCKED: USER    
DOCKED: USER    NEWDPF move ligand.dum.pdbqt
DOCKED: USER    NEWDPF about 0.154000 0.111000 -0.146000
DOCKED: USER    NEWDPF tran0 40.249548 13.582706 120.598206
DOCKED: USER    NEWDPF quaternion0 -0.274530 0.514583 -0.673277 -0.454462
DOCKED: USER    NEWDPF axisangle0 -0.308196 0.577686 -0.755840 -125.939361
DOCKED: USER    NEWDPF quat0 -0.308196 0.577686 -0.755840 -125.939361
DOCKED: USER    NEWDPF dihe0 3.00 132.22 62.85 -32.81 -164.86 -164.14 166.52 
DOCKED: USER  keepresnum = 1 
DOCKED: USER  
DOCKED: REMARK  Name = 
DOCKED: REMARK  7 active torsions:
DOCKED: REMARK  status: ('A' for Active; 'I' for Inactive)
DOCKED: REMARK    1  A    between atoms: C_2  and  C_5
DOCKED: REMARK    2  A    between atoms: N_3  and  O_4
DOCKED: REMARK    3  A    between atoms: C_5  and  C_6
DOCKED: REMARK    4  A    between atoms: C_6  and  C_7
DOCKED: REMARK    5  A    between atoms: C_7  and  C_8
DOCKED: REMARK    6  A    between atoms: C_8  and  C_9
DOCKED: REMARK    7  A    between atoms: C_9  and  N_10
DOCKED: REMARK                            x       y       z     vdW  Elec       q    Type
DOCKED: REMARK                         _______ _______ _______ _____ _____    ______ ____
DOCKED: USER                              x       y       z     vdW  Elec       q    Type
DOCKED: USER                           _______ _______ _______ _____ _____    ______ ____
DOCKED: ROOT
DOCKED: ATOM      1  N   UNL     1      39.309  14.689 120.967 -0.30 -0.00    +0.000 N 
DOCKED: ATOM      2  C   UNL     1      39.416  15.556 119.822 -0.19 -0.00    +0.000 C 
DOCKED: ATOM      3  C   UNL     1      40.540  16.516 119.719 -0.12 -0.00    +0.000 A 
DOCKED: ATOM      4  C   UNL     1      40.667  17.348 118.593 -0.07 -0.00    +0.000 A 
DOCKED: ATOM      5  C   UNL     1      41.727  18.251 118.494 -0.03 -0.00    +0.000 A 
DOCKED: ATOM      6  C   UNL     1      42.675  18.338 119.514 -0.04 -0.00    +0.000 A 
DOCKED: ATOM      7  C   UNL     1      42.569  17.518 120.647 -0.11 -0.00    +0.000 A 
DOCKED: ATOM      8  C   UNL     1      43.522  17.607 121.672 -0.19 -0.00    +0.000 A 
DOCKED: ATOM      9  C   UNL     1      43.415  16.794 122.800 -0.35 -0.00    +0.000 A 
DOCKED: ATOM     10  C   UNL     1      42.363  15.885 122.918 -0.40 -0.00    +0.000 A 
DOCKED: ATOM     11  C   UNL     1      41.395  15.778 121.903 -0.34 -0.00    +0.000 A 
DOCKED: ATOM     12  C   UNL     1      41.495  16.598 120.757 -0.16 -0.00    +0.000 A 
DOCKED: ATOM     13  O   UNL     1      38.551  15.501 118.904 -0.19 -0.00    +0.000 OA
DOCKED: ATOM     14  C   UNL     1      40.279  14.813 122.028 -0.42 -0.00    +0.000 C 
DOCKED: ATOM     15  O   UNL     1      40.180  14.101 123.064 -0.83 -0.00    +0.000 OA
DOCKED: ATOM     16  CM  UNL     1      40.376  15.632 120.869 +0.00 -0.00    +0.000 AC
DOCKED: ATOM     17  CM  UNL     1      41.613  17.428 119.620 +0.00 -0.00    +0.000 AC
DOCKED: ATOM     18  CM  UNL     1      42.460  16.697 121.783 +0.00 -0.00    +0.000 AC
DOCKED: ENDROOT
DOCKED: BRANCH   1  16
DOCKED: ATOM     19  C   UNL     1      38.245  13.673 121.029 -0.41 -0.00    +0.000 C 
DOCKED: BRANCH  16  17
DOCKED: ATOM     20  C   UNL     1      37.290  13.926 122.208 -0.46 -0.00    +0.000 C 
DOCKED: BRANCH  17  18
DOCKED: ATOM     21  C   UNL     1      37.560  13.041 123.440 -0.53 -0.00    +0.000 C 
DOCKED: BRANCH  18  19
DOCKED: ATOM     22  C   UNL     1      36.692  11.769 123.524 -0.70 -0.00    +0.000 C 
DOCKED: BRANCH  19  20
DOCKED: ATOM     23  C   UNL     1      36.335  11.148 122.164 -0.64 -0.00    +0.000 C 
DOCKED: BRANCH  20  22
DOCKED: ATOM     24  O   UNL     1      37.060   9.212 120.965 -2.74 -0.00    +0.000 OA
DOCKED: ATOM     25  C   UNL     1      36.741   9.704 122.080 -0.67 -0.00    +0.000 C 
DOCKED: ATOM     26  N   UNL     1      36.734   8.881 123.248 -0.64 -0.00    +0.000 N 
DOCKED: ATOM     27  H   UNL     1      36.477   9.266 124.116 -0.40 -0.00    +0.000 HD
DOCKED: BRANCH  23  25
DOCKED: ATOM     28  O   UNL     1      37.078   7.573 123.170 -2.26 -0.00    +0.000 OA
DOCKED: ATOM     29  H   UNL     1      37.349   7.363 122.262 -0.13 -0.00    +0.000 HD
DOCKED: ENDBRANCH  23  25
DOCKED: ENDBRANCH  20  22
DOCKED: ENDBRANCH  19  20
DOCKED: ENDBRANCH  18  19
DOCKED: ENDBRANCH  17  18
DOCKED: ENDBRANCH  16  17
DOCKED: ENDBRANCH   1  16
DOCKED: TORSDOF 7DOCKED: TER
DOCKED: ENDMDL
________________________________________________________________________________


	BEGINNING GENETIC ALGORITHM DOCKING 2 of 100
Run: 2 Seed: 1782264415 2057625305 [ Run 2 of 100 GA/GALS ]
Beginning LAMARCKIAN GENETIC ALGORITHM (LGA), with a maximum of 2500000 energy evaluations.

Final-Value: -14.975


	FINAL GENETIC ALGORITHM DOCKED STATE
	_______________________________________________


Detailed state:  trans 35.419 15.618 122.495 quatxyzw -0.501121 0.794041 0.085726 -0.333207 center 0.154 0.111 -0.146 ntor 7 9.8484 180.0000 -146.9343 -114.6558 -119.5880 -158.4197 171.8892
State:	 35.419  15.618 122.495  -0.531  0.842  0.091 -141.073      9.85  180.00 -146.93 -114.66 -119.59 -158.42  171.89

DOCKED: MODEL        2
DOCKED: USER    Run = 2
DOCKED: USER    DPF = ligand_dock.biased.dpf
DOCKED: USER  
DOCKED: USER    Estimated Free Energy of Binding    =  -11.52 kcal/mol  [=(1)+(2)+(3)-(4)]
DOCKED: USER    Estimated Inhibition Constant, Ki   =    3.59 nM (nanomolar)  [Temperature = 298.15 K]
DOCKED: USER    
DOCKED: USER    (1) Final Intermolecular Energy     =  -13.61 kcal/mol
DOCKED: USER        vdW + Hbond + desolv Energy     =  -13.61 kcal/mol
DOCKED: USER        Electrostatic Energy            =   +0.00 kcal/mol
DOCKED: USER    (2) Final Total Internal Energy     =   -1.37 kcal/mol
DOCKED: USER    (3) Torsional Free Energy           =   +2.09 kcal/mol
DOCKED: USER    (4) Unbound System's Energy  [=(2)] =   -1.37 kcal/mol
DOCKED: USER    
DOCKED: USER    
DOCKED: USER    NEWDPF move ligand.dum.pdbqt
DOCKED: USER    NEWDPF about 0.154000 0.111000 -0.146000
DOCKED: USER    NEWDPF tran0 35.418604 15.618050 122.495220
DOCKED: USER    NEWDPF quaternion0 -0.501121 0.794041 0.085726 -0.333207
DOCKED: USER    NEWDPF axisangle0 -0.531494 0.842168 0.090922 -141.072870
DOCKED: USER    NEWDPF quat0 -0.531494 0.842168 0.090922 -141.072870
DOCKED: USER    NEWDPF dihe0 9.85 180.00 -146.93 -114.66 -119.59 -158.42 171.89 
DOCKED: USER  keepresnum = 1 
DOCKED: USER  
DOCKED: REMARK  Name = 
DOCKED: REMARK  7 active torsions:
DOCKED: REMARK  status: ('A' for Active; 'I' for Inactive)
DOCKED: REMARK    1  A    between atoms: C_2  and  C_5
DOCKED: REMARK    2  A    between atoms: N_3  and  O_4
DOCKED: REMARK    3  A    between atoms: C_5  and  C_6
DOCKED: REMARK    4  A    between atoms: C_6  and  C_7
DOCKED: REMARK    5  A    between atoms: C_7  and  C_8
DOCKED: REMARK    6  A    between atoms: C_8  and  C_9
DOCKED: REMARK    7  A    between atoms: C_9  and  N_10
DOCKED: REMARK                            x       y       z     vdW  Elec       q    Type
DOCKED: REMARK                         _______ _______ _______ _____ _____    ______ ____
DOCKED: USER                              x       y       z     vdW  Elec       q    Type
DOCKED: USER                           _______ _______ _______ _____ _____    ______ ____
DOCKED: ROOT
DOCKED: ATOM      1  N   UNL     1      35.689  15.179 123.902 -0.48 -0.00    +0.000 N 
DOCKED: ATOM      2  C   UNL     1      34.684  15.908 124.633 -0.55 -0.00    +0.000 C 
DOCKED: ATOM      3  C   UNL     1      34.915  17.322 125.005 -0.34 -0.00    +0.000 A 
DOCKED: ATOM      4  C   UNL     1      33.929  18.049 125.697 -0.33 -0.00    +0.000 A 
DOCKED: ATOM      5  C   UNL     1      34.145  19.383 126.046 -0.22 -0.00    +0.000 A 
DOCKED: ATOM      6  C   UNL     1      35.345  20.011 125.714 -0.15 -0.00    +0.000 A 
DOCKED: ATOM      7  C   UNL     1      36.343  19.308 125.026 -0.16 -0.00    +0.000 A 
DOCKED: ATOM      8  C   UNL     1      37.550  19.940 124.693 -0.09 -0.00    +0.000 A 
DOCKED: ATOM      9  C   UNL     1      38.544  19.240 124.011 -0.10 -0.00    +0.000 A 
DOCKED: ATOM     10  C   UNL     1      38.347  17.905 123.653 -0.17 -0.00    +0.000 A 
DOCKED: ATOM     11  C   UNL     1      37.146  17.249 123.975 -0.20 -0.00    +0.000 A 
DOCKED: ATOM     12  C   UNL     1      36.134  17.952 124.666 -0.22 -0.00    +0.000 A 
DOCKED: ATOM     13  O   UNL     1      33.604  15.341 124.957 -0.55 -0.00    +0.000 OA
DOCKED: ATOM     14  C   UNL     1      36.937  15.833 123.593 -0.34 -0.00    +0.000 C 
DOCKED: ATOM     15  O   UNL     1      37.854  15.203 122.999 -0.40 -0.00    +0.000 OA
DOCKED: ATOM     16  CM  UNL     1      35.912  16.536 124.285 -0.06 -0.00    +0.000 AC
DOCKED: ATOM     17  CM  UNL     1      35.135  18.671 125.359 -0.25 -0.00    +0.000 AC
DOCKED: ATOM     18  CM  UNL     1      37.344  18.599 124.337 -0.00 -0.00    +0.000 AC
DOCKED: ENDROOT
DOCKED: BRANCH   1  16
DOCKED: ATOM     19  C   UNL     1      35.424  13.803 123.452 -0.37 -0.00    +0.000 C 
DOCKED: BRANCH  16  17
DOCKED: ATOM     20  C   UNL     1      36.305  12.785 124.197 -0.41 -0.00    +0.000 C 
DOCKED: BRANCH  17  18
DOCKED: ATOM     21  C   UNL     1      37.606  12.416 123.458 -0.41 -0.00    +0.000 C 
DOCKED: BRANCH  18  19
DOCKED: ATOM     22  C   UNL     1      37.416  11.999 121.985 -0.46 -0.00    +0.000 C 
DOCKED: BRANCH  19  20
DOCKED: ATOM     23  C   UNL     1      36.309  10.959 121.753 -0.43 -0.00    +0.000 C 
DOCKED: BRANCH  20  22
DOCKED: ATOM     24  O   UNL     1      37.069   8.838 120.957 -2.70 -0.00    +0.000 OA
DOCKED: ATOM     25  C   UNL     1      36.803   9.555 121.958 -0.66 -0.00    +0.000 C 
DOCKED: ATOM     26  N   UNL     1      36.941   9.020 123.276 -0.62 -0.00    +0.000 N 
DOCKED: ATOM     27  H   UNL     1      36.724   9.581 124.056 -0.47 -0.00    +0.000 HD
DOCKED: BRANCH  23  25
DOCKED: ATOM     28  O   UNL     1      37.365   7.748 123.462 -2.19 -0.00    +0.000 OA
DOCKED: ATOM     29  H   UNL     1      37.681   7.385 122.619 -0.26 -0.00    +0.000 HD
DOCKED: ENDBRANCH  23  25
DOCKED: ENDBRANCH  20  22
DOCKED: ENDBRANCH  19  20
DOCKED: ENDBRANCH  18  19
DOCKED: ENDBRANCH  17  18
DOCKED: ENDBRANCH  16  17
DOCKED: ENDBRANCH   1  16
DOCKED: TORSDOF 7DOCKED: TER
DOCKED: ENDMDL
________________________________________________________________________________


	BEGINNING GENETIC ALGORITHM DOCKING 3 of 100
Run: 3 Seed: 1298837620 1763046390 [ Run 3 of 100 GA/GALS ]
Beginning LAMARCKIAN GENETIC ALGORITHM (LGA), with a maximum of 2500000 energy evaluations.

Final-Value: -14.432


	FINAL GENETIC ALGORITHM DOCKED STATE
	_______________________________________________


Detailed state:  trans 38.326 16.456 120.557 quatxyzw 0.094955 -0.906836 -0.098659 0.398621 center 0.154 0.111 -0.146 ntor 7 2.9255 -168.1475 84.8327 -121.6065 131.4008 -23.1400 -179.9891
State:	 38.326  16.456 120.557   0.104 -0.989 -0.108 133.016      2.93 -168.15   84.83 -121.61  131.40  -23.14 -179.99

DOCKED: MODEL        3
DOCKED: USER    Run = 3
DOCKED: USER    DPF = ligand_dock.biased.dpf
DOCKED: USER  
DOCKED: USER    Estimated Free Energy of Binding    =  -10.91 kcal/mol  [=(1)+(2)+(3)-(4)]
DOCKED: USER    Estimated Inhibition Constant, Ki   =    9.99 nM (nanomolar)  [Temperature = 298.15 K]
DOCKED: USER    
DOCKED: USER    (1) Final Intermolecular Energy     =  -13.00 kcal/mol
DOCKED: USER        vdW + Hbond + desolv Energy     =  -13.00 kcal/mol
DOCKED: USER        Electrostatic Energy            =   +0.00 kcal/mol
DOCKED: USER    (2) Final Total Internal Energy     =   -1.43 kcal/mol
DOCKED: USER    (3) Torsional Free Energy           =   +2.09 kcal/mol
DOCKED: USER    (4) Unbound System's Energy  [=(2)] =   -1.43 kcal/mol
DOCKED: USER    
DOCKED: USER    
DOCKED: USER    NEWDPF move ligand.dum.pdbqt
DOCKED: USER    NEWDPF about 0.154000 0.111000 -0.146000
DOCKED: USER    NEWDPF tran0 38.325734 16.456113 120.556850
DOCKED: USER    NEWDPF quaternion0 0.094955 -0.906836 -0.098659 0.398621
DOCKED: USER    NEWDPF axisangle0 0.103536 -0.988791 -0.107576 133.015963
DOCKED: USER    NEWDPF quat0 0.103536 -0.988791 -0.107576 133.015963
DOCKED: USER    NEWDPF dihe0 2.93 -168.15 84.83 -121.61 131.40 -23.14 -179.99 
DOCKED: USER  keepresnum = 1 
DOCKED: USER  
DOCKED: REMARK  Name = 
DOCKED: REMARK  7 active torsions:
DOCKED: REMARK  status: ('A' for Active; 'I' for Inactive)
DOCKED: REMARK    1  A    between atoms: C_2  and  C_5
DOCKED: REMARK    2  A    between atoms: N_3  and  O_4
DOCKED: REMARK    3  A    between atoms: C_5  and  C_6
DOCKED: REMARK    4  A    between atoms: C_6  and  C_7
DOCKED: REMARK    5  A    between atoms: C_7  and  C_8
DOCKED: REMARK    6  A    between atoms: C_8  and  C_9
DOCKED: REMARK    7  A    between atoms: C_9  and  N_10
DOCKED: REMARK                            x       y       z     vdW  Elec       q    Type
DOCKED: REMARK                         _______ _______ _______ _____ _____    ______ ____
DOCKED: USER                              x       y       z     vdW  Elec       q    Type
DOCKED: USER                           _______ _______ _______ _____ _____    ______ ____
DOCKED: ROOT
DOCKED: ATOM      1  N   UNL     1      38.099  15.524 121.708 -0.23 -0.00    +0.000 N 
DOCKED: ATOM      2  C   UNL     1      37.838  16.448 122.783 -0.26 -0.00    +0.000 C 
DOCKED: ATOM      3  C   UNL     1      38.963  17.092 123.498 -0.22 -0.00    +0.000 A 
DOCKED: ATOM      4  C   UNL     1      38.718  18.014 124.531 -0.19 -0.00    +0.000 A 
DOCKED: ATOM      5  C   UNL     1      39.778  18.624 125.204 -0.22 -0.00    +0.000 A 
DOCKED: ATOM      6  C   UNL     1      41.096  18.325 124.858 -0.28 -0.00    +0.000 A 
DOCKED: ATOM      7  C   UNL     1      41.365  17.409 123.832 -0.31 -0.00    +0.000 A 
DOCKED: ATOM      8  C   UNL     1      42.690  17.108 123.485 -0.28 -0.00    +0.000 A 
DOCKED: ATOM      9  C   UNL     1      42.959  16.196 122.466 -0.37 -0.00    +0.000 A 
DOCKED: ATOM     10  C   UNL     1      41.913  15.575 121.782 -0.35 -0.00    +0.000 A 
DOCKED: ATOM     11  C   UNL     1      40.576  15.860 122.111 -0.31 -0.00    +0.000 A 
DOCKED: ATOM     12  C   UNL     1      40.295  16.784 123.142 -0.25 -0.00    +0.000 A 
DOCKED: ATOM     13  O   UNL     1      36.649  16.707 123.118 -0.28 -0.00    +0.000 OA
DOCKED: ATOM     14  C   UNL     1      39.466  15.202 121.383 -0.32 -0.00    +0.000 C 
DOCKED: ATOM     15  O   UNL     1      39.722  14.359 120.481 -0.23 -0.00    +0.000 OA
DOCKED: ATOM     16  CM  UNL     1      39.176  16.134 122.418 +0.00 -0.00    +0.000 AC
DOCKED: ATOM     17  CM  UNL     1      40.036  17.708 124.177 +0.00 -0.00    +0.000 AC
DOCKED: ATOM     18  CM  UNL     1      41.634  16.488 122.803 +0.00 -0.00    +0.000 AC
DOCKED: ENDROOT
DOCKED: BRANCH   1  16
DOCKED: ATOM     19  C   UNL     1      36.982  14.952 120.937 -0.21 -0.00    +0.000 C 
DOCKED: BRANCH  16  17
DOCKED: ATOM     20  C   UNL     1      36.706  13.493 121.339 -0.23 -0.00    +0.000 C 
DOCKED: BRANCH  17  18
DOCKED: ATOM     21  C   UNL     1      36.798  13.228 122.855 -0.57 -0.00    +0.000 C 
DOCKED: BRANCH  18  19
DOCKED: ATOM     22  C   UNL     1      37.018  11.751 123.239 -0.67 -0.00    +0.000 C 
DOCKED: BRANCH  19  20
DOCKED: ATOM     23  C   UNL     1      35.970  10.780 122.672 -0.68 -0.00    +0.000 C 
DOCKED: BRANCH  20  22
DOCKED: ATOM     24  O   UNL     1      37.035   9.217 121.211 -2.73 -0.00    +0.000 OA
DOCKED: ATOM     25  C   UNL     1      36.560   9.435 122.358 -0.72 -0.00    +0.000 C 
DOCKED: ATOM     26  N   UNL     1      36.555   8.394 123.338 -0.67 -0.00    +0.000 N 
DOCKED: ATOM     27  H   UNL     1      36.176   8.565 124.229 -0.25 -0.00    +0.000 HD
DOCKED: BRANCH  23  25
DOCKED: ATOM     28  O   UNL     1      37.066   7.174 123.048 -1.98 -0.00    +0.000 OA
DOCKED: ATOM     29  H   UNL     1      37.438   7.183 122.152 -0.18 -0.00    +0.000 HD
DOCKED: ENDBRANCH  23  25
DOCKED: ENDBRANCH  20  22
DOCKED: ENDBRANCH  19  20
DOCKED: ENDBRANCH  18  19
DOCKED: ENDBRANCH  17  18
DOCKED: ENDBRANCH  16  17
DOCKED: ENDBRANCH   1  16
DOCKED: TORSDOF 7DOCKED: TER
DOCKED: ENDMDL
________________________________________________________________________________


	BEGINNING GENETIC ALGORITHM DOCKING 4 of 100
Run: 4 Seed: 1883362299 256510736 [ Run 4 of 100 GA/GALS ]
Beginning LAMARCKIAN GENETIC ALGORITHM (LGA), with a maximum of 2500000 energy evaluations.

Final-Value: -14.425


	FINAL GENETIC ALGORITHM DOCKED STATE
	_______________________________________________


Detailed state:  trans 39.708 13.571 120.621 quatxyzw -0.280862 0.546555 -0.681828 -0.396870 center 0.154 0.111 -0.146 ntor 7 34.3116 101.1348 148.7030 -139.2989 -39.8369 148.2742 173.9040
State:	 39.708  13.571 120.621  -0.306  0.595 -0.743 -133.235     34.31  101.13  148.70 -139.30  -39.84  148.27  173.90

DOCKED: MODEL        4
DOCKED: USER    Run = 4
DOCKED: USER    DPF = ligand_dock.biased.dpf
DOCKED: USER  
DOCKED: USER    Estimated Free Energy of Binding    =  -11.30 kcal/mol  [=(1)+(2)+(3)-(4)]
DOCKED: USER    Estimated Inhibition Constant, Ki   =    5.25 nM (nanomolar)  [Temperature = 298.15 K]
DOCKED: USER    
DOCKED: USER    (1) Final Intermolecular Energy     =  -13.38 kcal/mol
DOCKED: USER        vdW + Hbond + desolv Energy     =  -13.38 kcal/mol
DOCKED: USER        Electrostatic Energy            =   +0.00 kcal/mol
DOCKED: USER    (2) Final Total Internal Energy     =   -1.04 kcal/mol
DOCKED: USER    (3) Torsional Free Energy           =   +2.09 kcal/mol
DOCKED: USER    (4) Unbound System's Energy  [=(2)] =   -1.04 kcal/mol
DOCKED: USER    
DOCKED: USER    
DOCKED: USER    NEWDPF move ligand.dum.pdbqt
DOCKED: USER    NEWDPF about 0.154000 0.111000 -0.146000
DOCKED: USER    NEWDPF tran0 39.708242 13.570887 120.621445
DOCKED: USER    NEWDPF quaternion0 -0.280862 0.546555 -0.681828 -0.396870
DOCKED: USER    NEWDPF axisangle0 -0.305992 0.595457 -0.742833 -133.234689
DOCKED: USER    NEWDPF quat0 -0.305992 0.595457 -0.742833 -133.234689
DOCKED: USER    NEWDPF dihe0 34.31 101.13 148.70 -139.30 -39.84 148.27 173.90 
DOCKED: USER  keepresnum = 1 
DOCKED: USER  
DOCKED: REMARK  Name = 
DOCKED: REMARK  7 active torsions:
DOCKED: REMARK  status: ('A' for Active; 'I' for Inactive)
DOCKED: REMARK    1  A    between atoms: C_2  and  C_5
DOCKED: REMARK    2  A    between atoms: N_3  and  O_4
DOCKED: REMARK    3  A    between atoms: C_5  and  C_6
DOCKED: REMARK    4  A    between atoms: C_6  and  C_7
DOCKED: REMARK    5  A    between atoms: C_7  and  C_8
DOCKED: REMARK    6  A    between atoms: C_8  and  C_9
DOCKED: REMARK    7  A    between atoms: C_9  and  N_10
DOCKED: REMARK                            x       y       z     vdW  Elec       q    Type
DOCKED: REMARK                         _______ _______ _______ _____ _____    ______ ____
DOCKED: USER                              x       y       z     vdW  Elec       q    Type
DOCKED: USER                           _______ _______ _______ _____ _____    ______ ____
DOCKED: ROOT
DOCKED: ATOM      1  N   UNL     1      38.917  14.762 121.067 -0.29 -0.00    +0.000 N 
DOCKED: ATOM      2  C   UNL     1      39.000  15.617 119.910 -0.19 -0.00    +0.000 C 
DOCKED: ATOM      3  C   UNL     1      40.197  16.463 119.697 -0.12 -0.00    +0.000 A 
DOCKED: ATOM      4  C   UNL     1      40.299  17.282 118.558 -0.07 -0.00    +0.000 A 
DOCKED: ATOM      5  C   UNL     1      41.427  18.078 118.355 -0.04 -0.00    +0.000 A 
DOCKED: ATOM      6  C   UNL     1      42.469  18.072 119.283 -0.05 -0.00    +0.000 A 
DOCKED: ATOM      7  C   UNL     1      42.390  17.265 120.427 -0.11 -0.00    +0.000 A 
DOCKED: ATOM      8  C   UNL     1      43.436  17.260 121.360 -0.19 -0.00    +0.000 A 
DOCKED: ATOM      9  C   UNL     1      43.357  16.459 122.499 -0.34 -0.00    +0.000 A 
DOCKED: ATOM     10  C   UNL     1      42.237  15.656 122.720 -0.45 -0.00    +0.000 A 
DOCKED: ATOM     11  C   UNL     1      41.174  15.644 121.799 -0.34 -0.00    +0.000 A 
DOCKED: ATOM     12  C   UNL     1      41.247  16.452 120.642 -0.16 -0.00    +0.000 A 
DOCKED: ATOM     13  O   UNL     1      38.053  15.646 119.076 -0.18 -0.00    +0.000 OA
DOCKED: ATOM     14  C   UNL     1      39.987  14.790 122.033 -0.41 -0.00    +0.000 C 
DOCKED: ATOM     15  O   UNL     1      39.916  14.090 123.080 -0.77 -0.00    +0.000 OA
DOCKED: ATOM     16  CM  UNL     1      40.056  15.598 120.864 +0.00 -0.00    +0.000 AC
DOCKED: ATOM     17  CM  UNL     1      41.338  17.268 119.494 +0.00 -0.00    +0.000 AC
DOCKED: ATOM     18  CM  UNL     1      42.307  16.456 121.575 +0.00 -0.00    +0.000 AC
DOCKED: ENDROOT
DOCKED: BRANCH   1  16
DOCKED: ATOM     19  C   UNL     1      37.770  13.854 121.233 -0.42 -0.00    +0.000 C 
DOCKED: BRANCH  16  17
DOCKED: ATOM     20  C   UNL     1      36.854  14.304 122.384 -0.42 -0.00    +0.000 C 
DOCKED: BRANCH  17  18
DOCKED: ATOM     21  C   UNL     1      36.159  13.147 123.127 -0.56 -0.00    +0.000 C 
DOCKED: BRANCH  18  19
DOCKED: ATOM     22  C   UNL     1      36.944  11.819 123.133 -0.67 -0.00    +0.000 C 
DOCKED: BRANCH  19  20
DOCKED: ATOM     23  C   UNL     1      36.958  11.079 121.786 -0.55 -0.00    +0.000 C 
DOCKED: BRANCH  20  22
DOCKED: ATOM     24  O   UNL     1      37.040   8.843 120.947 -2.70 -0.00    +0.000 OA
DOCKED: ATOM     25  C   UNL     1      37.037   9.590 121.962 -0.61 -0.00    +0.000 C 
DOCKED: ATOM     26  N   UNL     1      37.075   9.016 123.270 -0.63 -0.00    +0.000 N 
DOCKED: ATOM     27  H   UNL     1      37.064   9.601 124.061 -0.54 -0.00    +0.000 HD
DOCKED: BRANCH  23  25
DOCKED: ATOM     28  O   UNL     1      37.123   7.672 123.431 -2.25 -0.00    +0.000 OA
DOCKED: ATOM     29  H   UNL     1      37.644   7.278 122.713 -0.32 -0.00    +0.000 HD
DOCKED: ENDBRANCH  23  25
DOCKED: ENDBRANCH  20  22
DOCKED: ENDBRANCH  19  20
DOCKED: ENDBRANCH  18  19
DOCKED: ENDBRANCH  17  18
DOCKED: ENDBRANCH  16  17
DOCKED: ENDBRANCH   1  16
DOCKED: TORSDOF 7DOCKED: TER
DOCKED: ENDMDL
________________________________________________________________________________


	BEGINNING GENETIC ALGORITHM DOCKING 5 of 100
Run: 5 Seed: 706611636 1793704992 [ Run 5 of 100 GA/GALS ]
Beginning LAMARCKIAN GENETIC ALGORITHM (LGA), with a maximum of 2500000 energy evaluations.

Final-Value: -15.229


	FINAL GENETIC ALGORITHM DOCKED STATE
	_______________________________________________


Detailed state:  trans 34.088 16.914 123.322 quatxyzw 0.493568 -0.789580 -0.280102 0.233446 center 0.154 0.111 -0.146 ntor 7 10.0852 107.5458 177.0990 -157.4304 102.8456 74.9471 153.3556
State:	 34.088  16.914 123.322   0.508 -0.812 -0.288 153.000     10.09  107.55  177.10 -157.43  102.85   74.95  153.36

DOCKED: MODEL        5
DOCKED: USER    Run = 5
DOCKED: USER    DPF = ligand_dock.biased.dpf
DOCKED: USER  
DOCKED: USER    Estimated Free Energy of Binding    =  -12.09 kcal/mol  [=(1)+(2)+(3)-(4)]
DOCKED: USER    Estimated Inhibition Constant, Ki   =    1.37 nM (nanomolar)  [Temperature = 298.15 K]
DOCKED: USER    
DOCKED: USER    (1) Final Intermolecular Energy     =  -14.18 kcal/mol
DOCKED: USER        vdW + Hbond + desolv Energy     =  -14.18 kcal/mol
DOCKED: USER        Electrostatic Energy            =   +0.00 kcal/mol
DOCKED: USER    (2) Final Total Internal Energy     =   -1.05 kcal/mol
DOCKED: USER    (3) Torsional Free Energy           =   +2.09 kcal/mol
DOCKED: USER    (4) Unbound System's Energy  [=(2)] =   -1.05 kcal/mol
DOCKED: USER    
DOCKED: USER    
DOCKED: USER    NEWDPF move ligand.dum.pdbqt
DOCKED: USER    NEWDPF about 0.154000 0.111000 -0.146000
DOCKED: USER    NEWDPF tran0 34.087903 16.913611 123.322406
DOCKED: USER    NEWDPF quaternion0 0.493568 -0.789580 -0.280102 0.233446
DOCKED: USER    NEWDPF axisangle0 0.507593 -0.812016 -0.288061 152.999967
DOCKED: USER    NEWDPF quat0 0.507593 -0.812016 -0.288061 152.999967
DOCKED: USER    NEWDPF dihe0 10.09 107.55 177.10 -157.43 102.85 74.95 153.36 
DOCKED: USER  keepresnum = 1 
DOCKED: USER  
DOCKED: REMARK  Name = 
DOCKED: REMARK  7 active torsions:
DOCKED: REMARK  status: ('A' for Active; 'I' for Inactive)
DOCKED: REMARK    1  A    between atoms: C_2  and  C_5
DOCKED: REMARK    2  A    between atoms: N_3  and  O_4
DOCKED: REMARK    3  A    between atoms: C_5  and  C_6
DOCKED: REMARK    4  A    between atoms: C_6  and  C_7
DOCKED: REMARK    5  A    between atoms: C_7  and  C_8
DOCKED: REMARK    6  A    between atoms: C_8  and  C_9
DOCKED: REMARK    7  A    between atoms: C_9  and  N_10
DOCKED: REMARK                            x       y       z     vdW  Elec       q    Type
DOCKED: REMARK                         _______ _______ _______ _____ _____    ______ ____
DOCKED: USER                              x       y       z     vdW  Elec       q    Type
DOCKED: USER                           _______ _______ _______ _____ _____    ______ ____
DOCKED: ROOT
DOCKED: ATOM      1  N   UNL     1      34.886  16.276 124.419 -0.46 -0.00    +0.000 N 
DOCKED: ATOM      2  C   UNL     1      34.142  16.671 125.588 -0.45 -0.00    +0.000 C 
DOCKED: ATOM      3  C   UNL     1      34.352  18.010 126.183 -0.29 -0.00    +0.000 A 
DOCKED: ATOM      4  C   UNL     1      33.613  18.414 127.310 -0.23 -0.00    +0.000 A 
DOCKED: ATOM      5  C   UNL     1      33.808  19.678 127.870 -0.11 -0.00    +0.000 A 
DOCKED: ATOM      6  C   UNL     1      34.742  20.555 127.320 -0.09 -0.00    +0.000 A 
DOCKED: ATOM      7  C   UNL     1      35.491  20.175 126.198 -0.13 -0.00    +0.000 A 
DOCKED: ATOM      8  C   UNL     1      36.430  21.058 125.645 -0.09 -0.00    +0.000 A 
DOCKED: ATOM      9  C   UNL     1      37.177  20.679 124.530 -0.09 -0.00    +0.000 A 
DOCKED: ATOM     10  C   UNL     1      36.997  19.420 123.955 -0.13 -0.00    +0.000 A 
DOCKED: ATOM     11  C   UNL     1      36.061  18.517 124.491 -0.21 -0.00    +0.000 A 
DOCKED: ATOM     12  C   UNL     1      35.300  18.893 125.620 -0.21 -0.00    +0.000 A 
DOCKED: ATOM     13  O   UNL     1      33.312  15.875 126.106 -0.92 -0.00    +0.000 OA
DOCKED: ATOM     14  C   UNL     1      35.870  17.182 123.879 -0.33 -0.00    +0.000 C 
DOCKED: ATOM     15  O   UNL     1      36.570  16.842 122.887 -0.26 -0.00    +0.000 OA
DOCKED: ATOM     16  CM  UNL     1      35.096  17.556 125.013 -0.45 -0.00    +0.000 AC
DOCKED: ATOM     17  CM  UNL     1      34.551  19.288 126.750 -0.01 -0.00    +0.000 AC
DOCKED: ATOM     18  CM  UNL     1      36.243  19.791 125.073 -0.00 -0.00    +0.000 AC
DOCKED: ENDROOT
DOCKED: BRANCH   1  16
DOCKED: ATOM     19  C   UNL     1      34.614  14.982 123.772 -0.51 -0.00    +0.000 C 
DOCKED: BRANCH  16  17
DOCKED: ATOM     20  C   UNL     1      35.910  14.193 123.518 -0.54 -0.00    +0.000 C 
DOCKED: BRANCH  17  18
DOCKED: ATOM     21  C   UNL     1      35.800  12.685 123.816 -0.51 -0.00    +0.000 C 
DOCKED: BRANCH  18  19
DOCKED: ATOM     22  C   UNL     1      37.023  11.851 123.382 -0.68 -0.00    +0.000 C 
DOCKED: BRANCH  19  20
DOCKED: ATOM     23  C   UNL     1      36.931  11.274 121.960 -0.58 -0.00    +0.000 C 
DOCKED: BRANCH  20  22
DOCKED: ATOM     24  O   UNL     1      37.066   9.160 120.854 -2.74 -0.00    +0.000 OA
DOCKED: ATOM     25  C   UNL     1      37.021   9.775 121.953 -0.59 -0.00    +0.000 C 
DOCKED: ATOM     26  N   UNL     1      37.023   9.044 123.181 -0.65 -0.00    +0.000 N 
DOCKED: ATOM     27  H   UNL     1      36.980   9.527 124.037 -0.52 -0.00    +0.000 HD
DOCKED: BRANCH  23  25
DOCKED: ATOM     28  O   UNL     1      37.082   7.691 123.176 -2.32 -0.00    +0.000 OA
DOCKED: ATOM     29  H   UNL     1      37.279   7.378 122.278 -0.11 -0.00    +0.000 HD
DOCKED: ENDBRANCH  23  25
DOCKED: ENDBRANCH  20  22
DOCKED: ENDBRANCH  19  20
DOCKED: ENDBRANCH  18  19
DOCKED: ENDBRANCH  17  18
DOCKED: ENDBRANCH  16  17
DOCKED: ENDBRANCH   1  16
DOCKED: TORSDOF 7DOCKED: TER
DOCKED: ENDMDL
________________________________________________________________________________


	BEGINNING GENETIC ALGORITHM DOCKING 6 of 100
Run: 6 Seed: 387390899 1272500334 [ Run 6 of 100 GA/GALS ]
Beginning LAMARCKIAN GENETIC ALGORITHM (LGA), with a maximum of 2500000 energy evaluations.

Final-Value: -15.432


	FINAL GENETIC ALGORITHM DOCKED STATE
	_______________________________________________


Detailed state:  trans 38.441 16.002 121.337 quatxyzw 0.195164 -0.931469 0.058680 0.301386 center 0.154 0.111 -0.146 ntor 7 72.1531 137.0836 162.5979 176.6682 -40.7485 160.9553 -131.6197
State:	 38.441  16.002 121.337   0.205 -0.977  0.062 144.918     72.15  137.08  162.60  176.67  -40.75  160.96 -131.62

DOCKED: MODEL        6
DOCKED: USER    Run = 6
DOCKED: USER    DPF = ligand_dock.biased.dpf
DOCKED: USER  
DOCKED: USER    Estimated Free Energy of Binding    =  -12.48 kcal/mol  [=(1)+(2)+(3)-(4)]
DOCKED: USER    Estimated Inhibition Constant, Ki   =  716.33 pM (picomolar)  [Temperature = 298.15 K]
DOCKED: USER    
DOCKED: USER    (1) Final Intermolecular Energy     =  -14.56 kcal/mol
DOCKED: USER        vdW + Hbond + desolv Energy     =  -14.56 kcal/mol
DOCKED: USER        Electrostatic Energy            =   +0.00 kcal/mol
DOCKED: USER    (2) Final Total Internal Energy     =   -0.87 kcal/mol
DOCKED: USER    (3) Torsional Free Energy           =   +2.09 kcal/mol
DOCKED: USER    (4) Unbound System's Energy  [=(2)] =   -0.87 kcal/mol
DOCKED: USER    
DOCKED: USER    
DOCKED: USER    NEWDPF move ligand.dum.pdbqt
DOCKED: USER    NEWDPF about 0.154000 0.111000 -0.146000
DOCKED: USER    NEWDPF tran0 38.441149 16.001774 121.336829
DOCKED: USER    NEWDPF quaternion0 0.195164 -0.931469 0.058680 0.301386
DOCKED: USER    NEWDPF axisangle0 0.204682 -0.976892 0.061541 144.918313
DOCKED: USER    NEWDPF quat0 0.204682 -0.976892 0.061541 144.918313
DOCKED: USER    NEWDPF dihe0 72.15 137.08 162.60 176.67 -40.75 160.96 -131.62 
DOCKED: USER  keepresnum = 1 
DOCKED: USER  
DOCKED: REMARK  Name = 
DOCKED: REMARK  7 active torsions:
DOCKED: REMARK  status: ('A' for Active; 'I' for Inactive)
DOCKED: REMARK    1  A    between atoms: C_2  and  C_5
DOCKED: REMARK    2  A    between atoms: N_3  and  O_4
DOCKED: REMARK    3  A    between atoms: C_5  and  C_6
DOCKED: REMARK    4  A    between atoms: C_6  and  C_7
DOCKED: REMARK    5  A    between atoms: C_7  and  C_8
DOCKED: REMARK    6  A    between atoms: C_8  and  C_9
DOCKED: REMARK    7  A    between atoms: C_9  and  N_10
DOCKED: REMARK                            x       y       z     vdW  Elec       q    Type
DOCKED: REMARK                         _______ _______ _______ _____ _____    ______ ____
DOCKED: USER                              x       y       z     vdW  Elec       q    Type
DOCKED: USER                           _______ _______ _______ _____ _____    ______ ____
DOCKED: ROOT
DOCKED: ATOM      1  N   UNL     1      38.457  15.577 122.773 -0.31 -0.00    +0.000 N 
DOCKED: ATOM      2  C   UNL     1      38.248  16.831 123.451 -0.27 -0.00    +0.000 C 
DOCKED: ATOM      3  C   UNL     1      39.388  17.747 123.686 -0.20 -0.00    +0.000 A 
DOCKED: ATOM      4  C   UNL     1      39.190  18.984 124.323 -0.13 -0.00    +0.000 A 
DOCKED: ATOM      5  C   UNL     1      40.263  19.849 124.543 -0.10 -0.00    +0.000 A 
DOCKED: ATOM      6  C   UNL     1      41.548  19.494 124.133 -0.14 -0.00    +0.000 A 
DOCKED: ATOM      7  C   UNL     1      41.771  18.266 123.496 -0.23 -0.00    +0.000 A 
DOCKED: ATOM      8  C   UNL     1      43.063  17.909 123.084 -0.19 -0.00    +0.000 A 
DOCKED: ATOM      9  C   UNL     1      43.285  16.686 122.453 -0.35 -0.00    +0.000 A 
DOCKED: ATOM     10  C   UNL     1      42.226  15.807 122.224 -0.40 -0.00    +0.000 A 
DOCKED: ATOM     11  C   UNL     1      40.921  16.142 122.627 -0.34 -0.00    +0.000 A 
DOCKED: ATOM     12  C   UNL     1      40.687  17.379 123.268 -0.25 -0.00    +0.000 A 
DOCKED: ATOM     13  O   UNL     1      37.093  17.151 123.846 -0.28 -0.00    +0.000 OA
DOCKED: ATOM     14  C   UNL     1      39.796  15.210 122.383 -0.41 -0.00    +0.000 C 
DOCKED: ATOM     15  O   UNL     1      40.014  14.096 121.834 -0.98 -0.00    +0.000 OA
DOCKED: ATOM     16  CM  UNL     1      39.553  16.456 123.024 +0.00 -0.00    +0.000 AC
DOCKED: ATOM     17  CM  UNL     1      40.474  18.620 123.907 +0.00 -0.00    +0.000 AC
DOCKED: ATOM     18  CM  UNL     1      41.993  17.031 122.859 +0.00 -0.00    +0.000 AC
DOCKED: ENDROOT
DOCKED: BRANCH   1  16
DOCKED: ATOM     19  C   UNL     1      37.311  14.707 122.458 -0.41 -0.00    +0.000 C 
DOCKED: BRANCH  16  17
DOCKED: ATOM     20  C   UNL     1      36.497  14.366 123.718 -0.48 -0.00    +0.000 C 
DOCKED: BRANCH  17  18
DOCKED: ATOM     21  C   UNL     1      36.102  12.881 123.832 -0.62 -0.00    +0.000 C 
DOCKED: BRANCH  18  19
DOCKED: ATOM     22  C   UNL     1      37.072  11.900 123.142 -0.66 -0.00    +0.000 C 
DOCKED: BRANCH  19  20
DOCKED: ATOM     23  C   UNL     1      36.454  11.097 121.986 -0.62 -0.00    +0.000 C 
DOCKED: BRANCH  20  22
DOCKED: ATOM     24  O   UNL     1      37.016   9.007 120.973 -2.71 -0.00    +0.000 OA
DOCKED: ATOM     25  C   UNL     1      36.833   9.645 122.044 -0.65 -0.00    +0.000 C 
DOCKED: ATOM     26  N   UNL     1      36.954   8.977 123.302 -0.62 -0.00    +0.000 N 
DOCKED: ATOM     27  H   UNL     1      36.802   9.476 124.136 -0.50 -0.00    +0.000 HD
DOCKED: BRANCH  23  25
DOCKED: ATOM     28  O   UNL     1      37.273   7.662 123.355 -2.21 -0.00    +0.000 OA
DOCKED: ATOM     29  H   UNL     1      38.207   7.545 123.117 -0.51 -0.00    +0.000 HD
DOCKED: ENDBRANCH  23  25
DOCKED: ENDBRANCH  20  22
DOCKED: ENDBRANCH  19  20
DOCKED: ENDBRANCH  18  19
DOCKED: ENDBRANCH  17  18
DOCKED: ENDBRANCH  16  17
DOCKED: ENDBRANCH   1  16
DOCKED: TORSDOF 7DOCKED: TER
DOCKED: ENDMDL
________________________________________________________________________________


	BEGINNING GENETIC ALGORITHM DOCKING 7 of 100
Run: 7 Seed: 276789943 883373032 [ Run 7 of 100 GA/GALS ]
Beginning LAMARCKIAN GENETIC ALGORITHM (LGA), with a maximum of 2500000 energy evaluations.

Final-Value: -15.571


	FINAL GENETIC ALGORITHM DOCKED STATE
	_______________________________________________


Detailed state:  trans 33.851 16.570 123.254 quatxyzw -0.571099 0.755065 0.283391 -0.153013 center 0.154 0.111 -0.146 ntor 7 18.4296 152.9898 -175.3498 158.5422 43.4008 102.2827 -177.4088
State:	 33.851  16.570 123.254  -0.578  0.764  0.287 -162.397     18.43  152.99 -175.35  158.54   43.40  102.28 -177.41

DOCKED: MODEL        7
DOCKED: USER    Run = 7
DOCKED: USER    DPF = ligand_dock.biased.dpf
DOCKED: USER  
DOCKED: USER    Estimated Free Energy of Binding    =  -12.39 kcal/mol  [=(1)+(2)+(3)-(4)]
DOCKED: USER    Estimated Inhibition Constant, Ki   =  828.04 pM (picomolar)  [Temperature = 298.15 K]
DOCKED: USER    
DOCKED: USER    (1) Final Intermolecular Energy     =  -14.48 kcal/mol
DOCKED: USER        vdW + Hbond + desolv Energy     =  -14.48 kcal/mol
DOCKED: USER        Electrostatic Energy            =   +0.00 kcal/mol
DOCKED: USER    (2) Final Total Internal Energy     =   -1.09 kcal/mol
DOCKED: USER    (3) Torsional Free Energy           =   +2.09 kcal/mol
DOCKED: USER    (4) Unbound System's Energy  [=(2)] =   -1.09 kcal/mol
DOCKED: USER    
DOCKED: USER    
DOCKED: USER    NEWDPF move ligand.dum.pdbqt
DOCKED: USER    NEWDPF about 0.154000 0.111000 -0.146000
DOCKED: USER    NEWDPF tran0 33.851111 16.570191 123.253542
DOCKED: USER    NEWDPF quaternion0 -0.571099 0.755065 0.283391 -0.153013
DOCKED: USER    NEWDPF axisangle0 -0.577904 0.764062 0.286768 -162.396866
DOCKED: USER    NEWDPF quat0 -0.577904 0.764062 0.286768 -162.396866
DOCKED: USER    NEWDPF dihe0 18.43 152.99 -175.35 158.54 43.40 102.28 -177.41 
DOCKED: USER  keepresnum = 1 
DOCKED: USER  
DOCKED: REMARK  Name = 
DOCKED: REMARK  7 active torsions:
DOCKED: REMARK  status: ('A' for Active; 'I' for Inactive)
DOCKED: REMARK    1  A    between atoms: C_2  and  C_5
DOCKED: REMARK    2  A    between atoms: N_3  and  O_4
DOCKED: REMARK    3  A    between atoms: C_5  and  C_6
DOCKED: REMARK    4  A    between atoms: C_6  and  C_7
DOCKED: REMARK    5  A    between atoms: C_7  and  C_8
DOCKED: REMARK    6  A    between atoms: C_8  and  C_9
DOCKED: REMARK    7  A    between atoms: C_9  and  N_10
DOCKED: REMARK                            x       y       z     vdW  Elec       q    Type
DOCKED: REMARK                         _______ _______ _______ _____ _____    ______ ____
DOCKED: USER                              x       y       z     vdW  Elec       q    Type
DOCKED: USER                           _______ _______ _______ _____ _____    ______ ____
DOCKED: ROOT
DOCKED: ATOM      1  N   UNL     1      34.828  16.214 124.332 -0.47 -0.00    +0.000 N 
DOCKED: ATOM      2  C   UNL     1      34.092  16.566 125.519 -0.46 -0.00    +0.000 C 
DOCKED: ATOM      3  C   UNL     1      34.059  17.972 125.983 -0.32 -0.00    +0.000 A 
DOCKED: ATOM      4  C   UNL     1      33.323  18.329 127.127 -0.25 -0.00    +0.000 A 
DOCKED: ATOM      5  C   UNL     1      33.289  19.654 127.564 -0.14 -0.00    +0.000 A 
DOCKED: ATOM      6  C   UNL     1      33.987  20.642 126.869 -0.13 -0.00    +0.000 A 
DOCKED: ATOM      7  C   UNL     1      34.728  20.310 125.726 -0.16 -0.00    +0.000 A 
DOCKED: ATOM      8  C   UNL     1      35.431  21.303 125.029 -0.14 -0.00    +0.000 A 
DOCKED: ATOM      9  C   UNL     1      36.171  20.973 123.894 -0.14 -0.00    +0.000 A 
DOCKED: ATOM     10  C   UNL     1      36.218  19.654 123.442 -0.17 -0.00    +0.000 A 
DOCKED: ATOM     11  C   UNL     1      35.522  18.640 124.124 -0.23 -0.00    +0.000 A 
DOCKED: ATOM     12  C   UNL     1      34.770  18.966 125.275 -0.24 -0.00    +0.000 A 
DOCKED: ATOM     13  O   UNL     1      33.475  15.675 126.167 -0.89 -0.00    +0.000 OA
DOCKED: ATOM     14  C   UNL     1      35.570  17.240 123.643 -0.35 -0.00    +0.000 C 
DOCKED: ATOM     15  O   UNL     1      36.264  16.950 122.630 -0.25 -0.00    +0.000 OA
DOCKED: ATOM     16  CM  UNL     1      34.808  17.562 124.800 -0.44 -0.00    +0.000 AC
DOCKED: ATOM     17  CM  UNL     1      34.026  19.312 126.424 -0.01 -0.00    +0.000 AC
DOCKED: ATOM     18  CM  UNL     1      35.474  19.975 124.582 -0.01 -0.00    +0.000 AC
DOCKED: ENDROOT
DOCKED: BRANCH   1  16
DOCKED: ATOM     19  C   UNL     1      34.788  14.834 123.819 -0.55 -0.00    +0.000 C 
DOCKED: BRANCH  16  17
DOCKED: ATOM     20  C   UNL     1      36.060  14.054 124.194 -0.44 -0.00    +0.000 C 
DOCKED: BRANCH  17  18
DOCKED: ATOM     21  C   UNL     1      35.949  12.531 123.992 -0.53 -0.00    +0.000 C 
DOCKED: BRANCH  18  19
DOCKED: ATOM     22  C   UNL     1      36.841  11.962 122.869 -0.65 -0.00    +0.000 C 
DOCKED: BRANCH  19  20
DOCKED: ATOM     23  C   UNL     1      36.140  10.952 121.947 -0.56 -0.00    +0.000 C 
DOCKED: BRANCH  20  22
DOCKED: ATOM     24  O   UNL     1      37.064   8.935 121.059 -2.71 -0.00    +0.000 OA
DOCKED: ATOM     25  C   UNL     1      36.710   9.570 122.088 -0.69 -0.00    +0.000 C 
DOCKED: ATOM     26  N   UNL     1      36.821   8.960 123.376 -0.59 -0.00    +0.000 N 
DOCKED: ATOM     27  H   UNL     1      36.535   9.456 124.177 -0.42 -0.00    +0.000 HD
DOCKED: BRANCH  23  25
DOCKED: ATOM     28  O   UNL     1      37.313   7.705 123.504 -2.17 -0.00    +0.000 OA
DOCKED: ATOM     29  H   UNL     1      37.807   7.468 122.702 -0.33 -0.00    +0.000 HD
DOCKED: ENDBRANCH  23  25
DOCKED: ENDBRANCH  20  22
DOCKED: ENDBRANCH  19  20
DOCKED: ENDBRANCH  18  19
DOCKED: ENDBRANCH  17  18
DOCKED: ENDBRANCH  16  17
DOCKED: ENDBRANCH   1  16
DOCKED: TORSDOF 7DOCKED: TER
DOCKED: ENDMDL
________________________________________________________________________________


	BEGINNING GENETIC ALGORITHM DOCKING 8 of 100
Run: 8 Seed: 552088154 1759820689 [ Run 8 of 100 GA/GALS ]
Beginning LAMARCKIAN GENETIC ALGORITHM (LGA), with a maximum of 2500000 energy evaluations.

Final-Value: -13.456


	FINAL GENETIC ALGORITHM DOCKED STATE
	_______________________________________________


Detailed state:  trans 36.917 14.499 120.706 quatxyzw -0.404840 0.528851 -0.026475 0.745467 center 0.154 0.111 -0.146 ntor 7 20.6752 153.6911 70.6805 -144.8016 110.6681 -122.8347 62.5824
State:	 36.917  14.499 120.706  -0.607  0.793 -0.040 83.602     20.68  153.69   70.68 -144.80  110.67 -122.83   62.58

DOCKED: MODEL        8
DOCKED: USER    Run = 8
DOCKED: USER    DPF = ligand_dock.biased.dpf
DOCKED: USER  
DOCKED: USER    Estimated Free Energy of Binding    =  -10.03 kcal/mol  [=(1)+(2)+(3)-(4)]
DOCKED: USER    Estimated Inhibition Constant, Ki   =   44.13 nM (nanomolar)  [Temperature = 298.15 K]
DOCKED: USER    
DOCKED: USER    (1) Final Intermolecular Energy     =  -12.12 kcal/mol
DOCKED: USER        vdW + Hbond + desolv Energy     =  -12.12 kcal/mol
DOCKED: USER        Electrostatic Energy            =   +0.00 kcal/mol
DOCKED: USER    (2) Final Total Internal Energy     =   -1.33 kcal/mol
DOCKED: USER    (3) Torsional Free Energy           =   +2.09 kcal/mol
DOCKED: USER    (4) Unbound System's Energy  [=(2)] =   -1.33 kcal/mol
DOCKED: USER    
DOCKED: USER    
DOCKED: USER    NEWDPF move ligand.dum.pdbqt
DOCKED: USER    NEWDPF about 0.154000 0.111000 -0.146000
DOCKED: USER    NEWDPF tran0 36.916772 14.499005 120.706474
DOCKED: USER    NEWDPF quaternion0 -0.404840 0.528851 -0.026475 0.745467
DOCKED: USER    NEWDPF axisangle0 -0.607373 0.793423 -0.039719 83.601631
DOCKED: USER    NEWDPF quat0 -0.607373 0.793423 -0.039719 83.601631
DOCKED: USER    NEWDPF dihe0 20.68 153.69 70.68 -144.80 110.67 -122.83 62.58 
DOCKED: USER  keepresnum = 1 
DOCKED: USER  
DOCKED: REMARK  Name = 
DOCKED: REMARK  7 active torsions:
DOCKED: REMARK  status: ('A' for Active; 'I' for Inactive)
DOCKED: REMARK    1  A    between atoms: C_2  and  C_5
DOCKED: REMARK    2  A    between atoms: N_3  and  O_4
DOCKED: REMARK    3  A    between atoms: C_5  and  C_6
DOCKED: REMARK    4  A    between atoms: C_6  and  C_7
DOCKED: REMARK    5  A    between atoms: C_7  and  C_8
DOCKED: REMARK    6  A    between atoms: C_8  and  C_9
DOCKED: REMARK    7  A    between atoms: C_9  and  N_10
DOCKED: REMARK                            x       y       z     vdW  Elec       q    Type
DOCKED: REMARK                         _______ _______ _______ _____ _____    ______ ____
DOCKED: USER                              x       y       z     vdW  Elec       q    Type
DOCKED: USER                           _______ _______ _______ _____ _____    ______ ____
DOCKED: ROOT
DOCKED: ATOM      1  N   UNL     1      37.873  14.987 119.662 -0.22 -0.00    +0.000 N 
DOCKED: ATOM      2  C   UNL     1      37.570  16.395 119.625 -0.15 -0.00    +0.000 C 
DOCKED: ATOM      3  C   UNL     1      36.419  16.887 118.833 -0.12 -0.00    +0.000 A 
DOCKED: ATOM      4  C   UNL     1      36.101  18.256 118.811 -0.10 -0.00    +0.000 A 
DOCKED: ATOM      5  C   UNL     1      35.015  18.720 118.067 -0.11 -0.00    +0.000 A 
DOCKED: ATOM      6  C   UNL     1      34.232  17.829 117.334 -0.11 -0.00    +0.000 A 
DOCKED: ATOM      7  C   UNL     1      34.530  16.459 117.340 -0.12 -0.00    +0.000 A 
DOCKED: ATOM      8  C   UNL     1      33.743  15.563 116.602 -0.19 -0.00    +0.000 A 
DOCKED: ATOM      9  C   UNL     1      34.041  14.201 116.605 -0.32 -0.00    +0.000 A 
DOCKED: ATOM     10  C   UNL     1      35.123  13.717 117.342 -0.22 -0.00    +0.000 A 
DOCKED: ATOM     11  C   UNL     1      35.927  14.596 118.091 -0.26 -0.00    +0.000 A 
DOCKED: ATOM     12  C   UNL     1      35.632  15.977 118.093 -0.13 -0.00    +0.000 A 
DOCKED: ATOM     13  O   UNL     1      38.286  17.213 120.267 -0.09 -0.00    +0.000 OA
DOCKED: ATOM     14  C   UNL     1      37.074  14.082 118.874 -0.37 -0.00    +0.000 C 
DOCKED: ATOM     15  O   UNL     1      37.348  12.851 118.848 -0.48 -0.00    +0.000 OA
DOCKED: ATOM     16  CM  UNL     1      36.780  15.474 118.884 +0.00 -0.00    +0.000 AC
DOCKED: ATOM     17  CM  UNL     1      35.321  17.355 118.080 +0.00 -0.00    +0.000 AC
DOCKED: ATOM     18  CM  UNL     1      34.833  15.085 117.345 +0.00 -0.00    +0.000 AC
DOCKED: ENDROOT
DOCKED: BRANCH   1  16
DOCKED: ATOM     19  C   UNL     1      38.960  14.487 120.520 -0.28 -0.00    +0.000 C 
DOCKED: BRANCH  16  17
DOCKED: ATOM     20  C   UNL     1      38.564  13.182 121.231 -0.21 -0.00    +0.000 C 
DOCKED: BRANCH  17  18
DOCKED: ATOM     21  C   UNL     1      37.316  13.305 122.127 -0.51 -0.00    +0.000 C 
DOCKED: BRANCH  18  19
DOCKED: ATOM     22  C   UNL     1      36.902  12.001 122.840 -0.65 -0.00    +0.000 C 
DOCKED: BRANCH  19  20
DOCKED: ATOM     23  C   UNL     1      36.145  11.000 121.953 -0.57 -0.00    +0.000 C 
DOCKED: BRANCH  20  22
DOCKED: ATOM     24  O   UNL     1      37.003   8.962 121.048 -2.70 -0.00    +0.000 OA
DOCKED: ATOM     25  C   UNL     1      36.689   9.607 122.084 -0.69 -0.00    +0.000 C 
DOCKED: ATOM     26  N   UNL     1      36.822   8.999 123.371 -0.59 -0.00    +0.000 N 
DOCKED: ATOM     27  H   UNL     1      36.568   9.502 124.177 -0.43 -0.00    +0.000 HD
DOCKED: BRANCH  23  25
DOCKED: ATOM     28  O   UNL     1      37.291   7.734 123.489 -2.20 -0.00    +0.000 OA
DOCKED: ATOM     29  H   UNL     1      37.789   7.497 122.690 -0.30 -0.00    +0.000 HD
DOCKED: ENDBRANCH  23  25
DOCKED: ENDBRANCH  20  22
DOCKED: ENDBRANCH  19  20
DOCKED: ENDBRANCH  18  19
DOCKED: ENDBRANCH  17  18
DOCKED: ENDBRANCH  16  17
DOCKED: ENDBRANCH   1  16
DOCKED: TORSDOF 7DOCKED: TER
DOCKED: ENDMDL
________________________________________________________________________________


	BEGINNING GENETIC ALGORITHM DOCKING 9 of 100
Run: 9 Seed: 1628734267 1195898742 [ Run 9 of 100 GA/GALS ]
Beginning LAMARCKIAN GENETIC ALGORITHM (LGA), with a maximum of 2500000 energy evaluations.

Final-Value: -15.598


	FINAL GENETIC ALGORITHM DOCKED STATE
	_______________________________________________


Detailed state:  trans 35.816 15.783 124.994 quatxyzw 0.116437 -0.134786 0.617358 0.766254 center 0.154 0.111 -0.146 ntor 7 30.5184 108.9273 -179.7242 -162.0843 102.2535 86.7040 -15.2122
State:	 35.816  15.783 124.994   0.181 -0.210  0.961 79.963     30.52  108.93 -179.72 -162.08  102.25   86.70  -15.21

DOCKED: MODEL        9
DOCKED: USER    Run = 9
DOCKED: USER    DPF = ligand_dock.biased.dpf
DOCKED: USER  
DOCKED: USER    Estimated Free Energy of Binding    =  -12.53 kcal/mol  [=(1)+(2)+(3)-(4)]
DOCKED: USER    Estimated Inhibition Constant, Ki   =  658.00 pM (picomolar)  [Temperature = 298.15 K]
DOCKED: USER    
DOCKED: USER    (1) Final Intermolecular Energy     =  -14.61 kcal/mol
DOCKED: USER        vdW + Hbond + desolv Energy     =  -14.61 kcal/mol
DOCKED: USER        Electrostatic Energy            =   +0.00 kcal/mol
DOCKED: USER    (2) Final Total Internal Energy     =   -0.98 kcal/mol
DOCKED: USER    (3) Torsional Free Energy           =   +2.09 kcal/mol
DOCKED: USER    (4) Unbound System's Energy  [=(2)] =   -0.98 kcal/mol
DOCKED: USER    
DOCKED: USER    
DOCKED: USER    NEWDPF move ligand.dum.pdbqt
DOCKED: USER    NEWDPF about 0.154000 0.111000 -0.146000
DOCKED: USER    NEWDPF tran0 35.815898 15.783409 124.993710
DOCKED: USER    NEWDPF quaternion0 0.116437 -0.134786 0.617358 0.766254
DOCKED: USER    NEWDPF axisangle0 0.181214 -0.209771 0.960811 79.962716
DOCKED: USER    NEWDPF quat0 0.181214 -0.209771 0.960811 79.962716
DOCKED: USER    NEWDPF dihe0 30.52 108.93 -179.72 -162.08 102.25 86.70 -15.21 
DOCKED: USER  keepresnum = 1 
DOCKED: USER  
DOCKED: REMARK  Name = 
DOCKED: REMARK  7 active torsions:
DOCKED: REMARK  status: ('A' for Active; 'I' for Inactive)
DOCKED: REMARK    1  A    between atoms: C_2  and  C_5
DOCKED: REMARK    2  A    between atoms: N_3  and  O_4
DOCKED: REMARK    3  A    between atoms: C_5  and  C_6
DOCKED: REMARK    4  A    between atoms: C_6  and  C_7
DOCKED: REMARK    5  A    between atoms: C_7  and  C_8
DOCKED: REMARK    6  A    between atoms: C_8  and  C_9
DOCKED: REMARK    7  A    between atoms: C_9  and  N_10
DOCKED: REMARK                            x       y       z     vdW  Elec       q    Type
DOCKED: REMARK                         _______ _______ _______ _____ _____    ______ ____
DOCKED: USER                              x       y       z     vdW  Elec       q    Type
DOCKED: USER                           _______ _______ _______ _____ _____    ______ ____
DOCKED: ROOT
DOCKED: ATOM      1  N   UNL     1      34.626  16.220 124.195 -0.49 -0.00    +0.000 N 
DOCKED: ATOM      2  C   UNL     1      35.226  17.130 123.253 -0.37 -0.00    +0.000 C 
DOCKED: ATOM      3  C   UNL     1      35.502  18.531 123.647 -0.24 -0.00    +0.000 A 
DOCKED: ATOM      4  C   UNL     1      36.110  19.420 122.743 -0.17 -0.00    +0.000 A 
DOCKED: ATOM      5  C   UNL     1      36.374  20.739 123.115 -0.14 -0.00    +0.000 A 
DOCKED: ATOM      6  C   UNL     1      36.035  21.192 124.390 -0.14 -0.00    +0.000 A 
DOCKED: ATOM      7  C   UNL     1      35.428  20.325 125.308 -0.15 -0.00    +0.000 A 
DOCKED: ATOM      8  C   UNL     1      35.086  20.781 126.589 -0.11 -0.00    +0.000 A 
DOCKED: ATOM      9  C   UNL     1      34.480  19.919 127.502 -0.10 -0.00    +0.000 A 
DOCKED: ATOM     10  C   UNL     1      34.208  18.596 127.150 -0.20 -0.00    +0.000 A 
DOCKED: ATOM     11  C   UNL     1      34.541  18.115 125.871 -0.29 -0.00    +0.000 A 
DOCKED: ATOM     12  C   UNL     1      35.155  18.982 124.940 -0.23 -0.00    +0.000 A 
DOCKED: ATOM     13  O   UNL     1      35.515  16.736 122.089 -0.31 -0.00    +0.000 OA
DOCKED: ATOM     14  C   UNL     1      34.253  16.711 125.498 -0.44 -0.00    +0.000 C 
DOCKED: ATOM     15  O   UNL     1      33.681  15.949 126.324 -1.03 -0.00    +0.000 OA
DOCKED: ATOM     16  CM  UNL     1      34.877  17.577 124.558 -0.40 -0.00    +0.000 AC
DOCKED: ATOM     17  CM  UNL     1      35.768  19.864 124.024 -0.00 -0.00    +0.000 AC
DOCKED: ATOM     18  CM  UNL     1      34.816  19.453 126.227 -0.03 -0.00    +0.000 AC
DOCKED: ENDROOT
DOCKED: BRANCH   1  16
DOCKED: ATOM     19  C   UNL     1      34.434  14.805 123.835 -0.47 -0.00    +0.000 C 
DOCKED: BRANCH  16  17
DOCKED: ATOM     20  C   UNL     1      35.773  14.113 123.527 -0.53 -0.00    +0.000 C 
DOCKED: BRANCH  17  18
DOCKED: ATOM     21  C   UNL     1      35.791  12.605 123.842 -0.49 -0.00    +0.000 C 
DOCKED: BRANCH  18  19
DOCKED: ATOM     22  C   UNL     1      37.046  11.857 123.344 -0.67 -0.00    +0.000 C 
DOCKED: BRANCH  19  20
DOCKED: ATOM     23  C   UNL     1      36.878  11.163 121.983 -0.59 -0.00    +0.000 C 
DOCKED: BRANCH  20  22
DOCKED: ATOM     24  O   UNL     1      37.064   8.977 121.037 -2.72 -0.00    +0.000 OA
DOCKED: ATOM     25  C   UNL     1      37.043   9.674 122.086 -0.60 -0.00    +0.000 C 
DOCKED: ATOM     26  N   UNL     1      37.143   9.043 123.365 -0.57 -0.00    +0.000 N 
DOCKED: ATOM     27  H   UNL     1      37.119   9.589 124.182 -0.58 -0.00    +0.000 HD
DOCKED: BRANCH  23  25
DOCKED: ATOM     28  O   UNL     1      37.270   7.697 123.460 -2.22 -0.00    +0.000 OA
DOCKED: ATOM     29  H   UNL     1      37.743   7.361 122.682 -0.33 -0.00    +0.000 HD
DOCKED: ENDBRANCH  23  25
DOCKED: ENDBRANCH  20  22
DOCKED: ENDBRANCH  19  20
DOCKED: ENDBRANCH  18  19
DOCKED: ENDBRANCH  17  18
DOCKED: ENDBRANCH  16  17
DOCKED: ENDBRANCH   1  16
DOCKED: TORSDOF 7DOCKED: TER
DOCKED: ENDMDL
________________________________________________________________________________


	BEGINNING GENETIC ALGORITHM DOCKING 10 of 100
Run: 10 Seed: 1594976691 1856553741 [ Run 10 of 100 GA/GALS ]
Beginning LAMARCKIAN GENETIC ALGORITHM (LGA), with a maximum of 2500000 energy evaluations.

Final-Value: -13.878


	FINAL GENETIC ALGORITHM DOCKED STATE
	_______________________________________________


Detailed state:  trans 36.471 14.663 121.575 quatxyzw 0.709165 -0.633168 -0.220112 0.218480 center 0.154 0.111 -0.146 ntor 7 136.4216 -65.0172 180.0000 164.3681 174.4778 179.7069 -27.0007
State:	 36.471  14.663 121.575   0.727 -0.649 -0.226 154.760    136.42  -65.02  180.00  164.37  174.48  179.71  -27.00

DOCKED: MODEL       10
DOCKED: USER    Run = 10
DOCKED: USER    DPF = ligand_dock.biased.dpf
DOCKED: USER  
DOCKED: USER    Estimated Free Energy of Binding    =  -11.23 kcal/mol  [=(1)+(2)+(3)-(4)]
DOCKED: USER    Estimated Inhibition Constant, Ki   =    5.82 nM (nanomolar)  [Temperature = 298.15 K]
DOCKED: USER    
DOCKED: USER    (1) Final Intermolecular Energy     =  -13.32 kcal/mol
DOCKED: USER        vdW + Hbond + desolv Energy     =  -13.32 kcal/mol
DOCKED: USER        Electrostatic Energy            =   +0.00 kcal/mol
DOCKED: USER    (2) Final Total Internal Energy     =   -0.56 kcal/mol
DOCKED: USER    (3) Torsional Free Energy           =   +2.09 kcal/mol
DOCKED: USER    (4) Unbound System's Energy  [=(2)] =   -0.56 kcal/mol
DOCKED: USER    
DOCKED: USER    
DOCKED: USER    NEWDPF move ligand.dum.pdbqt
DOCKED: USER    NEWDPF about 0.154000 0.111000 -0.146000
DOCKED: USER    NEWDPF tran0 36.471234 14.662669 121.574958
DOCKED: USER    NEWDPF quaternion0 0.709165 -0.633168 -0.220112 0.218480
DOCKED: USER    NEWDPF axisangle0 0.726722 -0.648843 -0.225561 154.760426
DOCKED: USER    NEWDPF quat0 0.726722 -0.648843 -0.225561 154.760426
DOCKED: USER    NEWDPF dihe0 136.42 -65.02 180.00 164.37 174.48 179.71 -27.00 
DOCKED: USER  keepresnum = 1 
DOCKED: USER  
DOCKED: REMARK  Name = 
DOCKED: REMARK  7 active torsions:
DOCKED: REMARK  status: ('A' for Active; 'I' for Inactive)
DOCKED: REMARK    1  A    between atoms: C_2  and  C_5
DOCKED: REMARK    2  A    between atoms: N_3  and  O_4
DOCKED: REMARK    3  A    between atoms: C_5  and  C_6
DOCKED: REMARK    4  A    between atoms: C_6  and  C_7
DOCKED: REMARK    5  A    between atoms: C_7  and  C_8
DOCKED: REMARK    6  A    between atoms: C_8  and  C_9
DOCKED: REMARK    7  A    between atoms: C_9  and  N_10
DOCKED: REMARK                            x       y       z     vdW  Elec       q    Type
DOCKED: REMARK                         _______ _______ _______ _____ _____    ______ ____
DOCKED: USER                              x       y       z     vdW  Elec       q    Type
DOCKED: USER                           _______ _______ _______ _____ _____    ______ ____
DOCKED: ROOT
DOCKED: ATOM      1  N   UNL     1      37.167  14.548 122.897 -0.41 -0.00    +0.000 N 
DOCKED: ATOM      2  C   UNL     1      36.060  14.619 123.816 -0.52 -0.00    +0.000 C 
DOCKED: ATOM      3  C   UNL     1      35.497  15.934 124.201 -0.42 -0.00    +0.000 A 
DOCKED: ATOM      4  C   UNL     1      34.401  16.012 125.077 -0.45 -0.00    +0.000 A 
DOCKED: ATOM      5  C   UNL     1      33.868  17.250 125.439 -0.34 -0.00    +0.000 A 
DOCKED: ATOM      6  C   UNL     1      34.420  18.428 124.934 -0.30 -0.00    +0.000 A 
DOCKED: ATOM      7  C   UNL     1      35.514  18.375 124.059 -0.25 -0.00    +0.000 A 
DOCKED: ATOM      8  C   UNL     1      36.069  19.559 123.553 -0.17 -0.00    +0.000 A 
DOCKED: ATOM      9  C   UNL     1      37.159  19.508 122.685 -0.12 -0.00    +0.000 A 
DOCKED: ATOM     10  C   UNL     1      37.706  18.280 122.312 -0.10 -0.00    +0.000 A 
DOCKED: ATOM     11  C   UNL     1      37.167  17.078 122.806 -0.20 -0.00    +0.000 A 
DOCKED: ATOM     12  C   UNL     1      36.063  17.121 123.686 -0.28 -0.00    +0.000 A 
DOCKED: ATOM     13  O   UNL     1      35.568  13.560 124.295 -0.58 -0.00    +0.000 OA
DOCKED: ATOM     14  C   UNL     1      37.746  15.774 122.408 -0.31 -0.00    +0.000 C 
DOCKED: ATOM     15  O   UNL     1      38.748  15.742 121.643 -0.24 -0.00    +0.000 OA
DOCKED: ATOM     16  CM  UNL     1      36.632  15.811 123.291 +0.00 -0.00    +0.000 AC
DOCKED: ATOM     17  CM  UNL     1      34.960  17.187 124.566 -0.32 -0.00    +0.000 AC
DOCKED: ATOM     18  CM  UNL     1      36.613  18.321 123.183 -0.00 -0.00    +0.000 AC
DOCKED: ENDROOT
DOCKED: BRANCH   1  16
DOCKED: ATOM     19  C   UNL     1      37.668  13.240 122.443 -0.51 -0.00    +0.000 C 
DOCKED: BRANCH  16  17
DOCKED: ATOM     20  C   UNL     1      36.523  12.331 121.964 -0.52 -0.00    +0.000 C 
DOCKED: BRANCH  17  18
DOCKED: ATOM     21  C   UNL     1      36.339  11.052 122.802 -0.69 -0.00    +0.000 C 
DOCKED: BRANCH  18  19
DOCKED: ATOM     22  C   UNL     1      36.583   9.736 122.035 -0.66 -0.00    +0.000 C 
DOCKED: BRANCH  19  20
DOCKED: ATOM     23  C   UNL     1      35.460   8.696 122.177 -0.67 -0.00    +0.000 C 
DOCKED: BRANCH  20  22
DOCKED: ATOM     24  O   UNL     1      37.064   7.417 123.402 -2.15 -0.00    +0.000 OA
DOCKED: ATOM     25  C   UNL     1      35.941   7.433 122.830 -0.77 -0.00    +0.000 C 
DOCKED: ATOM     26  N   UNL     1      35.151   6.243 122.777 -0.68 -0.00    +0.000 N 
DOCKED: ATOM     27  H   UNL     1      34.278   6.256 122.322 -0.03 -0.00    +0.000 HD
DOCKED: BRANCH  23  25
DOCKED: ATOM     28  O   UNL     1      35.594   5.096 123.346 -1.03 -0.00    +0.000 OA
DOCKED: ATOM     29  H   UNL     1      34.867   4.673 123.831 -0.61 -0.00    +0.000 HD
DOCKED: ENDBRANCH  23  25
DOCKED: ENDBRANCH  20  22
DOCKED: ENDBRANCH  19  20
DOCKED: ENDBRANCH  18  19
DOCKED: ENDBRANCH  17  18
DOCKED: ENDBRANCH  16  17
DOCKED: ENDBRANCH   1  16
DOCKED: TORSDOF 7DOCKED: TER
DOCKED: ENDMDL
________________________________________________________________________________


	BEGINNING GENETIC ALGORITHM DOCKING 11 of 100
Run: 11 Seed: 685606221 1195710402 [ Run 11 of 100 GA/GALS ]
Beginning LAMARCKIAN GENETIC ALGORITHM (LGA), with a maximum of 2500000 energy evaluations.

Final-Value: -13.611


	FINAL GENETIC ALGORITHM DOCKED STATE
	_______________________________________________


Detailed state:  trans 39.761 14.395 120.518 quatxyzw -0.767979 -0.030359 -0.513564 -0.381495 center 0.154 0.111 -0.146 ntor 7 -12.8081 -124.2891 -144.3948 127.5559 -164.7922 49.9784 -152.5026
State:	 39.761  14.395 120.518  -0.831 -0.033 -0.556 -135.147    -12.81 -124.29 -144.39  127.56 -164.79   49.98 -152.50

DOCKED: MODEL       11
DOCKED: USER    Run = 11
DOCKED: USER    DPF = ligand_dock.biased.dpf
DOCKED: USER  
DOCKED: USER    Estimated Free Energy of Binding    =  -10.11 kcal/mol  [=(1)+(2)+(3)-(4)]
DOCKED: USER    Estimated Inhibition Constant, Ki   =   39.17 nM (nanomolar)  [Temperature = 298.15 K]
DOCKED: USER    
DOCKED: USER    (1) Final Intermolecular Energy     =  -12.19 kcal/mol
DOCKED: USER        vdW + Hbond + desolv Energy     =  -12.19 kcal/mol
DOCKED: USER        Electrostatic Energy            =   +0.00 kcal/mol
DOCKED: USER    (2) Final Total Internal Energy     =   -1.42 kcal/mol
DOCKED: USER    (3) Torsional Free Energy           =   +2.09 kcal/mol
DOCKED: USER    (4) Unbound System's Energy  [=(2)] =   -1.42 kcal/mol
DOCKED: USER    
DOCKED: USER    
DOCKED: USER    NEWDPF move ligand.dum.pdbqt
DOCKED: USER    NEWDPF about 0.154000 0.111000 -0.146000
DOCKED: USER    NEWDPF tran0 39.761244 14.394625 120.518206
DOCKED: USER    NEWDPF quaternion0 -0.767979 -0.030359 -0.513564 -0.381495
DOCKED: USER    NEWDPF axisangle0 -0.830813 -0.032843 -0.555582 -135.147407
DOCKED: USER    NEWDPF quat0 -0.830813 -0.032843 -0.555582 -135.147407
DOCKED: USER    NEWDPF dihe0 -12.81 -124.29 -144.39 127.56 -164.79 49.98 -152.50 
DOCKED: USER  keepresnum = 1 
DOCKED: USER  
DOCKED: REMARK  Name = 
DOCKED: REMARK  7 active torsions:
DOCKED: REMARK  status: ('A' for Active; 'I' for Inactive)
DOCKED: REMARK    1  A    between atoms: C_2  and  C_5
DOCKED: REMARK    2  A    between atoms: N_3  and  O_4
DOCKED: REMARK    3  A    between atoms: C_5  and  C_6
DOCKED: REMARK    4  A    between atoms: C_6  and  C_7
DOCKED: REMARK    5  A    between atoms: C_7  and  C_8
DOCKED: REMARK    6  A    between atoms: C_8  and  C_9
DOCKED: REMARK    7  A    between atoms: C_9  and  N_10
DOCKED: REMARK                            x       y       z     vdW  Elec       q    Type
DOCKED: REMARK                         _______ _______ _______ _____ _____    ______ ____
DOCKED: USER                              x       y       z     vdW  Elec       q    Type
DOCKED: USER                           _______ _______ _______ _____ _____    ______ ____
DOCKED: ROOT
DOCKED: ATOM      1  N   UNL     1      38.267  14.401 120.628 -0.30 -0.00    +0.000 N 
DOCKED: ATOM      2  C   UNL     1      37.894  13.485 119.581 -0.34 -0.00    +0.000 C 
DOCKED: ATOM      3  C   UNL     1      37.814  13.954 118.178 -0.27 -0.00    +0.000 A 
DOCKED: ATOM      4  C   UNL     1      37.475  13.062 117.146 -0.32 -0.00    +0.000 A 
DOCKED: ATOM      5  C   UNL     1      37.403  13.502 115.823 -0.37 -0.00    +0.000 A 
DOCKED: ATOM      6  C   UNL     1      37.666  14.835 115.510 -0.22 -0.00    +0.000 A 
DOCKED: ATOM      7  C   UNL     1      38.005  15.744 116.522 -0.13 -0.00    +0.000 A 
DOCKED: ATOM      8  C   UNL     1      38.268  17.085 116.207 -0.06 -0.00    +0.000 A 
DOCKED: ATOM      9  C   UNL     1      38.603  17.989 117.214 -0.03 -0.00    +0.000 A 
DOCKED: ATOM     10  C   UNL     1      38.681  17.569 118.542 -0.04 -0.00    +0.000 A 
DOCKED: ATOM     11  C   UNL     1      38.421  16.229 118.884 -0.12 -0.00    +0.000 A 
DOCKED: ATOM     12  C   UNL     1      38.081  15.306 117.870 -0.17 -0.00    +0.000 A 
DOCKED: ATOM     13  O   UNL     1      37.632  12.282 119.858 -0.54 -0.00    +0.000 OA
DOCKED: ATOM     14  C   UNL     1      38.505  15.783 120.294 -0.19 -0.00    +0.000 C 
DOCKED: ATOM     15  O   UNL     1      38.784  16.617 121.198 -0.14 -0.00    +0.000 OA
DOCKED: ATOM     16  CM  UNL     1      38.167  14.848 119.277 +0.00 -0.00    +0.000 AC
DOCKED: ATOM     17  CM  UNL     1      37.741  14.400 116.842 +0.00 -0.00    +0.000 AC
DOCKED: ATOM     18  CM  UNL     1      38.343  16.654 117.540 +0.00 -0.00    +0.000 AC
DOCKED: ENDROOT
DOCKED: BRANCH   1  16
DOCKED: ATOM     19  C   UNL     1      38.435  13.917 122.009 -0.42 -0.00    +0.000 C 
DOCKED: BRANCH  16  17
DOCKED: ATOM     20  C   UNL     1      37.077  13.682 122.694 -0.52 -0.00    +0.000 C 
DOCKED: BRANCH  17  18
DOCKED: ATOM     21  C   UNL     1      36.783  12.205 123.022 -0.66 -0.00    +0.000 C 
DOCKED: BRANCH  18  19
DOCKED: ATOM     22  C   UNL     1      35.933  11.467 121.967 -0.52 -0.00    +0.000 C 
DOCKED: BRANCH  19  20
DOCKED: ATOM     23  C   UNL     1      35.364  10.118 122.435 -0.64 -0.00    +0.000 C 
DOCKED: BRANCH  20  22
DOCKED: ATOM     24  O   UNL     1      37.032   8.892 121.241 -2.64 -0.00    +0.000 OA
DOCKED: ATOM     25  C   UNL     1      36.367   9.008 122.305 -0.73 -0.00    +0.000 C 
DOCKED: ATOM     26  N   UNL     1      36.547   8.066 123.366 -0.71 -0.00    +0.000 N 
DOCKED: ATOM     27  H   UNL     1      36.021   8.155 124.192 -0.15 -0.00    +0.000 HD
DOCKED: BRANCH  23  25
DOCKED: ATOM     28  O   UNL     1      37.435   7.051 123.241 -1.60 -0.00    +0.000 OA
DOCKED: ATOM     29  H   UNL     1      37.718   6.980 122.315 -0.37 -0.00    +0.000 HD
DOCKED: ENDBRANCH  23  25
DOCKED: ENDBRANCH  20  22
DOCKED: ENDBRANCH  19  20
DOCKED: ENDBRANCH  18  19
DOCKED: ENDBRANCH  17  18
DOCKED: ENDBRANCH  16  17
DOCKED: ENDBRANCH   1  16
DOCKED: TORSDOF 7DOCKED: TER
DOCKED: ENDMDL
________________________________________________________________________________


	BEGINNING GENETIC ALGORITHM DOCKING 12 of 100
Run: 12 Seed: 1612846469 1967646254 [ Run 12 of 100 GA/GALS ]
Beginning LAMARCKIAN GENETIC ALGORITHM (LGA), with a maximum of 2500000 energy evaluations.

Final-Value: -15.300


	FINAL GENETIC ALGORITHM DOCKED STATE
	_______________________________________________


Detailed state:  trans 37.576 15.089 124.016 quatxyzw -0.009194 -0.163788 -0.933856 -0.317808 center 0.154 0.111 -0.146 ntor 7 20.6072 -175.4779 178.6845 -154.8651 -125.7389 -132.7587 16.3558
State:	 37.576  15.089 124.016  -0.010 -0.173 -0.985 -142.939     20.61 -175.48  178.68 -154.87 -125.74 -132.76   16.36

DOCKED: MODEL       12
DOCKED: USER    Run = 12
DOCKED: USER    DPF = ligand_dock.biased.dpf
DOCKED: USER  
DOCKED: USER    Estimated Free Energy of Binding    =  -11.85 kcal/mol  [=(1)+(2)+(3)-(4)]
DOCKED: USER    Estimated Inhibition Constant, Ki   =    2.07 nM (nanomolar)  [Temperature = 298.15 K]
DOCKED: USER    
DOCKED: USER    (1) Final Intermolecular Energy     =  -13.94 kcal/mol
DOCKED: USER        vdW + Hbond + desolv Energy     =  -13.94 kcal/mol
DOCKED: USER        Electrostatic Energy            =   +0.00 kcal/mol
DOCKED: USER    (2) Final Total Internal Energy     =   -1.36 kcal/mol
DOCKED: USER    (3) Torsional Free Energy           =   +2.09 kcal/mol
DOCKED: USER    (4) Unbound System's Energy  [=(2)] =   -1.36 kcal/mol
DOCKED: USER    
DOCKED: USER    
DOCKED: USER    NEWDPF move ligand.dum.pdbqt
DOCKED: USER    NEWDPF about 0.154000 0.111000 -0.146000
DOCKED: USER    NEWDPF tran0 37.575728 15.088747 124.015544
DOCKED: USER    NEWDPF quaternion0 -0.009194 -0.163788 -0.933856 -0.317808
DOCKED: USER    NEWDPF axisangle0 -0.009697 -0.172744 -0.984919 -142.939188
DOCKED: USER    NEWDPF quat0 -0.009697 -0.172744 -0.984919 -142.939188
DOCKED: USER    NEWDPF dihe0 20.61 -175.48 178.68 -154.87 -125.74 -132.76 16.36 
DOCKED: USER  keepresnum = 1 
DOCKED: USER  
DOCKED: REMARK  Name = 
DOCKED: REMARK  7 active torsions:
DOCKED: REMARK  status: ('A' for Active; 'I' for Inactive)
DOCKED: REMARK    1  A    between atoms: C_2  and  C_5
DOCKED: REMARK    2  A    between atoms: N_3  and  O_4
DOCKED: REMARK    3  A    between atoms: C_5  and  C_6
DOCKED: REMARK    4  A    between atoms: C_6  and  C_7
DOCKED: REMARK    5  A    between atoms: C_7  and  C_8
DOCKED: REMARK    6  A    between atoms: C_8  and  C_9
DOCKED: REMARK    7  A    between atoms: C_9  and  N_10
DOCKED: REMARK                            x       y       z     vdW  Elec       q    Type
DOCKED: REMARK                         _______ _______ _______ _____ _____    ______ ____
DOCKED: USER                              x       y       z     vdW  Elec       q    Type
DOCKED: USER                           _______ _______ _______ _____ _____    ______ ____
DOCKED: ROOT
DOCKED: ATOM      1  N   UNL     1      37.738  15.628 122.627 -0.29 -0.00    +0.000 N 
DOCKED: ATOM      2  C   UNL     1      38.997  15.048 122.235 -0.39 -0.00    +0.000 C 
DOCKED: ATOM      3  C   UNL     1      40.268  15.682 122.653 -0.34 -0.00    +0.000 A 
DOCKED: ATOM      4  C   UNL     1      41.503  15.110 122.297 -0.46 -0.00    +0.000 A 
DOCKED: ATOM      5  C   UNL     1      42.701  15.705 122.693 -0.36 -0.00    +0.000 A 
DOCKED: ATOM      6  C   UNL     1      42.689  16.878 123.448 -0.31 -0.00    +0.000 A 
DOCKED: ATOM      7  C   UNL     1      41.471  17.468 123.815 -0.32 -0.00    +0.000 A 
DOCKED: ATOM      8  C   UNL     1      41.459  18.647 124.573 -0.18 -0.00    +0.000 A 
DOCKED: ATOM      9  C   UNL     1      40.248  19.235 124.936 -0.17 -0.00    +0.000 A 
DOCKED: ATOM     10  C   UNL     1      39.039  18.656 124.549 -0.16 -0.00    +0.000 A 
DOCKED: ATOM     11  C   UNL     1      39.024  17.472 123.789 -0.21 -0.00    +0.000 A 
DOCKED: ATOM     12  C   UNL     1      40.247  16.870 123.417 -0.22 -0.00    +0.000 A 
DOCKED: ATOM     13  O   UNL     1      39.019  13.999 121.533 -0.67 -0.00    +0.000 OA
DOCKED: ATOM     14  C   UNL     1      37.741  16.857 123.381 -0.26 -0.00    +0.000 C 
DOCKED: ATOM     15  O   UNL     1      36.653  17.413 123.694 -0.26 -0.00    +0.000 OA
DOCKED: ATOM     16  CM  UNL     1      38.968  16.243 123.007 +0.00 -0.00    +0.000 AC
DOCKED: ATOM     17  CM  UNL     1      41.480  16.285 123.054 +0.00 -0.00    +0.000 AC
DOCKED: ATOM     18  CM  UNL     1      40.248  18.059 124.180 +0.00 -0.00    +0.000 AC
DOCKED: ENDROOT
DOCKED: BRANCH   1  16
DOCKED: ATOM     19  C   UNL     1      36.475  14.950 122.289 -0.26 -0.00    +0.000 C 
DOCKED: BRANCH  16  17
DOCKED: ATOM     20  C   UNL     1      36.016  14.014 123.421 -0.54 -0.00    +0.000 C 
DOCKED: BRANCH  17  18
DOCKED: ATOM     21  C   UNL     1      36.908  12.772 123.614 -0.60 -0.00    +0.000 C 
DOCKED: BRANCH  18  19
DOCKED: ATOM     22  C   UNL     1      37.070  11.892 122.358 -0.60 -0.00    +0.000 C 
DOCKED: BRANCH  19  20
DOCKED: ATOM     23  C   UNL     1      35.998  10.801 122.200 -0.62 -0.00    +0.000 C 
DOCKED: BRANCH  20  22
DOCKED: ATOM     24  O   UNL     1      36.817   8.846 121.095 -2.64 -0.00    +0.000 OA
DOCKED: ATOM     25  C   UNL     1      36.594   9.423 122.194 -0.71 -0.00    +0.000 C 
DOCKED: ATOM     26  N   UNL     1      36.878   8.750 123.423 -0.62 -0.00    +0.000 N 
DOCKED: ATOM     27  H   UNL     1      36.695   9.200 124.279 -0.39 -0.00    +0.000 HD
DOCKED: BRANCH  23  25
DOCKED: ATOM     28  O   UNL     1      37.394   7.498 123.419 -2.07 -0.00    +0.000 OA
DOCKED: ATOM     29  H   UNL     1      37.812   7.322 122.561 -0.28 -0.00    +0.000 HD
DOCKED: ENDBRANCH  23  25
DOCKED: ENDBRANCH  20  22
DOCKED: ENDBRANCH  19  20
DOCKED: ENDBRANCH  18  19
DOCKED: ENDBRANCH  17  18
DOCKED: ENDBRANCH  16  17
DOCKED: ENDBRANCH   1  16
DOCKED: TORSDOF 7DOCKED: TER
DOCKED: ENDMDL
________________________________________________________________________________


	BEGINNING GENETIC ALGORITHM DOCKING 13 of 100
Run: 13 Seed: 1843914709 855544507 [ Run 13 of 100 GA/GALS ]
Beginning LAMARCKIAN GENETIC ALGORITHM (LGA), with a maximum of 2500000 energy evaluations.

Final-Value: -13.742


	FINAL GENETIC ALGORITHM DOCKED STATE
	_______________________________________________


Detailed state:  trans 37.199 17.070 121.986 quatxyzw 0.232941 -0.877729 -0.129358 0.398241 center 0.154 0.111 -0.146 ntor 7 15.5340 -152.3803 174.7487 -119.0566 179.8490 -139.1833 -174.9374
State:	 37.199  17.070 121.986   0.254 -0.957 -0.141 133.063     15.53 -152.38  174.75 -119.06  179.85 -139.18 -174.94

DOCKED: MODEL       13
DOCKED: USER    Run = 13
DOCKED: USER    DPF = ligand_dock.biased.dpf
DOCKED: USER  
DOCKED: USER    Estimated Free Energy of Binding    =  -10.46 kcal/mol  [=(1)+(2)+(3)-(4)]
DOCKED: USER    Estimated Inhibition Constant, Ki   =   21.61 nM (nanomolar)  [Temperature = 298.15 K]
DOCKED: USER    
DOCKED: USER    (1) Final Intermolecular Energy     =  -12.55 kcal/mol
DOCKED: USER        vdW + Hbond + desolv Energy     =  -12.55 kcal/mol
DOCKED: USER        Electrostatic Energy            =   +0.00 kcal/mol
DOCKED: USER    (2) Final Total Internal Energy     =   -1.20 kcal/mol
DOCKED: USER    (3) Torsional Free Energy           =   +2.09 kcal/mol
DOCKED: USER    (4) Unbound System's Energy  [=(2)] =   -1.20 kcal/mol
DOCKED: USER    
DOCKED: USER    
DOCKED: USER    NEWDPF move ligand.dum.pdbqt
DOCKED: USER    NEWDPF about 0.154000 0.111000 -0.146000
DOCKED: USER    NEWDPF tran0 37.199069 17.070249 121.985673
DOCKED: USER    NEWDPF quaternion0 0.232941 -0.877729 -0.129358 0.398241
DOCKED: USER    NEWDPF axisangle0 0.253947 -0.956882 -0.141023 133.063422
DOCKED: USER    NEWDPF quat0 0.253947 -0.956882 -0.141023 133.063422
DOCKED: USER    NEWDPF dihe0 15.53 -152.38 174.75 -119.06 179.85 -139.18 -174.94 
DOCKED: USER  keepresnum = 1 
DOCKED: USER  
DOCKED: REMARK  Name = 
DOCKED: REMARK  7 active torsions:
DOCKED: REMARK  status: ('A' for Active; 'I' for Inactive)
DOCKED: REMARK    1  A    between atoms: C_2  and  C_5
DOCKED: REMARK    2  A    between atoms: N_3  and  O_4
DOCKED: REMARK    3  A    between atoms: C_5  and  C_6
DOCKED: REMARK    4  A    between atoms: C_6  and  C_7
DOCKED: REMARK    5  A    between atoms: C_7  and  C_8
DOCKED: REMARK    6  A    between atoms: C_8  and  C_9
DOCKED: REMARK    7  A    between atoms: C_9  and  N_10
DOCKED: REMARK                            x       y       z     vdW  Elec       q    Type
DOCKED: REMARK                         _______ _______ _______ _____ _____    ______ ____
DOCKED: USER                              x       y       z     vdW  Elec       q    Type
DOCKED: USER                           _______ _______ _______ _____ _____    ______ ____
DOCKED: ROOT
DOCKED: ATOM      1  N   UNL     1      37.181  16.161 123.177 -0.29 -0.00    +0.000 N 
DOCKED: ATOM      2  C   UNL     1      36.621  17.020 124.189 -0.26 -0.00    +0.000 C 
DOCKED: ATOM      3  C   UNL     1      37.487  17.982 124.909 -0.06 -0.00    +0.000 A 
DOCKED: ATOM      4  C   UNL     1      36.945  18.841 125.881 -0.14 -0.00    +0.000 A 
DOCKED: ATOM      5  C   UNL     1      37.760  19.750 126.558 -0.11 -0.00    +0.000 A 
DOCKED: ATOM      6  C   UNL     1      39.125  19.816 126.278 -0.11 -0.00    +0.000 A 
DOCKED: ATOM      7  C   UNL     1      39.688  18.969 125.313 -0.18 -0.00    +0.000 A 
DOCKED: ATOM      8  C   UNL     1      41.061  19.034 125.032 -0.21 -0.00    +0.000 A 
DOCKED: ATOM      9  C   UNL     1      41.622  18.191 124.075 -0.23 -0.00    +0.000 A 
DOCKED: ATOM     10  C   UNL     1      40.824  17.275 123.388 -0.28 -0.00    +0.000 A 
DOCKED: ATOM     11  C   UNL     1      39.445  17.190 123.651 -0.20 -0.00    +0.000 A 
DOCKED: ATOM     12  C   UNL     1      38.869  18.041 124.620 -0.19 -0.00    +0.000 A 
DOCKED: ATOM     13  O   UNL     1      35.391  16.952 124.466 -0.38 -0.00    +0.000 OA
DOCKED: ATOM     14  C   UNL     1      38.599  16.219 122.920 -0.29 -0.00    +0.000 C 
DOCKED: ATOM     15  O   UNL     1      39.123  15.444 122.075 -0.33 -0.00    +0.000 OA
DOCKED: ATOM     16  CM  UNL     1      38.011  17.077 123.891 +0.00 -0.00    +0.000 AC
DOCKED: ATOM     17  CM  UNL     1      38.312  18.900 125.593 +0.00 -0.00    +0.000 AC
DOCKED: ATOM     18  CM  UNL     1      40.252  18.117 124.347 +0.00 -0.00    +0.000 AC
DOCKED: ENDROOT
DOCKED: BRANCH   1  16
DOCKED: ATOM     19  C   UNL     1      36.306  15.269 122.398 -0.28 -0.00    +0.000 C 
DOCKED: BRANCH  16  17
DOCKED: ATOM     20  C   UNL     1      36.329  13.833 122.948 -0.50 -0.00    +0.000 C 
DOCKED: BRANCH  17  18
DOCKED: ATOM     21  C   UNL     1      37.607  13.045 122.601 -0.52 -0.00    +0.000 C 
DOCKED: BRANCH  18  19
DOCKED: ATOM     22  C   UNL     1      37.399  11.883 121.607 -0.46 -0.00    +0.000 C 
DOCKED: BRANCH  19  20
DOCKED: ATOM     23  C   UNL     1      36.295  10.892 122.005 -0.61 -0.00    +0.000 C 
DOCKED: BRANCH  20  22
DOCKED: ATOM     24  O   UNL     1      37.061   8.841 121.047 -2.70 -0.00    +0.000 OA
DOCKED: ATOM     25  C   UNL     1      36.809   9.484 122.101 -0.68 -0.00    +0.000 C 
DOCKED: ATOM     26  N   UNL     1      36.981   8.861 123.376 -0.62 -0.00    +0.000 N 
DOCKED: ATOM     27  H   UNL     1      36.776   9.363 124.197 -0.50 -0.00    +0.000 HD
DOCKED: BRANCH  23  25
DOCKED: ATOM     28  O   UNL     1      37.424   7.584 123.464 -2.11 -0.00    +0.000 OA
DOCKED: ATOM     29  H   UNL     1      37.808   7.315 122.614 -0.33 -0.00    +0.000 HD
DOCKED: ENDBRANCH  23  25
DOCKED: ENDBRANCH  20  22
DOCKED: ENDBRANCH  19  20
DOCKED: ENDBRANCH  18  19
DOCKED: ENDBRANCH  17  18
DOCKED: ENDBRANCH  16  17
DOCKED: ENDBRANCH   1  16
DOCKED: TORSDOF 7DOCKED: TER
DOCKED: ENDMDL
________________________________________________________________________________


	BEGINNING GENETIC ALGORITHM DOCKING 14 of 100
Run: 14 Seed: 2134454373 1071196937 [ Run 14 of 100 GA/GALS ]
Beginning LAMARCKIAN GENETIC ALGORITHM (LGA), with a maximum of 2500000 energy evaluations.

Final-Value: -14.445


	FINAL GENETIC ALGORITHM DOCKED STATE
	_______________________________________________


Detailed state:  trans 34.648 16.454 122.491 quatxyzw -0.616532 0.720793 0.273750 -0.159393 center 0.154 0.111 -0.146 ntor 7 3.2067 139.8249 -166.4738 154.7818 -8.5416 106.6693 -122.1097
State:	 34.648  16.454 122.491  -0.625  0.730  0.277 -161.657      3.21  139.82 -166.47  154.78   -8.54  106.67 -122.11

DOCKED: MODEL       14
DOCKED: USER    Run = 14
DOCKED: USER    DPF = ligand_dock.biased.dpf
DOCKED: USER  
DOCKED: USER    Estimated Free Energy of Binding    =  -11.31 kcal/mol  [=(1)+(2)+(3)-(4)]
DOCKED: USER    Estimated Inhibition Constant, Ki   =    5.15 nM (nanomolar)  [Temperature = 298.15 K]
DOCKED: USER    
DOCKED: USER    (1) Final Intermolecular Energy     =  -13.40 kcal/mol
DOCKED: USER        vdW + Hbond + desolv Energy     =  -13.40 kcal/mol
DOCKED: USER        Electrostatic Energy            =   +0.00 kcal/mol
DOCKED: USER    (2) Final Total Internal Energy     =   -1.05 kcal/mol
DOCKED: USER    (3) Torsional Free Energy           =   +2.09 kcal/mol
DOCKED: USER    (4) Unbound System's Energy  [=(2)] =   -1.05 kcal/mol
DOCKED: USER    
DOCKED: USER    
DOCKED: USER    NEWDPF move ligand.dum.pdbqt
DOCKED: USER    NEWDPF about 0.154000 0.111000 -0.146000
DOCKED: USER    NEWDPF tran0 34.648420 16.454280 122.491490
DOCKED: USER    NEWDPF quaternion0 -0.616532 0.720793 0.273750 -0.159393
DOCKED: USER    NEWDPF axisangle0 -0.624517 0.730128 0.277295 -161.656678
DOCKED: USER    NEWDPF quat0 -0.624517 0.730128 0.277295 -161.656678
DOCKED: USER    NEWDPF dihe0 3.21 139.82 -166.47 154.78 -8.54 106.67 -122.11 
DOCKED: USER  keepresnum = 1 
DOCKED: USER  
DOCKED: REMARK  Name = 
DOCKED: REMARK  7 active torsions:
DOCKED: REMARK  status: ('A' for Active; 'I' for Inactive)
DOCKED: REMARK    1  A    between atoms: C_2  and  C_5
DOCKED: REMARK    2  A    between atoms: N_3  and  O_4
DOCKED: REMARK    3  A    between atoms: C_5  and  C_6
DOCKED: REMARK    4  A    between atoms: C_6  and  C_7
DOCKED: REMARK    5  A    between atoms: C_7  and  C_8
DOCKED: REMARK    6  A    between atoms: C_8  and  C_9
DOCKED: REMARK    7  A    between atoms: C_9  and  N_10
DOCKED: REMARK                            x       y       z     vdW  Elec       q    Type
DOCKED: REMARK                         _______ _______ _______ _____ _____    ______ ____
DOCKED: USER                              x       y       z     vdW  Elec       q    Type
DOCKED: USER                           _______ _______ _______ _____ _____    ______ ____
DOCKED: ROOT
DOCKED: ATOM      1  N   UNL     1      35.594  16.197 123.625 -0.38 -0.00    +0.000 N 
DOCKED: ATOM      2  C   UNL     1      34.759  16.471 124.767 -0.48 -0.00    +0.000 C 
DOCKED: ATOM      3  C   UNL     1      34.558  17.866 125.222 -0.33 -0.00    +0.000 A 
DOCKED: ATOM      4  C   UNL     1      33.726  18.146 126.321 -0.31 -0.00    +0.000 A 
DOCKED: ATOM      5  C   UNL     1      33.533  19.461 126.748 -0.20 -0.00    +0.000 A 
DOCKED: ATOM      6  C   UNL     1      34.167  20.515 126.090 -0.16 -0.00    +0.000 A 
DOCKED: ATOM      7  C   UNL     1      35.002  20.261 124.993 -0.10 -0.00    +0.000 A 
DOCKED: ATOM      8  C   UNL     1      35.639  21.321 124.332 -0.12 -0.00    +0.000 A 
DOCKED: ATOM      9  C   UNL     1      36.472  21.069 123.243 -0.13 -0.00    +0.000 A 
DOCKED: ATOM     10  C   UNL     1      36.677  19.761 122.800 -0.14 -0.00    +0.000 A 
DOCKED: ATOM     11  C   UNL     1      36.049  18.681 123.446 -0.20 -0.00    +0.000 A 
DOCKED: ATOM     12  C   UNL     1      35.204  18.928 124.550 -0.23 -0.00    +0.000 A 
DOCKED: ATOM     13  O   UNL     1      34.200  15.522 125.383 -0.69 -0.00    +0.000 OA
DOCKED: ATOM     14  C   UNL     1      36.266  17.294 122.975 -0.27 -0.00    +0.000 C 
DOCKED: ATOM     15  O   UNL     1      37.042  17.077 122.004 -0.18 -0.00    +0.000 OA
DOCKED: ATOM     16  CM  UNL     1      35.411  17.536 124.085 -0.21 -0.00    +0.000 AC
DOCKED: ATOM     17  CM  UNL     1      34.365  19.196 125.654 -0.08 -0.00    +0.000 AC
DOCKED: ATOM     18  CM  UNL     1      35.841  20.004 123.894 -0.00 -0.00    +0.000 AC
DOCKED: ENDROOT
DOCKED: BRANCH   1  16
DOCKED: ATOM     19  C   UNL     1      35.722  14.821 123.117 -0.37 -0.00    +0.000 C 
DOCKED: BRANCH  16  17
DOCKED: ATOM     20  C   UNL     1      35.965  13.818 124.257 -0.36 -0.00    +0.000 C 
DOCKED: BRANCH  17  18
DOCKED: ATOM     21  C   UNL     1      35.879  12.341 123.828 -0.58 -0.00    +0.000 C 
DOCKED: BRANCH  18  19
DOCKED: ATOM     22  C   UNL     1      36.899  11.922 122.749 -0.64 -0.00    +0.000 C 
DOCKED: BRANCH  19  20
DOCKED: ATOM     23  C   UNL     1      36.334  10.991 121.664 -0.38 -0.00    +0.000 C 
DOCKED: BRANCH  20  22
DOCKED: ATOM     24  O   UNL     1      37.059   8.867 120.843 -2.72 -0.00    +0.000 OA
DOCKED: ATOM     25  C   UNL     1      36.783   9.570 121.852 -0.62 -0.00    +0.000 C 
DOCKED: ATOM     26  N   UNL     1      36.864   9.003 123.162 -0.65 -0.00    +0.000 N 
DOCKED: ATOM     27  H   UNL     1      36.640   9.553 123.946 -0.43 -0.00    +0.000 HD
DOCKED: BRANCH  23  25
DOCKED: ATOM     28  O   UNL     1      37.247   7.715 123.331 -2.24 -0.00    +0.000 OA
DOCKED: ATOM     29  H   UNL     1      37.480   7.330 122.471 -0.17 -0.00    +0.000 HD
DOCKED: ENDBRANCH  23  25
DOCKED: ENDBRANCH  20  22
DOCKED: ENDBRANCH  19  20
DOCKED: ENDBRANCH  18  19
DOCKED: ENDBRANCH  17  18
DOCKED: ENDBRANCH  16  17
DOCKED: ENDBRANCH   1  16
DOCKED: TORSDOF 7DOCKED: TER
DOCKED: ENDMDL
________________________________________________________________________________


	BEGINNING GENETIC ALGORITHM DOCKING 15 of 100
Run: 15 Seed: 446039304 1288771609 [ Run 15 of 100 GA/GALS ]
Beginning LAMARCKIAN GENETIC ALGORITHM (LGA), with a maximum of 2500000 energy evaluations.

Final-Value: -15.257


	FINAL GENETIC ALGORITHM DOCKED STATE
	_______________________________________________


Detailed state:  trans 35.355 14.955 121.649 quatxyzw -0.670222 0.672906 0.298945 -0.092910 center 0.154 0.111 -0.146 ntor 7 -3.1282 134.6883 -9.8457 13.5726 -63.0428 48.8580 -141.9967
State:	 35.355  14.955 121.649  -0.673  0.676  0.300 -169.338     -3.13  134.69   -9.85   13.57  -63.04   48.86 -142.00

DOCKED: MODEL       15
DOCKED: USER    Run = 15
DOCKED: USER    DPF = ligand_dock.biased.dpf
DOCKED: USER  
DOCKED: USER    Estimated Free Energy of Binding    =  -11.70 kcal/mol  [=(1)+(2)+(3)-(4)]
DOCKED: USER    Estimated Inhibition Constant, Ki   =    2.65 nM (nanomolar)  [Temperature = 298.15 K]
DOCKED: USER    
DOCKED: USER    (1) Final Intermolecular Energy     =  -13.79 kcal/mol
DOCKED: USER        vdW + Hbond + desolv Energy     =  -13.79 kcal/mol
DOCKED: USER        Electrostatic Energy            =   +0.00 kcal/mol
DOCKED: USER    (2) Final Total Internal Energy     =   -1.47 kcal/mol
DOCKED: USER    (3) Torsional Free Energy           =   +2.09 kcal/mol
DOCKED: USER    (4) Unbound System's Energy  [=(2)] =   -1.47 kcal/mol
DOCKED: USER    
DOCKED: USER    
DOCKED: USER    NEWDPF move ligand.dum.pdbqt
DOCKED: USER    NEWDPF about 0.154000 0.111000 -0.146000
DOCKED: USER    NEWDPF tran0 35.354796 14.955303 121.649133
DOCKED: USER    NEWDPF quaternion0 -0.670222 0.672906 0.298945 -0.092910
DOCKED: USER    NEWDPF axisangle0 -0.673134 0.675829 0.300243 -169.337875
DOCKED: USER    NEWDPF quat0 -0.673134 0.675829 0.300243 -169.337875
DOCKED: USER    NEWDPF dihe0 -3.13 134.69 -9.85 13.57 -63.04 48.86 -142.00 
DOCKED: USER  keepresnum = 1 
DOCKED: USER  
DOCKED: REMARK  Name = 
DOCKED: REMARK  7 active torsions:
DOCKED: REMARK  status: ('A' for Active; 'I' for Inactive)
DOCKED: REMARK    1  A    between atoms: C_2  and  C_5
DOCKED: REMARK    2  A    between atoms: N_3  and  O_4
DOCKED: REMARK    3  A    between atoms: C_5  and  C_6
DOCKED: REMARK    4  A    between atoms: C_6  and  C_7
DOCKED: REMARK    5  A    between atoms: C_7  and  C_8
DOCKED: REMARK    6  A    between atoms: C_8  and  C_9
DOCKED: REMARK    7  A    between atoms: C_9  and  N_10
DOCKED: REMARK                            x       y       z     vdW  Elec       q    Type
DOCKED: REMARK                         _______ _______ _______ _____ _____    ______ ____
DOCKED: USER                              x       y       z     vdW  Elec       q    Type
DOCKED: USER                           _______ _______ _______ _____ _____    ______ ____
DOCKED: ROOT
DOCKED: ATOM      1  N   UNL     1      36.417  14.921 122.705 -0.36 -0.00    +0.000 N 
DOCKED: ATOM      2  C   UNL     1      35.639  15.092 123.906 -0.52 -0.00    +0.000 C 
DOCKED: ATOM      3  C   UNL     1      35.224  16.447 124.336 -0.40 -0.00    +0.000 A 
DOCKED: ATOM      4  C   UNL     1      34.444  16.621 125.492 -0.35 -0.00    +0.000 A 
DOCKED: ATOM      5  C   UNL     1      34.050  17.898 125.897 -0.33 -0.00    +0.000 A 
DOCKED: ATOM      6  C   UNL     1      34.428  19.018 125.157 -0.23 -0.00    +0.000 A 
DOCKED: ATOM      7  C   UNL     1      35.207  18.870 124.000 -0.21 -0.00    +0.000 A 
DOCKED: ATOM      8  C   UNL     1      35.588  19.996 123.257 +0.07 -0.00    +0.000 A 
DOCKED: ATOM      9  C   UNL     1      36.364  19.849 122.108 -0.12 -0.00    +0.000 A 
DOCKED: ATOM     10  C   UNL     1      36.768  18.582 121.688 -0.13 -0.00    +0.000 A 
DOCKED: ATOM     11  C   UNL     1      36.399  17.436 122.416 -0.20 -0.00    +0.000 A 
DOCKED: ATOM     12  C   UNL     1      35.612  17.577 123.581 -0.28 -0.00    +0.000 A 
DOCKED: ATOM     13  O   UNL     1      35.311  14.086 124.594 -0.46 -0.00    +0.000 OA
DOCKED: ATOM     14  C   UNL     1      36.826  16.091 121.968 -0.26 -0.00    +0.000 C 
DOCKED: ATOM     15  O   UNL     1      37.550  15.973 120.942 -0.20 -0.00    +0.000 OA
DOCKED: ATOM     16  CM  UNL     1      36.031  16.225 123.140 +0.00 -0.00    +0.000 AC
DOCKED: ATOM     17  CM  UNL     1      34.827  17.738 124.743 -0.45 -0.00    +0.000 AC
DOCKED: ATOM     18  CM  UNL     1      35.990  18.719 122.842 -0.00 -0.00    +0.000 AC
DOCKED: ENDROOT
DOCKED: BRANCH   1  16
DOCKED: ATOM     19  C   UNL     1      36.753  13.569 122.228 -0.45 -0.00    +0.000 C 
DOCKED: BRANCH  16  17
DOCKED: ATOM     20  C   UNL     1      37.696  12.844 123.203 -0.48 -0.00    +0.000 C 
DOCKED: BRANCH  17  18
DOCKED: ATOM     21  C   UNL     1      37.059  11.633 123.914 -0.63 -0.00    +0.000 C 
DOCKED: BRANCH  18  19
DOCKED: ATOM     22  C   UNL     1      35.643  11.268 123.424 -0.60 -0.00    +0.000 C 
DOCKED: BRANCH  19  20
DOCKED: ATOM     23  C   UNL     1      35.607  10.466 122.113 -0.51 -0.00    +0.000 C 
DOCKED: BRANCH  20  22
DOCKED: ATOM     24  O   UNL     1      37.066   8.852 121.124 -2.70 -0.00    +0.000 OA
DOCKED: ATOM     25  C   UNL     1      36.491   9.253 122.171 -0.71 -0.00    +0.000 C 
DOCKED: ATOM     26  N   UNL     1      36.655   8.534 123.396 -0.65 -0.00    +0.000 N 
DOCKED: ATOM     27  H   UNL     1      36.198   8.845 124.209 -0.28 -0.00    +0.000 HD
DOCKED: BRANCH  23  25
DOCKED: ATOM     28  O   UNL     1      37.434   7.427 123.444 -2.02 -0.00    +0.000 OA
DOCKED: ATOM     29  H   UNL     1      37.769   7.228 122.555 -0.32 -0.00    +0.000 HD
DOCKED: ENDBRANCH  23  25
DOCKED: ENDBRANCH  20  22
DOCKED: ENDBRANCH  19  20
DOCKED: ENDBRANCH  18  19
DOCKED: ENDBRANCH  17  18
DOCKED: ENDBRANCH  16  17
DOCKED: ENDBRANCH   1  16
DOCKED: TORSDOF 7DOCKED: TER
DOCKED: ENDMDL
________________________________________________________________________________


	BEGINNING GENETIC ALGORITHM DOCKING 16 of 100
Run: 16 Seed: 1451673524 93252347 [ Run 16 of 100 GA/GALS ]
Beginning LAMARCKIAN GENETIC ALGORITHM (LGA), with a maximum of 2500000 energy evaluations.

Final-Value: -15.531


	FINAL GENETIC ALGORITHM DOCKED STATE
	_______________________________________________


Detailed state:  trans 38.067 16.113 121.483 quatxyzw 0.152811 -0.946600 -0.003783 0.283871 center 0.154 0.111 -0.146 ntor 7 6.0273 -169.8142 -173.6965 -179.5471 -102.6317 -160.4660 -144.6871
State:	 38.067  16.113 121.483   0.159 -0.987 -0.004 147.017      6.03 -169.81 -173.70 -179.55 -102.63 -160.47 -144.69

DOCKED: MODEL       16
DOCKED: USER    Run = 16
DOCKED: USER    DPF = ligand_dock.biased.dpf
DOCKED: USER  
DOCKED: USER    Estimated Free Energy of Binding    =  -12.09 kcal/mol  [=(1)+(2)+(3)-(4)]
DOCKED: USER    Estimated Inhibition Constant, Ki   =    1.37 nM (nanomolar)  [Temperature = 298.15 K]
DOCKED: USER    
DOCKED: USER    (1) Final Intermolecular Energy     =  -14.18 kcal/mol
DOCKED: USER        vdW + Hbond + desolv Energy     =  -14.18 kcal/mol
DOCKED: USER        Electrostatic Energy            =   +0.00 kcal/mol
DOCKED: USER    (2) Final Total Internal Energy     =   -1.35 kcal/mol
DOCKED: USER    (3) Torsional Free Energy           =   +2.09 kcal/mol
DOCKED: USER    (4) Unbound System's Energy  [=(2)] =   -1.35 kcal/mol
DOCKED: USER    
DOCKED: USER    
DOCKED: USER    NEWDPF move ligand.dum.pdbqt
DOCKED: USER    NEWDPF about 0.154000 0.111000 -0.146000
DOCKED: USER    NEWDPF tran0 38.067050 16.112737 121.482546
DOCKED: USER    NEWDPF quaternion0 0.152811 -0.946600 -0.003783 0.283871
DOCKED: USER    NEWDPF axisangle0 0.159367 -0.987212 -0.003945 147.017249
DOCKED: USER    NEWDPF quat0 0.159367 -0.987212 -0.003945 147.017249
DOCKED: USER    NEWDPF dihe0 6.03 -169.81 -173.70 -179.55 -102.63 -160.47 -144.69 
DOCKED: USER  keepresnum = 1 
DOCKED: USER  
DOCKED: REMARK  Name = 
DOCKED: REMARK  7 active torsions:
DOCKED: REMARK  status: ('A' for Active; 'I' for Inactive)
DOCKED: REMARK    1  A    between atoms: C_2  and  C_5
DOCKED: REMARK    2  A    between atoms: N_3  and  O_4
DOCKED: REMARK    3  A    between atoms: C_5  and  C_6
DOCKED: REMARK    4  A    between atoms: C_6  and  C_7
DOCKED: REMARK    5  A    between atoms: C_7  and  C_8
DOCKED: REMARK    6  A    between atoms: C_8  and  C_9
DOCKED: REMARK    7  A    between atoms: C_9  and  N_10
DOCKED: REMARK                            x       y       z     vdW  Elec       q    Type
DOCKED: REMARK                         _______ _______ _______ _____ _____    ______ ____
DOCKED: USER                              x       y       z     vdW  Elec       q    Type
DOCKED: USER                           _______ _______ _______ _____ _____    ______ ____
DOCKED: ROOT
DOCKED: ATOM      1  N   UNL     1      38.143  15.493 122.845 -0.32 -0.00    +0.000 N 
DOCKED: ATOM      2  C   UNL     1      38.041  16.650 123.697 -0.23 -0.00    +0.000 C 
DOCKED: ATOM      3  C   UNL     1      39.239  17.473 123.979 -0.21 -0.00    +0.000 A 
DOCKED: ATOM      4  C   UNL     1      39.144  18.618 124.790 -0.18 -0.00    +0.000 A 
DOCKED: ATOM      5  C   UNL     1      40.273  19.395 125.055 -0.15 -0.00    +0.000 A 
DOCKED: ATOM      6  C   UNL     1      41.512  19.043 124.518 -0.16 -0.00    +0.000 A 
DOCKED: ATOM      7  C   UNL     1      41.631  17.906 123.708 -0.27 -0.00    +0.000 A 
DOCKED: ATOM      8  C   UNL     1      42.877  17.551 123.170 -0.23 -0.00    +0.000 A 
DOCKED: ATOM      9  C   UNL     1      42.997  16.418 122.367 -0.36 -0.00    +0.000 A 
DOCKED: ATOM     10  C   UNL     1      41.881  15.628 122.090 -0.40 -0.00    +0.000 A 
DOCKED: ATOM     11  C   UNL     1      40.621  15.962 122.618 -0.34 -0.00    +0.000 A 
DOCKED: ATOM     12  C   UNL     1      40.490  17.109 123.433 -0.26 -0.00    +0.000 A 
DOCKED: ATOM     13  O   UNL     1      36.929  16.964 124.205 -0.30 -0.00    +0.000 OA
DOCKED: ATOM     14  C   UNL     1      39.436  15.124 122.323 -0.40 -0.00    +0.000 C 
DOCKED: ATOM     15  O   UNL     1      39.563  14.088 121.616 -0.87 -0.00    +0.000 OA
DOCKED: ATOM     16  CM  UNL     1      39.296  16.280 123.141 +0.00 -0.00    +0.000 AC
DOCKED: ATOM     17  CM  UNL     1      40.382  18.258 124.247 +0.00 -0.00    +0.000 AC
DOCKED: ATOM     18  CM  UNL     1      41.750  16.762 122.898 +0.00 -0.00    +0.000 AC
DOCKED: ENDROOT
DOCKED: BRANCH   1  16
DOCKED: ATOM     19  C   UNL     1      36.936  14.728 122.489 -0.41 -0.00    +0.000 C 
DOCKED: BRANCH  16  17
DOCKED: ATOM     20  C   UNL     1      36.360  13.984 123.707 -0.53 -0.00    +0.000 C 
DOCKED: BRANCH  17  18
DOCKED: ATOM     21  C   UNL     1      36.796  12.510 123.811 -0.61 -0.00    +0.000 C 
DOCKED: BRANCH  18  19
DOCKED: ATOM     22  C   UNL     1      36.991  11.797 122.457 -0.61 -0.00    +0.000 C 
DOCKED: BRANCH  19  20
DOCKED: ATOM     23  C   UNL     1      35.982  10.672 122.177 -0.61 -0.00    +0.000 C 
DOCKED: BRANCH  20  22
DOCKED: ATOM     24  O   UNL     1      37.067   8.832 121.106 -2.68 -0.00    +0.000 OA
DOCKED: ATOM     25  C   UNL     1      36.632   9.318 122.184 -0.71 -0.00    +0.000 C 
DOCKED: ATOM     26  N   UNL     1      36.728   8.566 123.396 -0.65 -0.00    +0.000 N 
DOCKED: ATOM     27  H   UNL     1      36.380   8.945 124.234 -0.34 -0.00    +0.000 HD
DOCKED: BRANCH  23  25
DOCKED: ATOM     28  O   UNL     1      37.294   7.336 123.399 -2.02 -0.00    +0.000 OA
DOCKED: ATOM     29  H   UNL     1      37.669   7.149 122.523 -0.30 -0.00    +0.000 HD
DOCKED: ENDBRANCH  23  25
DOCKED: ENDBRANCH  20  22
DOCKED: ENDBRANCH  19  20
DOCKED: ENDBRANCH  18  19
DOCKED: ENDBRANCH  17  18
DOCKED: ENDBRANCH  16  17
DOCKED: ENDBRANCH   1  16
DOCKED: TORSDOF 7DOCKED: TER
DOCKED: ENDMDL
________________________________________________________________________________


	BEGINNING GENETIC ALGORITHM DOCKING 17 of 100
Run: 17 Seed: 1142266250 2063794919 [ Run 17 of 100 GA/GALS ]
Beginning LAMARCKIAN GENETIC ALGORITHM (LGA), with a maximum of 2500000 energy evaluations.

Final-Value: -13.925


	FINAL GENETIC ALGORITHM DOCKED STATE
	_______________________________________________


Detailed state:  trans 37.821 14.677 124.366 quatxyzw -0.087288 0.099518 0.430224 0.892964 center 0.154 0.111 -0.146 ntor 7 148.3448 -72.9913 -179.8356 178.2832 145.5400 169.4285 147.3598
State:	 37.821  14.677 124.366  -0.194  0.221  0.956 53.504    148.34  -72.99 -179.84  178.28  145.54  169.43  147.36

DOCKED: MODEL       17
DOCKED: USER    Run = 17
DOCKED: USER    DPF = ligand_dock.biased.dpf
DOCKED: USER  
DOCKED: USER    Estimated Free Energy of Binding    =  -11.34 kcal/mol  [=(1)+(2)+(3)-(4)]
DOCKED: USER    Estimated Inhibition Constant, Ki   =    4.90 nM (nanomolar)  [Temperature = 298.15 K]
DOCKED: USER    
DOCKED: USER    (1) Final Intermolecular Energy     =  -13.43 kcal/mol
DOCKED: USER        vdW + Hbond + desolv Energy     =  -13.43 kcal/mol
DOCKED: USER        Electrostatic Energy            =   +0.00 kcal/mol
DOCKED: USER    (2) Final Total Internal Energy     =   -0.50 kcal/mol
DOCKED: USER    (3) Torsional Free Energy           =   +2.09 kcal/mol
DOCKED: USER    (4) Unbound System's Energy  [=(2)] =   -0.50 kcal/mol
DOCKED: USER    
DOCKED: USER    
DOCKED: USER    NEWDPF move ligand.dum.pdbqt
DOCKED: USER    NEWDPF about 0.154000 0.111000 -0.146000
DOCKED: USER    NEWDPF tran0 37.821256 14.676649 124.365526
DOCKED: USER    NEWDPF quaternion0 -0.087288 0.099518 0.430224 0.892964
DOCKED: USER    NEWDPF axisangle0 -0.193917 0.221089 0.955780 53.503847
DOCKED: USER    NEWDPF quat0 -0.193917 0.221089 0.955780 53.503847
DOCKED: USER    NEWDPF dihe0 148.34 -72.99 -179.84 178.28 145.54 169.43 147.36 
DOCKED: USER  keepresnum = 1 
DOCKED: USER  
DOCKED: REMARK  Name = 
DOCKED: REMARK  7 active torsions:
DOCKED: REMARK  status: ('A' for Active; 'I' for Inactive)
DOCKED: REMARK    1  A    between atoms: C_2  and  C_5
DOCKED: REMARK    2  A    between atoms: N_3  and  O_4
DOCKED: REMARK    3  A    between atoms: C_5  and  C_6
DOCKED: REMARK    4  A    between atoms: C_6  and  C_7
DOCKED: REMARK    5  A    between atoms: C_7  and  C_8
DOCKED: REMARK    6  A    between atoms: C_8  and  C_9
DOCKED: REMARK    7  A    between atoms: C_9  and  N_10
DOCKED: REMARK                            x       y       z     vdW  Elec       q    Type
DOCKED: REMARK                         _______ _______ _______ _____ _____    ______ ____
DOCKED: USER                              x       y       z     vdW  Elec       q    Type
DOCKED: USER                           _______ _______ _______ _____ _____    ______ ____
DOCKED: ROOT
DOCKED: ATOM      1  N   UNL     1      37.197  14.799 123.009 -0.40 -0.00    +0.000 N 
DOCKED: ATOM      2  C   UNL     1      37.731  16.058 122.555 -0.29 -0.00    +0.000 C 
DOCKED: ATOM      3  C   UNL     1      37.102  17.328 122.984 -0.19 -0.00    +0.000 A 
DOCKED: ATOM      4  C   UNL     1      37.631  18.563 122.566 -0.10 -0.00    +0.000 A 
DOCKED: ATOM      5  C   UNL     1      37.041  19.761 122.972 -0.13 -0.00    +0.000 A 
DOCKED: ATOM      6  C   UNL     1      35.916  19.747 123.796 -0.17 -0.00    +0.000 A 
DOCKED: ATOM      7  C   UNL     1      35.370  18.529 124.225 -0.25 -0.00    +0.000 A 
DOCKED: ATOM      8  C   UNL     1      34.238  18.516 125.052 -0.29 -0.00    +0.000 A 
DOCKED: ATOM      9  C   UNL     1      33.694  17.305 125.477 -0.31 -0.00    +0.000 A 
DOCKED: ATOM     10  C   UNL     1      34.269  16.097 125.082 -0.45 -0.00    +0.000 A 
DOCKED: ATOM     11  C   UNL     1      35.404  16.083 124.252 -0.41 -0.00    +0.000 A 
DOCKED: ATOM     12  C   UNL     1      35.963  17.306 123.818 -0.27 -0.00    +0.000 A 
DOCKED: ATOM     13  O   UNL     1      38.735  16.080 121.791 -0.21 -0.00    +0.000 OA
DOCKED: ATOM     14  C   UNL     1      36.016  14.800 123.835 -0.51 -0.00    +0.000 C 
DOCKED: ATOM     15  O   UNL     1      35.498  13.711 124.205 -0.60 -0.00    +0.000 OA
DOCKED: ATOM     16  CM  UNL     1      36.586  16.028 123.398 +0.00 -0.00    +0.000 AC
DOCKED: ATOM     17  CM  UNL     1      36.504  18.539 123.394 -0.01 -0.00    +0.000 AC
DOCKED: ATOM     18  CM  UNL     1      34.823  17.306 124.651 -0.37 -0.00    +0.000 AC
DOCKED: ENDROOT
DOCKED: BRANCH   1  16
DOCKED: ATOM     19  C   UNL     1      37.875  13.539 122.658 -0.50 -0.00    +0.000 C 
DOCKED: BRANCH  16  17
DOCKED: ATOM     20  C   UNL     1      36.869  12.456 122.232 -0.57 -0.00    +0.000 C 
DOCKED: BRANCH  17  18
DOCKED: ATOM     21  C   UNL     1      37.005  11.129 123.003 -0.64 -0.00    +0.000 C 
DOCKED: BRANCH  18  19
DOCKED: ATOM     22  C   UNL     1      36.704   9.866 122.171 -0.68 -0.00    +0.000 C 
DOCKED: BRANCH  19  20
DOCKED: ATOM     23  C   UNL     1      35.479   9.067 122.643 -0.69 -0.00    +0.000 C 
DOCKED: BRANCH  20  22
DOCKED: ATOM     24  O   UNL     1      37.060   7.341 123.126 -2.15 -0.00    +0.000 OA
DOCKED: ATOM     25  C   UNL     1      35.846   7.680 123.086 -0.76 -0.00    +0.000 C 
DOCKED: ATOM     26  N   UNL     1      34.830   6.735 123.428 -0.71 -0.00    +0.000 N 
DOCKED: ATOM     27  H   UNL     1      33.883   7.001 123.388 -0.06 -0.00    +0.000 HD
DOCKED: BRANCH  23  25
DOCKED: ATOM     28  O   UNL     1      35.159   5.477 123.806 -1.08 -0.00    +0.000 OA
DOCKED: ATOM     29  H   UNL     1      34.503   5.148 124.442 -0.62 -0.00    +0.000 HD
DOCKED: ENDBRANCH  23  25
DOCKED: ENDBRANCH  20  22
DOCKED: ENDBRANCH  19  20
DOCKED: ENDBRANCH  18  19
DOCKED: ENDBRANCH  17  18
DOCKED: ENDBRANCH  16  17
DOCKED: ENDBRANCH   1  16
DOCKED: TORSDOF 7DOCKED: TER
DOCKED: ENDMDL
________________________________________________________________________________


	BEGINNING GENETIC ALGORITHM DOCKING 18 of 100
Run: 18 Seed: 1269626277 386601150 [ Run 18 of 100 GA/GALS ]
Beginning LAMARCKIAN GENETIC ALGORITHM (LGA), with a maximum of 2500000 energy evaluations.

Final-Value: -15.089


	FINAL GENETIC ALGORITHM DOCKED STATE
	_______________________________________________


Detailed state:  trans 37.046 15.532 123.919 quatxyzw -0.186286 -0.072855 0.437551 0.876664 center 0.154 0.111 -0.146 ntor 7 54.0593 -179.4558 21.6755 83.2304 -165.0133 75.9194 37.2148
State:	 37.046  15.532 123.919  -0.387 -0.151  0.909 57.515     54.06 -179.46   21.68   83.23 -165.01   75.92   37.21

DOCKED: MODEL       18
DOCKED: USER    Run = 18
DOCKED: USER    DPF = ligand_dock.biased.dpf
DOCKED: USER  
DOCKED: USER    Estimated Free Energy of Binding    =  -12.02 kcal/mol  [=(1)+(2)+(3)-(4)]
DOCKED: USER    Estimated Inhibition Constant, Ki   =    1.53 nM (nanomolar)  [Temperature = 298.15 K]
DOCKED: USER    
DOCKED: USER    (1) Final Intermolecular Energy     =  -14.11 kcal/mol
DOCKED: USER        vdW + Hbond + desolv Energy     =  -14.11 kcal/mol
DOCKED: USER        Electrostatic Energy            =   +0.00 kcal/mol
DOCKED: USER    (2) Final Total Internal Energy     =   -0.98 kcal/mol
DOCKED: USER    (3) Torsional Free Energy           =   +2.09 kcal/mol
DOCKED: USER    (4) Unbound System's Energy  [=(2)] =   -0.98 kcal/mol
DOCKED: USER    
DOCKED: USER    
DOCKED: USER    NEWDPF move ligand.dum.pdbqt
DOCKED: USER    NEWDPF about 0.154000 0.111000 -0.146000
DOCKED: USER    NEWDPF tran0 37.045661 15.531931 123.918774
DOCKED: USER    NEWDPF quaternion0 -0.186286 -0.072855 0.437551 0.876664
DOCKED: USER    NEWDPF axisangle0 -0.387205 -0.151432 0.909473 57.515059
DOCKED: USER    NEWDPF quat0 -0.387205 -0.151432 0.909473 57.515059
DOCKED: USER    NEWDPF dihe0 54.06 -179.46 21.68 83.23 -165.01 75.92 37.21 
DOCKED: USER  keepresnum = 1 
DOCKED: USER  
DOCKED: REMARK  Name = 
DOCKED: REMARK  7 active torsions:
DOCKED: REMARK  status: ('A' for Active; 'I' for Inactive)
DOCKED: REMARK    1  A    between atoms: C_2  and  C_5
DOCKED: REMARK    2  A    between atoms: N_3  and  O_4
DOCKED: REMARK    3  A    between atoms: C_5  and  C_6
DOCKED: REMARK    4  A    between atoms: C_6  and  C_7
DOCKED: REMARK    5  A    between atoms: C_7  and  C_8
DOCKED: REMARK    6  A    between atoms: C_8  and  C_9
DOCKED: REMARK    7  A    between atoms: C_9  and  N_10
DOCKED: REMARK                            x       y       z     vdW  Elec       q    Type
DOCKED: REMARK                         _______ _______ _______ _____ _____    ______ ____
DOCKED: USER                              x       y       z     vdW  Elec       q    Type
DOCKED: USER                           _______ _______ _______ _____ _____    ______ ____
DOCKED: ROOT
DOCKED: ATOM      1  N   UNL     1      36.140  16.046 122.841 -0.31 -0.00    +0.000 N 
DOCKED: ATOM      2  C   UNL     1      36.579  17.412 122.719 -0.23 -0.00    +0.000 C 
DOCKED: ATOM      3  C   UNL     1      36.078  18.440 123.661 -0.20 -0.00    +0.000 A 
DOCKED: ATOM      4  C   UNL     1      36.519  19.771 123.566 -0.15 -0.00    +0.000 A 
DOCKED: ATOM      5  C   UNL     1      36.050  20.740 124.455 -0.15 -0.00    +0.000 A 
DOCKED: ATOM      6  C   UNL     1      35.133  20.397 125.449 -0.16 -0.00    +0.000 A 
DOCKED: ATOM      7  C   UNL     1      34.678  19.076 125.563 -0.23 -0.00    +0.000 A 
DOCKED: ATOM      8  C   UNL     1      33.756  18.732 126.563 -0.25 -0.00    +0.000 A 
DOCKED: ATOM      9  C   UNL     1      33.301  17.419 126.675 -0.31 -0.00    +0.000 A 
DOCKED: ATOM     10  C   UNL     1      33.759  16.437 125.796 -0.34 -0.00    +0.000 A 
DOCKED: ATOM     11  C   UNL     1      34.683  16.756 124.786 -0.41 -0.00    +0.000 A 
DOCKED: ATOM     12  C   UNL     1      35.149  18.085 124.665 -0.28 -0.00    +0.000 A 
DOCKED: ATOM     13  O   UNL     1      37.391  17.737 121.809 -0.13 -0.00    +0.000 OA
DOCKED: ATOM     14  C   UNL     1      35.170  15.713 123.854 -0.53 -0.00    +0.000 C 
DOCKED: ATOM     15  O   UNL     1      34.731  14.534 123.950 -0.64 -0.00    +0.000 OA
DOCKED: ATOM     16  CM  UNL     1      35.647  17.047 123.730 -0.07 -0.00    +0.000 AC
DOCKED: ATOM     17  CM  UNL     1      35.602  19.418 124.560 -0.05 -0.00    +0.000 AC
DOCKED: ATOM     18  CM  UNL     1      34.221  17.751 125.675 -0.27 -0.00    +0.000 AC
DOCKED: ENDROOT
DOCKED: BRANCH   1  16
DOCKED: ATOM     19  C   UNL     1      36.706  15.007 121.964 -0.28 -0.00    +0.000 C 
DOCKED: BRANCH  16  17
DOCKED: ATOM     20  C   UNL     1      37.550  13.995 122.759 -0.50 -0.00    +0.000 C 
DOCKED: BRANCH  17  18
DOCKED: ATOM     21  C   UNL     1      37.369  12.532 122.311 -0.54 -0.00    +0.000 C 
DOCKED: BRANCH  18  19
DOCKED: ATOM     22  C   UNL     1      36.348  11.725 123.140 -0.70 -0.00    +0.000 C 
DOCKED: BRANCH  19  20
DOCKED: ATOM     23  C   UNL     1      35.618  10.624 122.356 -0.64 -0.00    +0.000 C 
DOCKED: BRANCH  20  22
DOCKED: ATOM     24  O   UNL     1      37.052   9.078 121.231 -2.69 -0.00    +0.000 OA
DOCKED: ATOM     25  C   UNL     1      36.420   9.356 122.285 -0.71 -0.00    +0.000 C 
DOCKED: ATOM     26  N   UNL     1      36.442   8.450 123.390 -0.64 -0.00    +0.000 N 
DOCKED: ATOM     27  H   UNL     1      35.941   8.666 124.209 -0.19 -0.00    +0.000 HD
DOCKED: BRANCH  23  25
DOCKED: ATOM     28  O   UNL     1      37.146   7.295 123.320 -2.04 -0.00    +0.000 OA
DOCKED: ATOM     29  H   UNL     1      38.066   7.491 123.077 -0.47 -0.00    +0.000 HD
DOCKED: ENDBRANCH  23  25
DOCKED: ENDBRANCH  20  22
DOCKED: ENDBRANCH  19  20
DOCKED: ENDBRANCH  18  19
DOCKED: ENDBRANCH  17  18
DOCKED: ENDBRANCH  16  17
DOCKED: ENDBRANCH   1  16
DOCKED: TORSDOF 7DOCKED: TER
DOCKED: ENDMDL
________________________________________________________________________________


	BEGINNING GENETIC ALGORITHM DOCKING 19 of 100
Run: 19 Seed: 229837486 266460721 [ Run 19 of 100 GA/GALS ]
Beginning LAMARCKIAN GENETIC ALGORITHM (LGA), with a maximum of 2500000 energy evaluations.

Final-Value: -14.222


	FINAL GENETIC ALGORITHM DOCKED STATE
	_______________________________________________


Detailed state:  trans 37.792 16.291 122.434 quatxyzw 0.596485 0.310028 0.403160 0.620927 center 0.154 0.111 -0.146 ntor 7 176.2442 133.1981 -168.8305 -162.6930 -104.1993 53.6605 -174.9794
State:	 37.792  16.291 122.434   0.761  0.396  0.514 103.232    176.24  133.20 -168.83 -162.69 -104.20   53.66 -174.98

DOCKED: MODEL       19
DOCKED: USER    Run = 19
DOCKED: USER    DPF = ligand_dock.biased.dpf
DOCKED: USER  
DOCKED: USER    Estimated Free Energy of Binding    =  -11.11 kcal/mol  [=(1)+(2)+(3)-(4)]
DOCKED: USER    Estimated Inhibition Constant, Ki   =    7.19 nM (nanomolar)  [Temperature = 298.15 K]
DOCKED: USER    
DOCKED: USER    (1) Final Intermolecular Energy     =  -13.20 kcal/mol
DOCKED: USER        vdW + Hbond + desolv Energy     =  -13.20 kcal/mol
DOCKED: USER        Electrostatic Energy            =   +0.00 kcal/mol
DOCKED: USER    (2) Final Total Internal Energy     =   -1.02 kcal/mol
DOCKED: USER    (3) Torsional Free Energy           =   +2.09 kcal/mol
DOCKED: USER    (4) Unbound System's Energy  [=(2)] =   -1.02 kcal/mol
DOCKED: USER    
DOCKED: USER    
DOCKED: USER    NEWDPF move ligand.dum.pdbqt
DOCKED: USER    NEWDPF about 0.154000 0.111000 -0.146000
DOCKED: USER    NEWDPF tran0 37.791766 16.290532 122.433741
DOCKED: USER    NEWDPF quaternion0 0.596485 0.310028 0.403160 0.620927
DOCKED: USER    NEWDPF axisangle0 0.760951 0.395510 0.514321 103.232349
DOCKED: USER    NEWDPF quat0 0.760951 0.395510 0.514321 103.232349
DOCKED: USER    NEWDPF dihe0 176.24 133.20 -168.83 -162.69 -104.20 53.66 -174.98 
DOCKED: USER  keepresnum = 1 
DOCKED: USER  
DOCKED: REMARK  Name = 
DOCKED: REMARK  7 active torsions:
DOCKED: REMARK  status: ('A' for Active; 'I' for Inactive)
DOCKED: REMARK    1  A    between atoms: C_2  and  C_5
DOCKED: REMARK    2  A    between atoms: N_3  and  O_4
DOCKED: REMARK    3  A    between atoms: C_5  and  C_6
DOCKED: REMARK    4  A    between atoms: C_6  and  C_7
DOCKED: REMARK    5  A    between atoms: C_7  and  C_8
DOCKED: REMARK    6  A    between atoms: C_8  and  C_9
DOCKED: REMARK    7  A    between atoms: C_9  and  N_10
DOCKED: REMARK                            x       y       z     vdW  Elec       q    Type
DOCKED: REMARK                         _______ _______ _______ _____ _____    ______ ____
DOCKED: USER                              x       y       z     vdW  Elec       q    Type
DOCKED: USER                           _______ _______ _______ _____ _____    ______ ____
DOCKED: ROOT
DOCKED: ATOM      1  N   UNL     1      36.755  15.248 122.143 -0.29 -0.00    +0.000 N 
DOCKED: ATOM      2  C   UNL     1      37.276  14.647 120.942 -0.30 -0.00    +0.000 C 
DOCKED: ATOM      3  C   UNL     1      37.036  15.286 119.627 -0.20 -0.00    +0.000 A 
DOCKED: ATOM      4  C   UNL     1      37.561  14.720 118.452 -0.24 -0.00    +0.000 A 
DOCKED: ATOM      5  C   UNL     1      37.337  15.322 117.213 -0.17 -0.00    +0.000 A 
DOCKED: ATOM      6  C   UNL     1      36.586  16.495 117.126 -0.10 -0.00    +0.000 A 
DOCKED: ATOM      7  C   UNL     1      36.051  17.077 118.283 -0.12 -0.00    +0.000 A 
DOCKED: ATOM      8  C   UNL     1      35.296  18.255 118.196 -0.11 -0.00    +0.000 A 
DOCKED: ATOM      9  C   UNL     1      34.761  18.833 119.346 -0.20 -0.00    +0.000 A 
DOCKED: ATOM     10  C   UNL     1      34.974  18.246 120.594 -0.25 -0.00    +0.000 A 
DOCKED: ATOM     11  C   UNL     1      35.728  17.065 120.709 -0.16 -0.00    +0.000 A 
DOCKED: ATOM     12  C   UNL     1      36.273  16.472 119.548 -0.14 -0.00    +0.000 A 
DOCKED: ATOM     13  O   UNL     1      37.938  13.574 121.008 -0.43 -0.00    +0.000 OA
DOCKED: ATOM     14  C   UNL     1      35.955  16.443 122.034 -0.26 -0.00    +0.000 C 
DOCKED: ATOM     15  O   UNL     1      35.445  16.961 123.064 -0.33 -0.00    +0.000 OA
DOCKED: ATOM     16  CM  UNL     1      36.511  15.844 120.869 +0.00 -0.00    +0.000 AC
DOCKED: ATOM     17  CM  UNL     1      36.808  15.896 118.375 +0.00 -0.00    +0.000 AC
DOCKED: ATOM     18  CM  UNL     1      35.514  17.658 119.446 +0.00 -0.00    +0.000 AC
DOCKED: ENDROOT
DOCKED: BRANCH   1  16
DOCKED: ATOM     19  C   UNL     1      37.070  14.665 123.458 -0.45 -0.00    +0.000 C 
DOCKED: BRANCH  16  17
DOCKED: ATOM     20  C   UNL     1      35.921  13.783 123.975 -0.52 -0.00    +0.000 C 
DOCKED: BRANCH  17  18
DOCKED: ATOM     21  C   UNL     1      36.297  12.301 124.162 -0.55 -0.00    +0.000 C 
DOCKED: BRANCH  18  19
DOCKED: ATOM     22  C   UNL     1      37.294  11.752 123.121 -0.53 -0.00    +0.000 C 
DOCKED: BRANCH  19  20
DOCKED: ATOM     23  C   UNL     1      36.643  11.009 121.943 -0.62 -0.00    +0.000 C 
DOCKED: BRANCH  20  22
DOCKED: ATOM     24  O   UNL     1      36.932   8.843 120.974 -2.68 -0.00    +0.000 OA
DOCKED: ATOM     25  C   UNL     1      36.847   9.524 122.032 -0.66 -0.00    +0.000 C 
DOCKED: ATOM     26  N   UNL     1      36.911   8.876 123.305 -0.63 -0.00    +0.000 N 
DOCKED: ATOM     27  H   UNL     1      36.836   9.409 124.128 -0.51 -0.00    +0.000 HD
DOCKED: BRANCH  23  25
DOCKED: ATOM     28  O   UNL     1      37.072   7.533 123.386 -2.21 -0.00    +0.000 OA
DOCKED: ATOM     29  H   UNL     1      37.152   7.273 124.317 -0.53 -0.00    +0.000 HD
DOCKED: ENDBRANCH  23  25
DOCKED: ENDBRANCH  20  22
DOCKED: ENDBRANCH  19  20
DOCKED: ENDBRANCH  18  19
DOCKED: ENDBRANCH  17  18
DOCKED: ENDBRANCH  16  17
DOCKED: ENDBRANCH   1  16
DOCKED: TORSDOF 7DOCKED: TER
DOCKED: ENDMDL
________________________________________________________________________________


	BEGINNING GENETIC ALGORITHM DOCKING 20 of 100
Run: 20 Seed: 444762000 704790915 [ Run 20 of 100 GA/GALS ]
Beginning LAMARCKIAN GENETIC ALGORITHM (LGA), with a maximum of 2500000 energy evaluations.

Final-Value: -15.088


	FINAL GENETIC ALGORITHM DOCKED STATE
	_______________________________________________


Detailed state:  trans 37.389 16.172 121.597 quatxyzw 0.723167 -0.463571 -0.309545 0.407816 center 0.154 0.111 -0.146 ntor 7 4.8609 -82.6195 -166.3772 -167.1648 42.7472 167.2046 -15.6842
State:	 37.389  16.172 121.597   0.792 -0.508 -0.339 131.865      4.86  -82.62 -166.38 -167.16   42.75  167.20  -15.68

DOCKED: MODEL       20
DOCKED: USER    Run = 20
DOCKED: USER    DPF = ligand_dock.biased.dpf
DOCKED: USER  
DOCKED: USER    Estimated Free Energy of Binding    =  -11.63 kcal/mol  [=(1)+(2)+(3)-(4)]
DOCKED: USER    Estimated Inhibition Constant, Ki   =    3.00 nM (nanomolar)  [Temperature = 298.15 K]
DOCKED: USER    
DOCKED: USER    (1) Final Intermolecular Energy     =  -13.71 kcal/mol
DOCKED: USER        vdW + Hbond + desolv Energy     =  -13.71 kcal/mol
DOCKED: USER        Electrostatic Energy            =   +0.00 kcal/mol
DOCKED: USER    (2) Final Total Internal Energy     =   -1.37 kcal/mol
DOCKED: USER    (3) Torsional Free Energy           =   +2.09 kcal/mol
DOCKED: USER    (4) Unbound System's Energy  [=(2)] =   -1.37 kcal/mol
DOCKED: USER    
DOCKED: USER    
DOCKED: USER    NEWDPF move ligand.dum.pdbqt
DOCKED: USER    NEWDPF about 0.154000 0.111000 -0.146000
DOCKED: USER    NEWDPF tran0 37.389338 16.172295 121.597405
DOCKED: USER    NEWDPF quaternion0 0.723167 -0.463571 -0.309545 0.407816
DOCKED: USER    NEWDPF axisangle0 0.792022 -0.507709 -0.339018 131.864572
DOCKED: USER    NEWDPF quat0 0.792022 -0.507709 -0.339018 131.864572
DOCKED: USER    NEWDPF dihe0 4.86 -82.62 -166.38 -167.16 42.75 167.20 -15.68 
DOCKED: USER  keepresnum = 1 
DOCKED: USER  
DOCKED: REMARK  Name = 
DOCKED: REMARK  7 active torsions:
DOCKED: REMARK  status: ('A' for Active; 'I' for Inactive)
DOCKED: REMARK    1  A    between atoms: C_2  and  C_5
DOCKED: REMARK    2  A    between atoms: N_3  and  O_4
DOCKED: REMARK    3  A    between atoms: C_5  and  C_6
DOCKED: REMARK    4  A    between atoms: C_6  and  C_7
DOCKED: REMARK    5  A    between atoms: C_7  and  C_8
DOCKED: REMARK    6  A    between atoms: C_8  and  C_9
DOCKED: REMARK    7  A    between atoms: C_9  and  N_10
DOCKED: REMARK                            x       y       z     vdW  Elec       q    Type
DOCKED: REMARK                         _______ _______ _______ _____ _____    ______ ____
DOCKED: USER                              x       y       z     vdW  Elec       q    Type
DOCKED: USER                           _______ _______ _______ _____ _____    ______ ____
DOCKED: ROOT
DOCKED: ATOM      1  N   UNL     1      37.902  15.584 122.876 -0.31 -0.00    +0.000 N 
DOCKED: ATOM      2  C   UNL     1      36.697  15.048 123.455 -0.44 -0.00    +0.000 C 
DOCKED: ATOM      3  C   UNL     1      35.776  15.933 124.205 -0.37 -0.00    +0.000 A 
DOCKED: ATOM      4  C   UNL     1      34.585  15.425 124.752 -0.44 -0.00    +0.000 A 
DOCKED: ATOM      5  C   UNL     1      33.715  16.258 125.457 -0.25 -0.00    +0.000 A 
DOCKED: ATOM      6  C   UNL     1      34.020  17.608 125.629 -0.36 -0.00    +0.000 A 
DOCKED: ATOM      7  C   UNL     1      35.202  18.138 125.093 -0.27 -0.00    +0.000 A 
DOCKED: ATOM      8  C   UNL     1      35.508  19.496 125.267 -0.18 -0.00    +0.000 A 
DOCKED: ATOM      9  C   UNL     1      36.685  20.022 124.738 -0.12 -0.00    +0.000 A 
DOCKED: ATOM     10  C   UNL     1      37.568  19.205 124.030 -0.12 -0.00    +0.000 A 
DOCKED: ATOM     11  C   UNL     1      37.283  17.841 123.842 -0.19 -0.00    +0.000 A 
DOCKED: ATOM     12  C   UNL     1      36.092  17.299 124.375 -0.25 -0.00    +0.000 A 
DOCKED: ATOM     13  O   UNL     1      36.423  13.823 123.323 -0.57 -0.00    +0.000 OA
DOCKED: ATOM     14  C   UNL     1      38.219  16.974 123.089 -0.24 -0.00    +0.000 C 
DOCKED: ATOM     15  O   UNL     1      39.293  17.458 122.637 -0.17 -0.00    +0.000 OA
DOCKED: ATOM     16  CM  UNL     1      37.020  16.424 123.620 +0.00 -0.00    +0.000 AC
DOCKED: ATOM     17  CM  UNL     1      34.898  16.777 124.918 -0.24 -0.00    +0.000 AC
DOCKED: ATOM     18  CM  UNL     1      36.390  18.667 124.558 -0.05 -0.00    +0.000 AC
DOCKED: ENDROOT
DOCKED: BRANCH   1  16
DOCKED: ATOM     19  C   UNL     1      38.772  14.727 122.054 -0.41 -0.00    +0.000 C 
DOCKED: BRANCH  16  17
DOCKED: ATOM     20  C   UNL     1      38.028  14.183 120.822 -0.37 -0.00    +0.000 C 
DOCKED: BRANCH  17  18
DOCKED: ATOM     21  C   UNL     1      38.138  12.656 120.641 -0.43 -0.00    +0.000 C 
DOCKED: BRANCH  18  19
DOCKED: ATOM     22  C   UNL     1      36.820  11.884 120.857 -0.43 -0.00    +0.000 C 
DOCKED: BRANCH  19  20
DOCKED: ATOM     23  C   UNL     1      36.698  11.198 122.227 -0.64 -0.00    +0.000 C 
DOCKED: BRANCH  20  22
DOCKED: ATOM     24  O   UNL     1      37.066   9.177 121.005 -2.74 -0.00    +0.000 OA
DOCKED: ATOM     25  C   UNL     1      36.910   9.714 122.135 -0.63 -0.00    +0.000 C 
DOCKED: ATOM     26  N   UNL     1      36.901   8.907 123.314 -0.62 -0.00    +0.000 N 
DOCKED: ATOM     27  H   UNL     1      36.771   9.328 124.193 -0.50 -0.00    +0.000 HD
DOCKED: BRANCH  23  25
DOCKED: ATOM     28  O   UNL     1      37.070   7.565 123.231 -2.25 -0.00    +0.000 OA
DOCKED: ATOM     29  H   UNL     1      37.261   7.319 122.311 -0.12 -0.00    +0.000 HD
DOCKED: ENDBRANCH  23  25
DOCKED: ENDBRANCH  20  22
DOCKED: ENDBRANCH  19  20
DOCKED: ENDBRANCH  18  19
DOCKED: ENDBRANCH  17  18
DOCKED: ENDBRANCH  16  17
DOCKED: ENDBRANCH   1  16
DOCKED: TORSDOF 7DOCKED: TER
DOCKED: ENDMDL
________________________________________________________________________________


	BEGINNING GENETIC ALGORITHM DOCKING 21 of 100
Run: 21 Seed: 1244494411 1835324915 [ Run 21 of 100 GA/GALS ]
Beginning LAMARCKIAN GENETIC ALGORITHM (LGA), with a maximum of 2500000 energy evaluations.

Final-Value: -15.550


	FINAL GENETIC ALGORITHM DOCKED STATE
	_______________________________________________


Detailed state:  trans 38.016 16.220 121.436 quatxyzw -0.119541 0.946137 -0.009606 -0.300738 center 0.154 0.111 -0.146 ntor 7 17.6444 -167.2139 -164.7766 -169.7845 -120.2557 -145.6805 -158.1108
State:	 38.016  16.220 121.436  -0.125  0.992 -0.010 -144.996     17.64 -167.21 -164.78 -169.78 -120.26 -145.68 -158.11

DOCKED: MODEL       21
DOCKED: USER    Run = 21
DOCKED: USER    DPF = ligand_dock.biased.dpf
DOCKED: USER  
DOCKED: USER    Estimated Free Energy of Binding    =  -12.12 kcal/mol  [=(1)+(2)+(3)-(4)]
DOCKED: USER    Estimated Inhibition Constant, Ki   =    1.32 nM (nanomolar)  [Temperature = 298.15 K]
DOCKED: USER    
DOCKED: USER    (1) Final Intermolecular Energy     =  -14.20 kcal/mol
DOCKED: USER        vdW + Hbond + desolv Energy     =  -14.20 kcal/mol
DOCKED: USER        Electrostatic Energy            =   +0.00 kcal/mol
DOCKED: USER    (2) Final Total Internal Energy     =   -1.35 kcal/mol
DOCKED: USER    (3) Torsional Free Energy           =   +2.09 kcal/mol
DOCKED: USER    (4) Unbound System's Energy  [=(2)] =   -1.35 kcal/mol
DOCKED: USER    
DOCKED: USER    
DOCKED: USER    NEWDPF move ligand.dum.pdbqt
DOCKED: USER    NEWDPF about 0.154000 0.111000 -0.146000
DOCKED: USER    NEWDPF tran0 38.015528 16.219676 121.436249
DOCKED: USER    NEWDPF quaternion0 -0.119541 0.946137 -0.009606 -0.300738
DOCKED: USER    NEWDPF axisangle0 -0.125344 0.992062 -0.010072 -144.996134
DOCKED: USER    NEWDPF quat0 -0.125344 0.992062 -0.010072 -144.996134
DOCKED: USER    NEWDPF dihe0 17.64 -167.21 -164.78 -169.78 -120.26 -145.68 -158.11 
DOCKED: USER  keepresnum = 1 
DOCKED: USER  
DOCKED: REMARK  Name = 
DOCKED: REMARK  7 active torsions:
DOCKED: REMARK  status: ('A' for Active; 'I' for Inactive)
DOCKED: REMARK    1  A    between atoms: C_2  and  C_5
DOCKED: REMARK    2  A    between atoms: N_3  and  O_4
DOCKED: REMARK    3  A    between atoms: C_5  and  C_6
DOCKED: REMARK    4  A    between atoms: C_6  and  C_7
DOCKED: REMARK    5  A    between atoms: C_7  and  C_8
DOCKED: REMARK    6  A    between atoms: C_8  and  C_9
DOCKED: REMARK    7  A    between atoms: C_9  and  N_10
DOCKED: REMARK                            x       y       z     vdW  Elec       q    Type
DOCKED: REMARK                         _______ _______ _______ _____ _____    ______ ____
DOCKED: USER                              x       y       z     vdW  Elec       q    Type
DOCKED: USER                           _______ _______ _______ _____ _____    ______ ____
DOCKED: ROOT
DOCKED: ATOM      1  N   UNL     1      37.999  15.600 122.800 -0.31 -0.00    +0.000 N 
DOCKED: ATOM      2  C   UNL     1      37.947  16.764 123.648 -0.25 -0.00    +0.000 C 
DOCKED: ATOM      3  C   UNL     1      39.190  17.500 123.974 -0.21 -0.00    +0.000 A 
DOCKED: ATOM      4  C   UNL     1      39.147  18.651 124.780 -0.18 -0.00    +0.000 A 
DOCKED: ATOM      5  C   UNL     1      40.318  19.348 125.086 -0.16 -0.00    +0.000 A 
DOCKED: ATOM      6  C   UNL     1      41.547  18.908 124.594 -0.15 -0.00    +0.000 A 
DOCKED: ATOM      7  C   UNL     1      41.615  17.762 123.789 -0.29 -0.00    +0.000 A 
DOCKED: ATOM      8  C   UNL     1      42.851  17.320 123.296 -0.24 -0.00    +0.000 A 
DOCKED: ATOM      9  C   UNL     1      42.920  16.179 122.497 -0.37 -0.00    +0.000 A 
DOCKED: ATOM     10  C   UNL     1      41.761  15.469 122.181 -0.42 -0.00    +0.000 A 
DOCKED: ATOM     11  C   UNL     1      40.510  15.893 122.663 -0.34 -0.00    +0.000 A 
DOCKED: ATOM     12  C   UNL     1      40.431  17.047 123.473 -0.25 -0.00    +0.000 A 
DOCKED: ATOM     13  O   UNL     1      36.843  17.157 124.116 -0.29 -0.00    +0.000 OA
DOCKED: ATOM     14  C   UNL     1      39.280  15.139 122.326 -0.40 -0.00    +0.000 C 
DOCKED: ATOM     15  O   UNL     1      39.359  14.095 121.623 -0.82 -0.00    +0.000 OA
DOCKED: ATOM     16  CM  UNL     1      39.193  16.304 123.138 +0.00 -0.00    +0.000 AC
DOCKED: ATOM     17  CM  UNL     1      40.375  18.203 124.282 +0.00 -0.00    +0.000 AC
DOCKED: ATOM     18  CM  UNL     1      41.682  16.611 122.983 +0.00 -0.00    +0.000 AC
DOCKED: ENDROOT
DOCKED: BRANCH   1  16
DOCKED: ATOM     19  C   UNL     1      36.755  14.920 122.402 -0.37 -0.00    +0.000 C 
DOCKED: BRANCH  16  17
DOCKED: ATOM     20  C   UNL     1      36.261  13.958 123.496 -0.55 -0.00    +0.000 C 
DOCKED: BRANCH  17  18
DOCKED: ATOM     21  C   UNL     1      36.958  12.584 123.489 -0.65 -0.00    +0.000 C 
DOCKED: BRANCH  18  19
DOCKED: ATOM     22  C   UNL     1      36.974  11.874 122.119 -0.59 -0.00    +0.000 C 
DOCKED: BRANCH  19  20
DOCKED: ATOM     23  C   UNL     1      35.961  10.726 121.983 -0.53 -0.00    +0.000 C 
DOCKED: BRANCH  20  22
DOCKED: ATOM     24  O   UNL     1      37.066   8.810 121.079 -2.66 -0.00    +0.000 OA
DOCKED: ATOM     25  C   UNL     1      36.615   9.380 122.108 -0.70 -0.00    +0.000 C 
DOCKED: ATOM     26  N   UNL     1      36.699   8.730 123.379 -0.62 -0.00    +0.000 N 
DOCKED: ATOM     27  H   UNL     1      36.338   9.175 124.179 -0.35 -0.00    +0.000 HD
DOCKED: BRANCH  23  25
DOCKED: ATOM     28  O   UNL     1      37.268   7.507 123.490 -2.09 -0.00    +0.000 OA
DOCKED: ATOM     29  H   UNL     1      37.809   7.329 122.704 -0.40 -0.00    +0.000 HD
DOCKED: ENDBRANCH  23  25
DOCKED: ENDBRANCH  20  22
DOCKED: ENDBRANCH  19  20
DOCKED: ENDBRANCH  18  19
DOCKED: ENDBRANCH  17  18
DOCKED: ENDBRANCH  16  17
DOCKED: ENDBRANCH   1  16
DOCKED: TORSDOF 7DOCKED: TER
DOCKED: ENDMDL
________________________________________________________________________________


	BEGINNING GENETIC ALGORITHM DOCKING 22 of 100
Run: 22 Seed: 1481886926 1005062023 [ Run 22 of 100 GA/GALS ]
Beginning LAMARCKIAN GENETIC ALGORITHM (LGA), with a maximum of 2500000 energy evaluations.

Final-Value: -14.560


	FINAL GENETIC ALGORITHM DOCKED STATE
	_______________________________________________


Detailed state:  trans 35.856 14.120 121.255 quatxyzw -0.447852 0.688762 -0.354533 0.446477 center 0.154 0.111 -0.146 ntor 7 18.3330 46.8733 80.2224 31.3758 -178.0157 51.6388 17.9565
State:	 35.856  14.120 121.255  -0.501  0.770 -0.396 126.964     18.33   46.87   80.22   31.38 -178.02   51.64   17.96

DOCKED: MODEL       22
DOCKED: USER    Run = 22
DOCKED: USER    DPF = ligand_dock.biased.dpf
DOCKED: USER  
DOCKED: USER    Estimated Free Energy of Binding    =  -11.01 kcal/mol  [=(1)+(2)+(3)-(4)]
DOCKED: USER    Estimated Inhibition Constant, Ki   =    8.43 nM (nanomolar)  [Temperature = 298.15 K]
DOCKED: USER    
DOCKED: USER    (1) Final Intermolecular Energy     =  -13.10 kcal/mol
DOCKED: USER        vdW + Hbond + desolv Energy     =  -13.10 kcal/mol
DOCKED: USER        Electrostatic Energy            =   +0.00 kcal/mol
DOCKED: USER    (2) Final Total Internal Energy     =   -1.46 kcal/mol
DOCKED: USER    (3) Torsional Free Energy           =   +2.09 kcal/mol
DOCKED: USER    (4) Unbound System's Energy  [=(2)] =   -1.46 kcal/mol
DOCKED: USER    
DOCKED: USER    
DOCKED: USER    NEWDPF move ligand.dum.pdbqt
DOCKED: USER    NEWDPF about 0.154000 0.111000 -0.146000
DOCKED: USER    NEWDPF tran0 35.855620 14.119666 121.255398
DOCKED: USER    NEWDPF quaternion0 -0.447852 0.688762 -0.354533 0.446477
DOCKED: USER    NEWDPF axisangle0 -0.500508 0.769743 -0.396217 126.964224
DOCKED: USER    NEWDPF quat0 -0.500508 0.769743 -0.396217 126.964224
DOCKED: USER    NEWDPF dihe0 18.33 46.87 80.22 31.38 -178.02 51.64 17.96 
DOCKED: USER  keepresnum = 1 
DOCKED: USER  
DOCKED: REMARK  Name = 
DOCKED: REMARK  7 active torsions:
DOCKED: REMARK  status: ('A' for Active; 'I' for Inactive)
DOCKED: REMARK    1  A    between atoms: C_2  and  C_5
DOCKED: REMARK    2  A    between atoms: N_3  and  O_4
DOCKED: REMARK    3  A    between atoms: C_5  and  C_6
DOCKED: REMARK    4  A    between atoms: C_6  and  C_7
DOCKED: REMARK    5  A    between atoms: C_7  and  C_8
DOCKED: REMARK    6  A    between atoms: C_8  and  C_9
DOCKED: REMARK    7  A    between atoms: C_9  and  N_10
DOCKED: REMARK                            x       y       z     vdW  Elec       q    Type
DOCKED: REMARK                         _______ _______ _______ _____ _____    ______ ____
DOCKED: USER                              x       y       z     vdW  Elec       q    Type
DOCKED: USER                           _______ _______ _______ _____ _____    ______ ____
DOCKED: ROOT
DOCKED: ATOM      1  N   UNL     1      36.997  15.085 121.151 -0.24 -0.00    +0.000 N 
DOCKED: ATOM      2  C   UNL     1      36.342  16.255 120.626 -0.16 -0.00    +0.000 C 
DOCKED: ATOM      3  C   UNL     1      36.081  16.371 119.172 -0.12 -0.00    +0.000 A 
DOCKED: ATOM      4  C   UNL     1      35.420  17.498 118.653 -0.14 -0.00    +0.000 A 
DOCKED: ATOM      5  C   UNL     1      35.171  17.607 117.284 -0.09 -0.00    +0.000 A 
DOCKED: ATOM      6  C   UNL     1      35.579  16.597 116.413 -0.09 -0.00    +0.000 A 
DOCKED: ATOM      7  C   UNL     1      36.240  15.464 116.906 -0.18 -0.00    +0.000 A 
DOCKED: ATOM      8  C   UNL     1      36.651  14.450 116.029 -0.26 -0.00    +0.000 A 
DOCKED: ATOM      9  C   UNL     1      37.311  13.324 116.520 -0.36 -0.00    +0.000 A 
DOCKED: ATOM     10  C   UNL     1      37.569  13.196 117.885 -0.30 -0.00    +0.000 A 
DOCKED: ATOM     11  C   UNL     1      37.167  14.200 118.785 -0.31 -0.00    +0.000 A 
DOCKED: ATOM     12  C   UNL     1      36.498  15.344 118.296 -0.20 -0.00    +0.000 A 
DOCKED: ATOM     13  O   UNL     1      35.989  17.184 121.404 -0.23 -0.00    +0.000 OA
DOCKED: ATOM     14  C   UNL     1      37.440  14.064 120.234 -0.37 -0.00    +0.000 C 
DOCKED: ATOM     15  O   UNL     1      38.061  13.052 120.661 -0.47 -0.00    +0.000 OA
DOCKED: ATOM     16  CM  UNL     1      36.761  15.216 119.749 +0.00 -0.00    +0.000 AC
DOCKED: ATOM     17  CM  UNL     1      35.831  16.480 117.788 +0.00 -0.00    +0.000 AC
DOCKED: ATOM     18  CM  UNL     1      36.906  14.330 117.403 +0.00 -0.00    +0.000 AC
DOCKED: ENDROOT
DOCKED: BRANCH   1  16
DOCKED: ATOM     19  C   UNL     1      37.175  14.926 122.604 -0.40 -0.00    +0.000 C 
DOCKED: BRANCH  16  17
DOCKED: ATOM     20  C   UNL     1      36.029  14.113 123.229 -0.49 -0.00    +0.000 C 
DOCKED: BRANCH  17  18
DOCKED: ATOM     21  C   UNL     1      36.467  12.764 123.832 -0.62 -0.00    +0.000 C 
DOCKED: BRANCH  18  19
DOCKED: ATOM     22  C   UNL     1      36.005  11.523 123.043 -0.69 -0.00    +0.000 C 
DOCKED: BRANCH  19  20
DOCKED: ATOM     23  C   UNL     1      37.060  10.943 122.087 -0.55 -0.00    +0.000 C 
DOCKED: BRANCH  20  22
DOCKED: ATOM     24  O   UNL     1      36.887   8.847 120.953 -2.67 -0.00    +0.000 OA
DOCKED: ATOM     25  C   UNL     1      37.027   9.442 122.055 -0.63 -0.00    +0.000 C 
DOCKED: ATOM     26  N   UNL     1      37.118   8.689 123.267 -0.66 -0.00    +0.000 N 
DOCKED: ATOM     27  H   UNL     1      37.219   9.157 124.126 -0.56 -0.00    +0.000 HD
DOCKED: BRANCH  23  25
DOCKED: ATOM     28  O   UNL     1      37.066   7.336 123.242 -2.13 -0.00    +0.000 OA
DOCKED: ATOM     29  H   UNL     1      37.256   7.021 122.344 -0.17 -0.00    +0.000 HD
DOCKED: ENDBRANCH  23  25
DOCKED: ENDBRANCH  20  22
DOCKED: ENDBRANCH  19  20
DOCKED: ENDBRANCH  18  19
DOCKED: ENDBRANCH  17  18
DOCKED: ENDBRANCH  16  17
DOCKED: ENDBRANCH   1  16
DOCKED: TORSDOF 7DOCKED: TER
DOCKED: ENDMDL
________________________________________________________________________________


	BEGINNING GENETIC ALGORITHM DOCKING 23 of 100
Run: 23 Seed: 2027771572 1942044673 [ Run 23 of 100 GA/GALS ]
Beginning LAMARCKIAN GENETIC ALGORITHM (LGA), with a maximum of 2500000 energy evaluations.

Final-Value: -15.570


	FINAL GENETIC ALGORITHM DOCKED STATE
	_______________________________________________


Detailed state:  trans 37.911 15.921 121.407 quatxyzw 0.133577 -0.942112 0.083648 0.295947 center 0.154 0.111 -0.146 ntor 7 9.5454 180.0000 -172.1239 -164.8350 -108.1684 -144.6352 -163.1552
State:	 37.911  15.921 121.407   0.140 -0.986  0.088 145.571      9.55  180.00 -172.12 -164.84 -108.17 -144.64 -163.16

DOCKED: MODEL       23
DOCKED: USER    Run = 23
DOCKED: USER    DPF = ligand_dock.biased.dpf
DOCKED: USER  
DOCKED: USER    Estimated Free Energy of Binding    =  -12.10 kcal/mol  [=(1)+(2)+(3)-(4)]
DOCKED: USER    Estimated Inhibition Constant, Ki   =    1.36 nM (nanomolar)  [Temperature = 298.15 K]
DOCKED: USER    
DOCKED: USER    (1) Final Intermolecular Energy     =  -14.18 kcal/mol
DOCKED: USER        vdW + Hbond + desolv Energy     =  -14.18 kcal/mol
DOCKED: USER        Electrostatic Energy            =   +0.00 kcal/mol
DOCKED: USER    (2) Final Total Internal Energy     =   -1.39 kcal/mol
DOCKED: USER    (3) Torsional Free Energy           =   +2.09 kcal/mol
DOCKED: USER    (4) Unbound System's Energy  [=(2)] =   -1.39 kcal/mol
DOCKED: USER    
DOCKED: USER    
DOCKED: USER    NEWDPF move ligand.dum.pdbqt
DOCKED: USER    NEWDPF about 0.154000 0.111000 -0.146000
DOCKED: USER    NEWDPF tran0 37.910630 15.920629 121.406916
DOCKED: USER    NEWDPF quaternion0 0.133577 -0.942112 0.083648 0.295947
DOCKED: USER    NEWDPF axisangle0 0.139841 -0.986294 0.087571 145.571284
DOCKED: USER    NEWDPF quat0 0.139841 -0.986294 0.087571 145.571284
DOCKED: USER    NEWDPF dihe0 9.55 180.00 -172.12 -164.84 -108.17 -144.64 -163.16 
DOCKED: USER  keepresnum = 1 
DOCKED: USER  
DOCKED: REMARK  Name = 
DOCKED: REMARK  7 active torsions:
DOCKED: REMARK  status: ('A' for Active; 'I' for Inactive)
DOCKED: REMARK    1  A    between atoms: C_2  and  C_5
DOCKED: REMARK    2  A    between atoms: N_3  and  O_4
DOCKED: REMARK    3  A    between atoms: C_5  and  C_6
DOCKED: REMARK    4  A    between atoms: C_6  and  C_7
DOCKED: REMARK    5  A    between atoms: C_7  and  C_8
DOCKED: REMARK    6  A    between atoms: C_8  and  C_9
DOCKED: REMARK    7  A    between atoms: C_9  and  N_10
DOCKED: REMARK                            x       y       z     vdW  Elec       q    Type
DOCKED: REMARK                         _______ _______ _______ _____ _____    ______ ____
DOCKED: USER                              x       y       z     vdW  Elec       q    Type
DOCKED: USER                           _______ _______ _______ _____ _____    ______ ____
DOCKED: ROOT
DOCKED: ATOM      1  N   UNL     1      37.870  15.512 122.848 -0.32 -0.00    +0.000 N 
DOCKED: ATOM      2  C   UNL     1      37.831  16.790 123.512 -0.26 -0.00    +0.000 C 
DOCKED: ATOM      3  C   UNL     1      39.084  17.547 123.739 -0.21 -0.00    +0.000 A 
DOCKED: ATOM      4  C   UNL     1      39.054  18.806 124.364 -0.15 -0.00    +0.000 A 
DOCKED: ATOM      5  C   UNL     1      40.234  19.521 124.576 -0.12 -0.00    +0.000 A 
DOCKED: ATOM      6  C   UNL     1      41.459  18.993 124.170 -0.18 -0.00    +0.000 A 
DOCKED: ATOM      7  C   UNL     1      41.515  17.739 123.546 -0.28 -0.00    +0.000 A 
DOCKED: ATOM      8  C   UNL     1      42.747  17.208 123.140 -0.33 -0.00    +0.000 A 
DOCKED: ATOM      9  C   UNL     1      42.803  15.959 122.521 -0.38 -0.00    +0.000 A 
DOCKED: ATOM     10  C   UNL     1      41.635  15.229 122.300 -0.46 -0.00    +0.000 A 
DOCKED: ATOM     11  C   UNL     1      40.387  15.740 122.699 -0.34 -0.00    +0.000 A 
DOCKED: ATOM     12  C   UNL     1      40.321  17.004 123.326 -0.25 -0.00    +0.000 A 
DOCKED: ATOM     13  O   UNL     1      36.730  17.266 123.902 -0.28 -0.00    +0.000 OA
DOCKED: ATOM     14  C   UNL     1      39.147  14.965 122.463 -0.41 -0.00    +0.000 C 
DOCKED: ATOM     15  O   UNL     1      39.214  13.826 121.925 -0.70 -0.00    +0.000 OA
DOCKED: ATOM     16  CM  UNL     1      39.073  16.239 123.091 +0.00 -0.00    +0.000 AC
DOCKED: ATOM     17  CM  UNL     1      40.278  18.268 123.953 +0.00 -0.00    +0.000 AC
DOCKED: ATOM     18  CM  UNL     1      41.568  16.480 122.922 +0.00 -0.00    +0.000 AC
DOCKED: ENDROOT
DOCKED: BRANCH   1  16
DOCKED: ATOM     19  C   UNL     1      36.618  14.801 122.540 -0.38 -0.00    +0.000 C 
DOCKED: BRANCH  16  17
DOCKED: ATOM     20  C   UNL     1      36.163  13.922 123.718 -0.55 -0.00    +0.000 C 
DOCKED: BRANCH  17  18
DOCKED: ATOM     21  C   UNL     1      36.884  12.564 123.808 -0.59 -0.00    +0.000 C 
DOCKED: BRANCH  18  19
DOCKED: ATOM     22  C   UNL     1      37.145  11.880 122.450 -0.57 -0.00    +0.000 C 
DOCKED: BRANCH  19  20
DOCKED: ATOM     23  C   UNL     1      36.125  10.793 122.076 -0.59 -0.00    +0.000 C 
DOCKED: BRANCH  20  22
DOCKED: ATOM     24  O   UNL     1      37.056   8.846 121.050 -2.70 -0.00    +0.000 OA
DOCKED: ATOM     25  C   UNL     1      36.726   9.417 122.123 -0.70 -0.00    +0.000 C 
DOCKED: ATOM     26  N   UNL     1      36.892   8.741 123.372 -0.63 -0.00    +0.000 N 
DOCKED: ATOM     27  H   UNL     1      36.625   9.186 124.207 -0.45 -0.00    +0.000 HD
DOCKED: BRANCH  23  25
DOCKED: ATOM     28  O   UNL     1      37.413   7.491 123.414 -2.06 -0.00    +0.000 OA
DOCKED: ATOM     29  H   UNL     1      37.760   7.256 122.539 -0.29 -0.00    +0.000 HD
DOCKED: ENDBRANCH  23  25
DOCKED: ENDBRANCH  20  22
DOCKED: ENDBRANCH  19  20
DOCKED: ENDBRANCH  18  19
DOCKED: ENDBRANCH  17  18
DOCKED: ENDBRANCH  16  17
DOCKED: ENDBRANCH   1  16
DOCKED: TORSDOF 7DOCKED: TER
DOCKED: ENDMDL
________________________________________________________________________________


	BEGINNING GENETIC ALGORITHM DOCKING 24 of 100
Run: 24 Seed: 838698619 1343203318 [ Run 24 of 100 GA/GALS ]
Beginning LAMARCKIAN GENETIC ALGORITHM (LGA), with a maximum of 2500000 energy evaluations.

Final-Value: -13.799


	FINAL GENETIC ALGORITHM DOCKED STATE
	_______________________________________________


Detailed state:  trans 38.284 13.524 119.287 quatxyzw 0.654186 -0.278065 0.703089 0.019634 center 0.154 0.111 -0.146 ntor 7 -0.0926 -142.6450 8.3032 102.1782 176.1713 -160.1127 36.9987
State:	 38.284  13.524 119.287   0.654 -0.278  0.703 177.750     -0.09 -142.64    8.30  102.18  176.17 -160.11   37.00

DOCKED: MODEL       24
DOCKED: USER    Run = 24
DOCKED: USER    DPF = ligand_dock.biased.dpf
DOCKED: USER  
DOCKED: USER    Estimated Free Energy of Binding    =  -10.45 kcal/mol  [=(1)+(2)+(3)-(4)]
DOCKED: USER    Estimated Inhibition Constant, Ki   =   21.96 nM (nanomolar)  [Temperature = 298.15 K]
DOCKED: USER    
DOCKED: USER    (1) Final Intermolecular Energy     =  -12.54 kcal/mol
DOCKED: USER        vdW + Hbond + desolv Energy     =  -12.54 kcal/mol
DOCKED: USER        Electrostatic Energy            =   +0.00 kcal/mol
DOCKED: USER    (2) Final Total Internal Energy     =   -1.26 kcal/mol
DOCKED: USER    (3) Torsional Free Energy           =   +2.09 kcal/mol
DOCKED: USER    (4) Unbound System's Energy  [=(2)] =   -1.26 kcal/mol
DOCKED: USER    
DOCKED: USER    
DOCKED: USER    NEWDPF move ligand.dum.pdbqt
DOCKED: USER    NEWDPF about 0.154000 0.111000 -0.146000
DOCKED: USER    NEWDPF tran0 38.283709 13.524021 119.286648
DOCKED: USER    NEWDPF quaternion0 0.654186 -0.278065 0.703089 0.019634
DOCKED: USER    NEWDPF axisangle0 0.654313 -0.278118 0.703225 177.749997
DOCKED: USER    NEWDPF quat0 0.654313 -0.278118 0.703225 177.749997
DOCKED: USER    NEWDPF dihe0 -0.09 -142.64 8.30 102.18 176.17 -160.11 37.00 
DOCKED: USER  keepresnum = 1 
DOCKED: USER  
DOCKED: REMARK  Name = 
DOCKED: REMARK  7 active torsions:
DOCKED: REMARK  status: ('A' for Active; 'I' for Inactive)
DOCKED: REMARK    1  A    between atoms: C_2  and  C_5
DOCKED: REMARK    2  A    between atoms: N_3  and  O_4
DOCKED: REMARK    3  A    between atoms: C_5  and  C_6
DOCKED: REMARK    4  A    between atoms: C_6  and  C_7
DOCKED: REMARK    5  A    between atoms: C_7  and  C_8
DOCKED: REMARK    6  A    between atoms: C_8  and  C_9
DOCKED: REMARK    7  A    between atoms: C_9  and  N_10
DOCKED: REMARK                            x       y       z     vdW  Elec       q    Type
DOCKED: REMARK                         _______ _______ _______ _____ _____    ______ ____
DOCKED: USER                              x       y       z     vdW  Elec       q    Type
DOCKED: USER                           _______ _______ _______ _____ _____    ______ ____
DOCKED: ROOT
DOCKED: ATOM      1  N   UNL     1      37.535  14.798 119.039 -0.23 -0.00    +0.000 N 
DOCKED: ATOM      2  C   UNL     1      36.663  14.418 117.957 -0.34 -0.00    +0.000 C 
DOCKED: ATOM      3  C   UNL     1      37.166  14.417 116.564 -0.28 -0.00    +0.000 A 
DOCKED: ATOM      4  C   UNL     1      36.330  14.024 115.504 -0.28 -0.00    +0.000 A 
DOCKED: ATOM      5  C   UNL     1      36.804  14.020 114.191 -0.28 -0.00    +0.000 A 
DOCKED: ATOM      6  C   UNL     1      38.115  14.409 113.915 -0.18 -0.00    +0.000 A 
DOCKED: ATOM      7  C   UNL     1      38.966  14.806 114.955 -0.29 -0.00    +0.000 A 
DOCKED: ATOM      8  C   UNL     1      40.284  15.198 114.677 -0.22 -0.00    +0.000 A 
DOCKED: ATOM      9  C   UNL     1      41.130  15.595 115.711 -0.27 -0.00    +0.000 A 
DOCKED: ATOM     10  C   UNL     1      40.676  15.606 117.030 -0.20 -0.00    +0.000 A 
DOCKED: ATOM     11  C   UNL     1      39.359  15.217 117.335 -0.12 -0.00    +0.000 A 
DOCKED: ATOM     12  C   UNL     1      38.495  14.813 116.293 -0.24 -0.00    +0.000 A 
DOCKED: ATOM     13  O   UNL     1      35.469  14.086 118.195 -0.36 -0.00    +0.000 OA
DOCKED: ATOM     14  C   UNL     1      38.877  15.227 118.735 -0.15 -0.00    +0.000 C 
DOCKED: ATOM     15  O   UNL     1      39.645  15.613 119.658 -0.20 -0.00    +0.000 OA
DOCKED: ATOM     16  CM  UNL     1      38.003  14.815 117.691 +0.00 -0.00    +0.000 AC
DOCKED: ATOM     17  CM  UNL     1      37.646  14.414 115.237 +0.00 -0.00    +0.000 AC
DOCKED: ATOM     18  CM  UNL     1      39.819  15.206 116.000 +0.00 -0.00    +0.000 AC
DOCKED: ENDROOT
DOCKED: BRANCH   1  16
DOCKED: ATOM     19  C   UNL     1      37.065  14.712 120.432 -0.26 -0.00    +0.000 C 
DOCKED: BRANCH  16  17
DOCKED: ATOM     20  C   UNL     1      37.824  13.630 121.220 -0.44 -0.00    +0.000 C 
DOCKED: BRANCH  17  18
DOCKED: ATOM     21  C   UNL     1      37.098  12.273 121.288 -0.54 -0.00    +0.000 C 
DOCKED: BRANCH  18  19
DOCKED: ATOM     22  C   UNL     1      36.652  11.850 122.703 -0.66 -0.00    +0.000 C 
DOCKED: BRANCH  19  20
DOCKED: ATOM     23  C   UNL     1      35.691  10.651 122.738 -0.67 -0.00    +0.000 C 
DOCKED: BRANCH  20  22
DOCKED: ATOM     24  O   UNL     1      36.832   9.227 121.195 -2.66 -0.00    +0.000 OA
DOCKED: ATOM     25  C   UNL     1      36.377   9.369 122.361 -0.72 -0.00    +0.000 C 
DOCKED: ATOM     26  N   UNL     1      36.484   8.300 123.305 -0.68 -0.00    +0.000 N 
DOCKED: ATOM     27  H   UNL     1      36.120   8.411 124.212 -0.22 -0.00    +0.000 HD
DOCKED: BRANCH  23  25
DOCKED: ATOM     28  O   UNL     1      37.082   7.135 122.959 -1.88 -0.00    +0.000 OA
DOCKED: ATOM     29  H   UNL     1      37.383   7.186 122.038 -0.16 -0.00    +0.000 HD
DOCKED: ENDBRANCH  23  25
DOCKED: ENDBRANCH  20  22
DOCKED: ENDBRANCH  19  20
DOCKED: ENDBRANCH  18  19
DOCKED: ENDBRANCH  17  18
DOCKED: ENDBRANCH  16  17
DOCKED: ENDBRANCH   1  16
DOCKED: TORSDOF 7DOCKED: TER
DOCKED: ENDMDL
________________________________________________________________________________


	BEGINNING GENETIC ALGORITHM DOCKING 25 of 100
Run: 25 Seed: 669579426 389456864 [ Run 25 of 100 GA/GALS ]
Beginning LAMARCKIAN GENETIC ALGORITHM (LGA), with a maximum of 2500000 energy evaluations.

Final-Value: -14.656


	FINAL GENETIC ALGORITHM DOCKED STATE
	_______________________________________________


Detailed state:  trans 37.834 14.157 122.512 quatxyzw 0.349260 -0.132105 -0.764378 -0.525635 center 0.154 0.111 -0.146 ntor 7 17.2087 152.5889 46.4338 -63.8445 79.6456 -58.8215 16.5653
State:	 37.834  14.157 122.512   0.411 -0.155 -0.899 -116.578     17.21  152.59   46.43  -63.84   79.65  -58.82   16.57

DOCKED: MODEL       25
DOCKED: USER    Run = 25
DOCKED: USER    DPF = ligand_dock.biased.dpf
DOCKED: USER  
DOCKED: USER    Estimated Free Energy of Binding    =  -11.10 kcal/mol  [=(1)+(2)+(3)-(4)]
DOCKED: USER    Estimated Inhibition Constant, Ki   =    7.36 nM (nanomolar)  [Temperature = 298.15 K]
DOCKED: USER    
DOCKED: USER    (1) Final Intermolecular Energy     =  -13.18 kcal/mol
DOCKED: USER        vdW + Hbond + desolv Energy     =  -13.18 kcal/mol
DOCKED: USER        Electrostatic Energy            =   +0.00 kcal/mol
DOCKED: USER    (2) Final Total Internal Energy     =   -1.47 kcal/mol
DOCKED: USER    (3) Torsional Free Energy           =   +2.09 kcal/mol
DOCKED: USER    (4) Unbound System's Energy  [=(2)] =   -1.47 kcal/mol
DOCKED: USER    
DOCKED: USER    
DOCKED: USER    NEWDPF move ligand.dum.pdbqt
DOCKED: USER    NEWDPF about 0.154000 0.111000 -0.146000
DOCKED: USER    NEWDPF tran0 37.833950 14.157489 122.511713
DOCKED: USER    NEWDPF quaternion0 0.349260 -0.132105 -0.764378 -0.525635
DOCKED: USER    NEWDPF axisangle0 0.410551 -0.155288 -0.898517 -116.577952
DOCKED: USER    NEWDPF quat0 0.410551 -0.155288 -0.898517 -116.577952
DOCKED: USER    NEWDPF dihe0 17.21 152.59 46.43 -63.84 79.65 -58.82 16.57 
DOCKED: USER  keepresnum = 1 
DOCKED: USER  
DOCKED: REMARK  Name = 
DOCKED: REMARK  7 active torsions:
DOCKED: REMARK  status: ('A' for Active; 'I' for Inactive)
DOCKED: REMARK    1  A    between atoms: C_2  and  C_5
DOCKED: REMARK    2  A    between atoms: N_3  and  O_4
DOCKED: REMARK    3  A    between atoms: C_5  and  C_6
DOCKED: REMARK    4  A    between atoms: C_6  and  C_7
DOCKED: REMARK    5  A    between atoms: C_7  and  C_8
DOCKED: REMARK    6  A    between atoms: C_8  and  C_9
DOCKED: REMARK    7  A    between atoms: C_9  and  N_10
DOCKED: REMARK                            x       y       z     vdW  Elec       q    Type
DOCKED: REMARK                         _______ _______ _______ _____ _____    ______ ____
DOCKED: USER                              x       y       z     vdW  Elec       q    Type
DOCKED: USER                           _______ _______ _______ _____ _____    ______ ____
DOCKED: ROOT
DOCKED: ATOM      1  N   UNL     1      38.227  15.198 121.508 -0.26 -0.00    +0.000 N 
DOCKED: ATOM      2  C   UNL     1      39.574  15.504 121.918 -0.33 -0.00    +0.000 C 
DOCKED: ATOM      3  C   UNL     1      39.814  16.453 123.030 -0.24 -0.00    +0.000 A 
DOCKED: ATOM      4  C   UNL     1      41.124  16.739 123.453 -0.31 -0.00    +0.000 A 
DOCKED: ATOM      5  C   UNL     1      41.352  17.631 124.502 -0.26 -0.00    +0.000 A 
DOCKED: ATOM      6  C   UNL     1      40.279  18.252 125.143 -0.28 -0.00    +0.000 A 
DOCKED: ATOM      7  C   UNL     1      38.964  17.983 124.738 -0.18 -0.00    +0.000 A 
DOCKED: ATOM      8  C   UNL     1      37.887  18.608 125.382 -0.14 -0.00    +0.000 A 
DOCKED: ATOM      9  C   UNL     1      36.579  18.344 124.978 -0.18 -0.00    +0.000 A 
DOCKED: ATOM     10  C   UNL     1      36.331  17.455 123.931 -0.24 -0.00    +0.000 A 
DOCKED: ATOM     11  C   UNL     1      37.394  16.815 123.269 -0.23 -0.00    +0.000 A 
DOCKED: ATOM     12  C   UNL     1      38.722  17.078 123.673 -0.21 -0.00    +0.000 A 
DOCKED: ATOM     13  O   UNL     1      40.551  14.965 121.330 -0.47 -0.00    +0.000 OA
DOCKED: ATOM     14  C   UNL     1      37.130  15.871 122.159 -0.28 -0.00    +0.000 C 
DOCKED: ATOM     15  O   UNL     1      35.944  15.660 121.786 -0.18 -0.00    +0.000 OA
DOCKED: ATOM     16  CM  UNL     1      38.470  16.128 122.564 +0.00 -0.00    +0.000 AC
DOCKED: ATOM     17  CM  UNL     1      40.043  17.356 124.090 +0.00 -0.00    +0.000 AC
DOCKED: ATOM     18  CM  UNL     1      37.646  17.714 124.329 +0.00 -0.00    +0.000 AC
DOCKED: ENDROOT
DOCKED: BRANCH   1  16
DOCKED: ATOM     19  C   UNL     1      37.983  14.188 120.465 -0.36 -0.00    +0.000 C 
DOCKED: BRANCH  16  17
DOCKED: ATOM     20  C   UNL     1      37.754  12.793 121.073 -0.49 -0.00    +0.000 C 
DOCKED: BRANCH  17  18
DOCKED: ATOM     21  C   UNL     1      37.708  12.775 122.613 -0.42 -0.00    +0.000 C 
DOCKED: BRANCH  18  19
DOCKED: ATOM     22  C   UNL     1      36.789  11.693 123.218 -0.69 -0.00    +0.000 C 
DOCKED: BRANCH  19  20
DOCKED: ATOM     23  C   UNL     1      36.115  10.777 122.185 -0.62 -0.00    +0.000 C 
DOCKED: BRANCH  20  22
DOCKED: ATOM     24  O   UNL     1      37.065   8.860 121.120 -2.70 -0.00    +0.000 OA
DOCKED: ATOM     25  C   UNL     1      36.692   9.390 122.200 -0.71 -0.00    +0.000 C 
DOCKED: ATOM     26  N   UNL     1      36.789   8.659 123.425 -0.63 -0.00    +0.000 N 
DOCKED: ATOM     27  H   UNL     1      36.489   9.073 124.266 -0.35 -0.00    +0.000 HD
DOCKED: BRANCH  23  25
DOCKED: ATOM     28  O   UNL     1      37.288   7.400 123.438 -2.06 -0.00    +0.000 OA
DOCKED: ATOM     29  H   UNL     1      37.779   7.238 122.616 -0.35 -0.00    +0.000 HD
DOCKED: ENDBRANCH  23  25
DOCKED: ENDBRANCH  20  22
DOCKED: ENDBRANCH  19  20
DOCKED: ENDBRANCH  18  19
DOCKED: ENDBRANCH  17  18
DOCKED: ENDBRANCH  16  17
DOCKED: ENDBRANCH   1  16
DOCKED: TORSDOF 7DOCKED: TER
DOCKED: ENDMDL
________________________________________________________________________________


	BEGINNING GENETIC ALGORITHM DOCKING 26 of 100
Run: 26 Seed: 1744283300 2010460354 [ Run 26 of 100 GA/GALS ]
Beginning LAMARCKIAN GENETIC ALGORITHM (LGA), with a maximum of 2500000 energy evaluations.

Final-Value: -13.761


	FINAL GENETIC ALGORITHM DOCKED STATE
	_______________________________________________


Detailed state:  trans 34.637 17.335 123.317 quatxyzw 0.454003 -0.701274 -0.390176 0.387115 center 0.154 0.111 -0.146 ntor 7 1.9306 -172.6698 119.7694 -57.7575 142.6211 -143.6820 -146.6065
State:	 34.637  17.335 123.317   0.492 -0.761 -0.423 134.450      1.93 -172.67  119.77  -57.76  142.62 -143.68 -146.61

DOCKED: MODEL       26
DOCKED: USER    Run = 26
DOCKED: USER    DPF = ligand_dock.biased.dpf
DOCKED: USER  
DOCKED: USER    Estimated Free Energy of Binding    =  -10.41 kcal/mol  [=(1)+(2)+(3)-(4)]
DOCKED: USER    Estimated Inhibition Constant, Ki   =   23.31 nM (nanomolar)  [Temperature = 298.15 K]
DOCKED: USER    
DOCKED: USER    (1) Final Intermolecular Energy     =  -12.50 kcal/mol
DOCKED: USER        vdW + Hbond + desolv Energy     =  -12.50 kcal/mol
DOCKED: USER        Electrostatic Energy            =   +0.00 kcal/mol
DOCKED: USER    (2) Final Total Internal Energy     =   -1.26 kcal/mol
DOCKED: USER    (3) Torsional Free Energy           =   +2.09 kcal/mol
DOCKED: USER    (4) Unbound System's Energy  [=(2)] =   -1.26 kcal/mol
DOCKED: USER    
DOCKED: USER    
DOCKED: USER    NEWDPF move ligand.dum.pdbqt
DOCKED: USER    NEWDPF about 0.154000 0.111000 -0.146000
DOCKED: USER    NEWDPF tran0 34.636869 17.334941 123.317394
DOCKED: USER    NEWDPF quaternion0 0.454003 -0.701274 -0.390176 0.387115
DOCKED: USER    NEWDPF axisangle0 0.492394 -0.760575 -0.423170 134.449733
DOCKED: USER    NEWDPF quat0 0.492394 -0.760575 -0.423170 134.449733
DOCKED: USER    NEWDPF dihe0 1.93 -172.67 119.77 -57.76 142.62 -143.68 -146.61 
DOCKED: USER  keepresnum = 1 
DOCKED: USER  
DOCKED: REMARK  Name = 
DOCKED: REMARK  7 active torsions:
DOCKED: REMARK  status: ('A' for Active; 'I' for Inactive)
DOCKED: REMARK    1  A    between atoms: C_2  and  C_5
DOCKED: REMARK    2  A    between atoms: N_3  and  O_4
DOCKED: REMARK    3  A    between atoms: C_5  and  C_6
DOCKED: REMARK    4  A    between atoms: C_6  and  C_7
DOCKED: REMARK    5  A    between atoms: C_7  and  C_8
DOCKED: REMARK    6  A    between atoms: C_8  and  C_9
DOCKED: REMARK    7  A    between atoms: C_9  and  N_10
DOCKED: REMARK                            x       y       z     vdW  Elec       q    Type
DOCKED: REMARK                         _______ _______ _______ _____ _____    ______ ____
DOCKED: USER                              x       y       z     vdW  Elec       q    Type
DOCKED: USER                           _______ _______ _______ _____ _____    ______ ____
DOCKED: ROOT
DOCKED: ATOM      1  N   UNL     1      35.272  16.294 124.188 -0.42 -0.00    +0.000 N 
DOCKED: ATOM      2  C   UNL     1      34.352  16.240 125.295 -0.47 -0.00    +0.000 C 
DOCKED: ATOM      3  C   UNL     1      34.442  17.238 126.385 -0.18 -0.00    +0.000 A 
DOCKED: ATOM      4  C   UNL     1      33.533  17.208 127.457 -0.34 -0.00    +0.000 A 
DOCKED: ATOM      5  C   UNL     1      33.615  18.150 128.484 -0.18 -0.00    +0.000 A 
DOCKED: ATOM      6  C   UNL     1      34.603  19.134 128.458 -0.10 -0.00    +0.000 A 
DOCKED: ATOM      7  C   UNL     1      35.521  19.184 127.400 -0.13 -0.00    +0.000 A 
DOCKED: ATOM      8  C   UNL     1      36.515  20.173 127.376 -0.08 -0.00    +0.000 A 
DOCKED: ATOM      9  C   UNL     1      37.430  20.222 126.325 -0.08 -0.00    +0.000 A 
DOCKED: ATOM     10  C   UNL     1      37.365  19.289 125.289 -0.13 -0.00    +0.000 A 
DOCKED: ATOM     11  C   UNL     1      36.377  18.287 125.291 -0.18 -0.00    +0.000 A 
DOCKED: ATOM     12  C   UNL     1      35.446  18.231 126.352 -0.15 -0.00    +0.000 A 
DOCKED: ATOM     13  O   UNL     1      33.469  15.339 125.339 -0.42 -0.00    +0.000 OA
DOCKED: ATOM     14  C   UNL     1      36.308  17.298 124.191 -0.29 -0.00    +0.000 C 
DOCKED: ATOM     15  O   UNL     1      37.157  17.337 123.260 -0.23 -0.00    +0.000 OA
DOCKED: ATOM     16  CM  UNL     1      35.364  17.239 125.254 -0.33 -0.00    +0.000 AC
DOCKED: ATOM     17  CM  UNL     1      34.526  18.191 127.423 -0.01 -0.00    +0.000 AC
DOCKED: ATOM     18  CM  UNL     1      36.443  19.231 126.339 -0.00 -0.00    +0.000 AC
DOCKED: ENDROOT
DOCKED: BRANCH   1  16
DOCKED: ATOM     19  C   UNL     1      35.128  15.359 123.060 -0.18 -0.00    +0.000 C 
DOCKED: BRANCH  16  17
DOCKED: ATOM     20  C   UNL     1      35.504  13.923 123.464 -0.45 -0.00    +0.000 C 
DOCKED: BRANCH  17  18
DOCKED: ATOM     21  C   UNL     1      37.020  13.652 123.492 -0.53 -0.00    +0.000 C 
DOCKED: BRANCH  18  19
DOCKED: ATOM     22  C   UNL     1      37.424  12.207 123.132 -0.56 -0.00    +0.000 C 
DOCKED: BRANCH  19  20
DOCKED: ATOM     23  C   UNL     1      36.272  11.333 122.611 -0.68 -0.00    +0.000 C 
DOCKED: BRANCH  20  22
DOCKED: ATOM     24  O   UNL     1      37.062   9.617 121.147 -2.38 -0.00    +0.000 OA
DOCKED: ATOM     25  C   UNL     1      36.718   9.929 122.319 -0.68 -0.00    +0.000 C 
DOCKED: ATOM     26  N   UNL     1      36.721   8.940 123.351 -0.60 -0.00    +0.000 N 
DOCKED: ATOM     27  H   UNL     1      36.444   9.185 124.263 -0.34 -0.00    +0.000 HD
DOCKED: BRANCH  23  25
DOCKED: ATOM     28  O   UNL     1      37.102   7.668 123.085 -2.31 -0.00    +0.000 OA
DOCKED: ATOM     29  H   UNL     1      37.371   7.599 122.155 -0.09 -0.00    +0.000 HD
DOCKED: ENDBRANCH  23  25
DOCKED: ENDBRANCH  20  22
DOCKED: ENDBRANCH  19  20
DOCKED: ENDBRANCH  18  19
DOCKED: ENDBRANCH  17  18
DOCKED: ENDBRANCH  16  17
DOCKED: ENDBRANCH   1  16
DOCKED: TORSDOF 7DOCKED: TER
DOCKED: ENDMDL
________________________________________________________________________________


	BEGINNING GENETIC ALGORITHM DOCKING 27 of 100
Run: 27 Seed: 636166370 677449528 [ Run 27 of 100 GA/GALS ]
Beginning LAMARCKIAN GENETIC ALGORITHM (LGA), with a maximum of 2500000 energy evaluations.

Final-Value: -13.826


	FINAL GENETIC ALGORITHM DOCKED STATE
	_______________________________________________


Detailed state:  trans 37.893 14.034 122.310 quatxyzw -0.373666 0.275655 0.721219 0.514035 center 0.154 0.111 -0.146 ntor 7 21.9984 -54.4530 -175.3925 60.6322 131.2498 -115.5920 58.8695
State:	 37.893  14.034 122.310  -0.436  0.321  0.841 118.134     22.00  -54.45 -175.39   60.63  131.25 -115.59   58.87

DOCKED: MODEL       27
DOCKED: USER    Run = 27
DOCKED: USER    DPF = ligand_dock.biased.dpf
DOCKED: USER  
DOCKED: USER    Estimated Free Energy of Binding    =  -10.55 kcal/mol  [=(1)+(2)+(3)-(4)]
DOCKED: USER    Estimated Inhibition Constant, Ki   =   18.41 nM (nanomolar)  [Temperature = 298.15 K]
DOCKED: USER    
DOCKED: USER    (1) Final Intermolecular Energy     =  -12.64 kcal/mol
DOCKED: USER        vdW + Hbond + desolv Energy     =  -12.64 kcal/mol
DOCKED: USER        Electrostatic Energy            =   +0.00 kcal/mol
DOCKED: USER    (2) Final Total Internal Energy     =   -1.19 kcal/mol
DOCKED: USER    (3) Torsional Free Energy           =   +2.09 kcal/mol
DOCKED: USER    (4) Unbound System's Energy  [=(2)] =   -1.19 kcal/mol
DOCKED: USER    
DOCKED: USER    
DOCKED: USER    NEWDPF move ligand.dum.pdbqt
DOCKED: USER    NEWDPF about 0.154000 0.111000 -0.146000
DOCKED: USER    NEWDPF tran0 37.893434 14.033947 122.309594
DOCKED: USER    NEWDPF quaternion0 -0.373666 0.275655 0.721219 0.514035
DOCKED: USER    NEWDPF axisangle0 -0.435625 0.321363 0.840807 118.134063
DOCKED: USER    NEWDPF quat0 -0.435625 0.321363 0.840807 118.134063
DOCKED: USER    NEWDPF dihe0 22.00 -54.45 -175.39 60.63 131.25 -115.59 58.87 
DOCKED: USER  keepresnum = 1 
DOCKED: USER  
DOCKED: REMARK  Name = 
DOCKED: REMARK  7 active torsions:
DOCKED: REMARK  status: ('A' for Active; 'I' for Inactive)
DOCKED: REMARK    1  A    between atoms: C_2  and  C_5
DOCKED: REMARK    2  A    between atoms: N_3  and  O_4
DOCKED: REMARK    3  A    between atoms: C_5  and  C_6
DOCKED: REMARK    4  A    between atoms: C_6  and  C_7
DOCKED: REMARK    5  A    between atoms: C_7  and  C_8
DOCKED: REMARK    6  A    between atoms: C_8  and  C_9
DOCKED: REMARK    7  A    between atoms: C_9  and  N_10
DOCKED: REMARK                            x       y       z     vdW  Elec       q    Type
DOCKED: REMARK                         _______ _______ _______ _____ _____    ______ ____
DOCKED: USER                              x       y       z     vdW  Elec       q    Type
DOCKED: USER                           _______ _______ _______ _____ _____    ______ ____
DOCKED: ROOT
DOCKED: ATOM      1  N   UNL     1      38.580  14.832 121.244 -0.29 -0.00    +0.000 N 
DOCKED: ATOM      2  C   UNL     1      39.830  15.156 121.882 -0.38 -0.00    +0.000 C 
DOCKED: ATOM      3  C   UNL     1      39.911  16.298 122.821 -0.26 -0.00    +0.000 A 
DOCKED: ATOM      4  C   UNL     1      41.121  16.607 123.467 -0.27 -0.00    +0.000 A 
DOCKED: ATOM      5  C   UNL     1      41.197  17.682 124.354 -0.30 -0.00    +0.000 A 
DOCKED: ATOM      6  C   UNL     1      40.072  18.465 124.609 -0.22 -0.00    +0.000 A 
DOCKED: ATOM      7  C   UNL     1      38.855  18.178 123.976 -0.17 -0.00    +0.000 A 
DOCKED: ATOM      8  C   UNL     1      37.724  18.967 124.231 -0.13 -0.00    +0.000 A 
DOCKED: ATOM      9  C   UNL     1      36.514  18.683 123.600 -0.17 -0.00    +0.000 A 
DOCKED: ATOM     10  C   UNL     1      36.417  17.613 122.709 -0.20 -0.00    +0.000 A 
DOCKED: ATOM     11  C   UNL     1      37.537  16.807 122.436 -0.19 -0.00    +0.000 A 
DOCKED: ATOM     12  C   UNL     1      38.766  17.088 123.072 -0.20 -0.00    +0.000 A 
DOCKED: ATOM     13  O   UNL     1      40.860  14.466 121.641 -0.90 -0.00    +0.000 OA
DOCKED: ATOM     14  C   UNL     1      37.433  15.670 121.493 -0.25 -0.00    +0.000 C 
DOCKED: ATOM     15  O   UNL     1      36.339  15.440 120.908 -0.15 -0.00    +0.000 OA
DOCKED: ATOM     16  CM  UNL     1      38.673  15.944 122.133 +0.00 -0.00    +0.000 AC
DOCKED: ATOM     17  CM  UNL     1      39.987  17.386 123.717 +0.00 -0.00    +0.000 AC
DOCKED: ATOM     18  CM  UNL     1      37.635  17.889 123.337 +0.00 -0.00    +0.000 AC
DOCKED: ENDROOT
DOCKED: BRANCH   1  16
DOCKED: ATOM     19  C   UNL     1      38.476  13.643 120.381 -0.30 -0.00    +0.000 C 
DOCKED: BRANCH  16  17
DOCKED: ATOM     20  C   UNL     1      37.200  12.837 120.681 -0.49 -0.00    +0.000 C 
DOCKED: BRANCH  17  18
DOCKED: ATOM     21  C   UNL     1      37.009  12.489 122.170 -0.57 -0.00    +0.000 C 
DOCKED: BRANCH  18  19
DOCKED: ATOM     22  C   UNL     1      36.053  11.308 122.439 -0.64 -0.00    +0.000 C 
DOCKED: BRANCH  19  20
DOCKED: ATOM     23  C   UNL     1      36.645  10.194 123.317 -0.55 -0.00    +0.000 C 
DOCKED: BRANCH  20  22
DOCKED: ATOM     24  O   UNL     1      36.933   8.944 121.301 -2.56 -0.00    +0.000 OA
DOCKED: ATOM     25  C   UNL     1      36.824   8.912 122.556 -0.73 -0.00    +0.000 C 
DOCKED: ATOM     26  N   UNL     1      36.839   7.658 123.242 -0.76 -0.00    +0.000 N 
DOCKED: ATOM     27  H   UNL     1      36.745   7.636 124.221 -0.35 -0.00    +0.000 HD
DOCKED: BRANCH  23  25
DOCKED: ATOM     28  O   UNL     1      36.978   6.499 122.554 -1.15 -0.00    +0.000 OA
DOCKED: ATOM     29  H   UNL     1      37.394   6.680 121.696 -0.45 -0.00    +0.000 HD
DOCKED: ENDBRANCH  23  25
DOCKED: ENDBRANCH  20  22
DOCKED: ENDBRANCH  19  20
DOCKED: ENDBRANCH  18  19
DOCKED: ENDBRANCH  17  18
DOCKED: ENDBRANCH  16  17
DOCKED: ENDBRANCH   1  16
DOCKED: TORSDOF 7DOCKED: TER
DOCKED: ENDMDL
________________________________________________________________________________


	BEGINNING GENETIC ALGORITHM DOCKING 28 of 100
Run: 28 Seed: 904810937 87100203 [ Run 28 of 100 GA/GALS ]
Beginning LAMARCKIAN GENETIC ALGORITHM (LGA), with a maximum of 2500000 energy evaluations.

Final-Value: -14.022


	FINAL GENETIC ALGORITHM DOCKED STATE
	_______________________________________________


Detailed state:  trans 39.736 14.783 121.138 quatxyzw 0.404328 -0.776940 0.288827 0.386603 center 0.154 0.111 -0.146 ntor 7 -2.7973 -82.3172 -125.2151 180.0000 3.8729 106.5318 -8.5429
State:	 39.736  14.783 121.138   0.438 -0.842  0.313 134.513     -2.80  -82.32 -125.22  180.00    3.87  106.53   -8.54

DOCKED: MODEL       28
DOCKED: USER    Run = 28
DOCKED: USER    DPF = ligand_dock.biased.dpf
DOCKED: USER  
DOCKED: USER    Estimated Free Energy of Binding    =  -10.71 kcal/mol  [=(1)+(2)+(3)-(4)]
DOCKED: USER    Estimated Inhibition Constant, Ki   =   14.00 nM (nanomolar)  [Temperature = 298.15 K]
DOCKED: USER    
DOCKED: USER    (1) Final Intermolecular Energy     =  -12.80 kcal/mol
DOCKED: USER        vdW + Hbond + desolv Energy     =  -12.80 kcal/mol
DOCKED: USER        Electrostatic Energy            =   +0.00 kcal/mol
DOCKED: USER    (2) Final Total Internal Energy     =   -1.22 kcal/mol
DOCKED: USER    (3) Torsional Free Energy           =   +2.09 kcal/mol
DOCKED: USER    (4) Unbound System's Energy  [=(2)] =   -1.22 kcal/mol
DOCKED: USER    
DOCKED: USER    
DOCKED: USER    NEWDPF move ligand.dum.pdbqt
DOCKED: USER    NEWDPF about 0.154000 0.111000 -0.146000
DOCKED: USER    NEWDPF tran0 39.735733 14.783413 121.138442
DOCKED: USER    NEWDPF quaternion0 0.404328 -0.776940 0.288827 0.386603
DOCKED: USER    NEWDPF axisangle0 0.438416 -0.842443 0.313178 134.513360
DOCKED: USER    NEWDPF quat0 0.438416 -0.842443 0.313178 134.513360
DOCKED: USER    NEWDPF dihe0 -2.80 -82.32 -125.22 180.00 3.87 106.53 -8.54 
DOCKED: USER  keepresnum = 1 
DOCKED: USER  
DOCKED: REMARK  Name = 
DOCKED: REMARK  7 active torsions:
DOCKED: REMARK  status: ('A' for Active; 'I' for Inactive)
DOCKED: REMARK    1  A    between atoms: C_2  and  C_5
DOCKED: REMARK    2  A    between atoms: N_3  and  O_4
DOCKED: REMARK    3  A    between atoms: C_5  and  C_6
DOCKED: REMARK    4  A    between atoms: C_6  and  C_7
DOCKED: REMARK    5  A    between atoms: C_7  and  C_8
DOCKED: REMARK    6  A    between atoms: C_8  and  C_9
DOCKED: REMARK    7  A    between atoms: C_9  and  N_10
DOCKED: REMARK                            x       y       z     vdW  Elec       q    Type
DOCKED: REMARK                         _______ _______ _______ _____ _____    ______ ____
DOCKED: USER                              x       y       z     vdW  Elec       q    Type
DOCKED: USER                           _______ _______ _______ _____ _____    ______ ____
DOCKED: ROOT
DOCKED: ATOM      1  N   UNL     1      39.290  15.101 122.533 -0.37 -0.00    +0.000 N 
DOCKED: ATOM      2  C   UNL     1      38.573  16.335 122.336 -0.24 -0.00    +0.000 C 
DOCKED: ATOM      3  C   UNL     1      39.310  17.617 122.256 -0.12 -0.00    +0.000 A 
DOCKED: ATOM      4  C   UNL     1      38.621  18.823 122.039 -0.06 -0.00    +0.000 A 
DOCKED: ATOM      5  C   UNL     1      39.315  20.032 121.960 -0.02 -0.00    +0.000 A 
DOCKED: ATOM      6  C   UNL     1      40.702  20.057 122.097 -0.03 -0.00    +0.000 A 
DOCKED: ATOM      7  C   UNL     1      41.411  18.868 122.315 -0.09 -0.00    +0.000 A 
DOCKED: ATOM      8  C   UNL     1      42.806  18.893 122.454 -0.13 -0.00    +0.000 A 
DOCKED: ATOM      9  C   UNL     1      43.511  17.711 122.674 -0.26 -0.00    +0.000 A 
DOCKED: ATOM     10  C   UNL     1      42.836  16.492 122.756 -0.39 -0.00    +0.000 A 
DOCKED: ATOM     11  C   UNL     1      41.437  16.440 122.619 -0.34 -0.00    +0.000 A 
DOCKED: ATOM     12  C   UNL     1      40.715  17.634 122.397 -0.16 -0.00    +0.000 A 
DOCKED: ATOM     13  O   UNL     1      37.315  16.325 122.233 -0.23 -0.00    +0.000 OA
DOCKED: ATOM     14  C   UNL     1      40.721  15.146 122.705 -0.47 -0.00    +0.000 C 
DOCKED: ATOM     15  O   UNL     1      41.368  14.087 122.929 -1.05 +0.00    +0.000 OA
DOCKED: ATOM     16  CM  UNL     1      39.989  16.344 122.476 +0.00 -0.00    +0.000 AC
DOCKED: ATOM     17  CM  UNL     1      40.012  18.838 122.177 +0.00 -0.00    +0.000 AC
DOCKED: ATOM     18  CM  UNL     1      42.120  17.673 122.536 +0.00 -0.00    +0.000 AC
DOCKED: ENDROOT
DOCKED: BRANCH   1  16
DOCKED: ATOM     19  C   UNL     1      38.569  13.817 122.523 -0.37 -0.00    +0.000 C 
DOCKED: BRANCH  16  17
DOCKED: ATOM     20  C   UNL     1      38.011  13.494 121.126 -0.44 -0.00    +0.000 C 
DOCKED: BRANCH  17  18
DOCKED: ATOM     21  C   UNL     1      37.451  12.065 120.985 -0.52 -0.00    +0.000 C 
DOCKED: BRANCH  18  19
DOCKED: ATOM     22  C   UNL     1      36.107  11.825 121.702 -0.38 -0.00    +0.000 C 
DOCKED: BRANCH  19  20
DOCKED: ATOM     23  C   UNL     1      36.178  10.838 122.879 -0.69 -0.00    +0.000 C 
DOCKED: BRANCH  20  22
DOCKED: ATOM     24  O   UNL     1      36.719   9.219 121.207 -2.64 -0.00    +0.000 OA
DOCKED: ATOM     25  C   UNL     1      36.574   9.460 122.435 -0.72 -0.00    +0.000 C 
DOCKED: ATOM     26  N   UNL     1      36.752   8.413 123.393 -0.68 -0.00    +0.000 N 
DOCKED: ATOM     27  H   UNL     1      36.630   8.602 124.351 -0.36 -0.00    +0.000 HD
DOCKED: BRANCH  23  25
DOCKED: ATOM     28  O   UNL     1      37.087   7.164 122.993 -1.92 -0.00    +0.000 OA
DOCKED: ATOM     29  H   UNL     1      37.126   7.133 122.024 -0.12 -0.00    +0.000 HD
DOCKED: ENDBRANCH  23  25
DOCKED: ENDBRANCH  20  22
DOCKED: ENDBRANCH  19  20
DOCKED: ENDBRANCH  18  19
DOCKED: ENDBRANCH  17  18
DOCKED: ENDBRANCH  16  17
DOCKED: ENDBRANCH   1  16
DOCKED: TORSDOF 7DOCKED: TER
DOCKED: ENDMDL
________________________________________________________________________________


	BEGINNING GENETIC ALGORITHM DOCKING 29 of 100
Run: 29 Seed: 1688808504 1698115958 [ Run 29 of 100 GA/GALS ]
Beginning LAMARCKIAN GENETIC ALGORITHM (LGA), with a maximum of 2500000 energy evaluations.

Final-Value: -15.191


	FINAL GENETIC ALGORITHM DOCKED STATE
	_______________________________________________


Detailed state:  trans 34.744 15.562 122.544 quatxyzw -0.574748 0.784239 0.183918 -0.144252 center 0.154 0.111 -0.146 ntor 7 3.1593 -137.5979 -143.8522 -120.9855 -110.8881 -175.0750 167.9704
State:	 34.744  15.562 122.544  -0.581  0.793  0.186 -163.412      3.16 -137.60 -143.85 -120.99 -110.89 -175.08  167.97

DOCKED: MODEL       29
DOCKED: USER    Run = 29
DOCKED: USER    DPF = ligand_dock.biased.dpf
DOCKED: USER  
DOCKED: USER    Estimated Free Energy of Binding    =  -11.73 kcal/mol  [=(1)+(2)+(3)-(4)]
DOCKED: USER    Estimated Inhibition Constant, Ki   =    2.52 nM (nanomolar)  [Temperature = 298.15 K]
DOCKED: USER    
DOCKED: USER    (1) Final Intermolecular Energy     =  -13.82 kcal/mol
DOCKED: USER        vdW + Hbond + desolv Energy     =  -13.82 kcal/mol
DOCKED: USER        Electrostatic Energy            =   +0.00 kcal/mol
DOCKED: USER    (2) Final Total Internal Energy     =   -1.37 kcal/mol
DOCKED: USER    (3) Torsional Free Energy           =   +2.09 kcal/mol
DOCKED: USER    (4) Unbound System's Energy  [=(2)] =   -1.37 kcal/mol
DOCKED: USER    
DOCKED: USER    
DOCKED: USER    NEWDPF move ligand.dum.pdbqt
DOCKED: USER    NEWDPF about 0.154000 0.111000 -0.146000
DOCKED: USER    NEWDPF tran0 34.744425 15.561959 122.544094
DOCKED: USER    NEWDPF quaternion0 -0.574748 0.784239 0.183918 -0.144252
DOCKED: USER    NEWDPF axisangle0 -0.580823 0.792528 0.185862 -163.412096
DOCKED: USER    NEWDPF quat0 -0.580823 0.792528 0.185862 -163.412096
DOCKED: USER    NEWDPF dihe0 3.16 -137.60 -143.85 -120.99 -110.89 -175.08 167.97 
DOCKED: USER  keepresnum = 1 
DOCKED: USER  
DOCKED: REMARK  Name = 
DOCKED: REMARK  7 active torsions:
DOCKED: REMARK  status: ('A' for Active; 'I' for Inactive)
DOCKED: REMARK    1  A    between atoms: C_2  and  C_5
DOCKED: REMARK    2  A    between atoms: N_3  and  O_4
DOCKED: REMARK    3  A    between atoms: C_5  and  C_6
DOCKED: REMARK    4  A    between atoms: C_6  and  C_7
DOCKED: REMARK    5  A    between atoms: C_7  and  C_8
DOCKED: REMARK    6  A    between atoms: C_8  and  C_9
DOCKED: REMARK    7  A    between atoms: C_9  and  N_10
DOCKED: REMARK                            x       y       z     vdW  Elec       q    Type
DOCKED: REMARK                         _______ _______ _______ _____ _____    ______ ____
DOCKED: USER                              x       y       z     vdW  Elec       q    Type
DOCKED: USER                           _______ _______ _______ _____ _____    ______ ____
DOCKED: ROOT
DOCKED: ATOM      1  N   UNL     1      35.599  15.362 123.759 -0.47 -0.00    +0.000 N 
DOCKED: ATOM      2  C   UNL     1      34.784  15.953 124.789 -0.50 -0.00    +0.000 C 
DOCKED: ATOM      3  C   UNL     1      34.796  17.420 124.995 -0.35 -0.00    +0.000 A 
DOCKED: ATOM      4  C   UNL     1      33.985  18.009 125.981 -0.32 -0.00    +0.000 A 
DOCKED: ATOM      5  C   UNL     1      33.994  19.391 126.174 -0.22 -0.00    +0.000 A 
DOCKED: ATOM      6  C   UNL     1      34.810  20.206 125.390 -0.16 -0.00    +0.000 A 
DOCKED: ATOM      7  C   UNL     1      35.628  19.642 124.401 -0.18 -0.00    +0.000 A 
DOCKED: ATOM      8  C   UNL     1      36.449  20.461 123.613 -0.14 -0.00    +0.000 A 
DOCKED: ATOM      9  C   UNL     1      37.264  19.900 122.631 -0.11 -0.00    +0.000 A 
DOCKED: ATOM     10  C   UNL     1      37.270  18.521 122.422 -0.11 -0.00    +0.000 A 
DOCKED: ATOM     11  C   UNL     1      36.455  17.678 123.199 -0.21 -0.00    +0.000 A 
DOCKED: ATOM     12  C   UNL     1      35.626  18.238 124.196 -0.25 -0.00    +0.000 A 
DOCKED: ATOM     13  O   UNL     1      34.059  15.222 125.518 -0.64 -0.00    +0.000 OA
DOCKED: ATOM     14  C   UNL     1      36.461  16.213 122.977 -0.34 -0.00    +0.000 C 
DOCKED: ATOM     15  O   UNL     1      37.222  15.716 122.103 -0.28 -0.00    +0.000 OA
DOCKED: ATOM     16  CM  UNL     1      35.620  16.771 123.979 -0.08 -0.00    +0.000 AC
DOCKED: ATOM     17  CM  UNL     1      34.806  18.818 125.189 -0.22 -0.00    +0.000 AC
DOCKED: ATOM     18  CM  UNL     1      36.449  19.074 123.410 +0.00 -0.00    +0.000 AC
DOCKED: ENDROOT
DOCKED: BRANCH   1  16
DOCKED: ATOM     19  C   UNL     1      35.520  13.916 123.492 -0.47 -0.00    +0.000 C 
DOCKED: BRANCH  16  17
DOCKED: ATOM     20  C   UNL     1      36.854  13.212 123.793 -0.48 -0.00    +0.000 C 
DOCKED: BRANCH  17  18
DOCKED: ATOM     21  C   UNL     1      37.585  12.682 122.544 -0.47 -0.00    +0.000 C 
DOCKED: BRANCH  18  19
DOCKED: ATOM     22  C   UNL     1      36.672  12.007 121.500 -0.55 -0.00    +0.000 C 
DOCKED: BRANCH  19  20
DOCKED: ATOM     23  C   UNL     1      35.808  10.862 122.053 -0.53 -0.00    +0.000 C 
DOCKED: BRANCH  20  22
DOCKED: ATOM     24  O   UNL     1      37.066   9.070 121.093 -2.72 -0.00    +0.000 OA
DOCKED: ATOM     25  C   UNL     1      36.572   9.571 122.139 -0.69 -0.00    +0.000 C 
DOCKED: ATOM     26  N   UNL     1      36.711   8.894 123.390 -0.59 -0.00    +0.000 N 
DOCKED: ATOM     27  H   UNL     1      36.317   9.284 124.202 -0.35 -0.00    +0.000 HD
DOCKED: BRANCH  23  25
DOCKED: ATOM     28  O   UNL     1      37.381   7.719 123.465 -2.19 -0.00    +0.000 OA
DOCKED: ATOM     29  H   UNL     1      37.747   7.498 122.594 -0.21 -0.00    +0.000 HD
DOCKED: ENDBRANCH  23  25
DOCKED: ENDBRANCH  20  22
DOCKED: ENDBRANCH  19  20
DOCKED: ENDBRANCH  18  19
DOCKED: ENDBRANCH  17  18
DOCKED: ENDBRANCH  16  17
DOCKED: ENDBRANCH   1  16
DOCKED: TORSDOF 7DOCKED: TER
DOCKED: ENDMDL
________________________________________________________________________________


	BEGINNING GENETIC ALGORITHM DOCKING 30 of 100
Run: 30 Seed: 1331508057 1445356786 [ Run 30 of 100 GA/GALS ]
Beginning LAMARCKIAN GENETIC ALGORITHM (LGA), with a maximum of 2500000 energy evaluations.

Final-Value: -14.246


	FINAL GENETIC ALGORITHM DOCKED STATE
	_______________________________________________


Detailed state:  trans 38.037 16.151 121.183 quatxyzw -0.125287 0.932115 0.052141 -0.335776 center 0.154 0.111 -0.146 ntor 7 28.8422 -21.9152 -166.0105 179.3019 110.7108 177.5958 -161.2695
State:	 38.037  16.151 121.183  -0.133  0.990  0.055 -140.761     28.84  -21.92 -166.01  179.30  110.71  177.60 -161.27

DOCKED: MODEL       30
DOCKED: USER    Run = 30
DOCKED: USER    DPF = ligand_dock.biased.dpf
DOCKED: USER  
DOCKED: USER    Estimated Free Energy of Binding    =  -11.08 kcal/mol  [=(1)+(2)+(3)-(4)]
DOCKED: USER    Estimated Inhibition Constant, Ki   =    7.52 nM (nanomolar)  [Temperature = 298.15 K]
DOCKED: USER    
DOCKED: USER    (1) Final Intermolecular Energy     =  -13.17 kcal/mol
DOCKED: USER        vdW + Hbond + desolv Energy     =  -13.17 kcal/mol
DOCKED: USER        Electrostatic Energy            =   +0.00 kcal/mol
DOCKED: USER    (2) Final Total Internal Energy     =   -1.07 kcal/mol
DOCKED: USER    (3) Torsional Free Energy           =   +2.09 kcal/mol
DOCKED: USER    (4) Unbound System's Energy  [=(2)] =   -1.07 kcal/mol
DOCKED: USER    
DOCKED: USER    
DOCKED: USER    NEWDPF move ligand.dum.pdbqt
DOCKED: USER    NEWDPF about 0.154000 0.111000 -0.146000
DOCKED: USER    NEWDPF tran0 38.036900 16.150870 121.183214
DOCKED: USER    NEWDPF quaternion0 -0.125287 0.932115 0.052141 -0.335776
DOCKED: USER    NEWDPF axisangle0 -0.133009 0.989568 0.055355 -140.760551
DOCKED: USER    NEWDPF quat0 -0.133009 0.989568 0.055355 -140.760551
DOCKED: USER    NEWDPF dihe0 28.84 -21.92 -166.01 179.30 110.71 177.60 -161.27 
DOCKED: USER  keepresnum = 1 
DOCKED: USER  
DOCKED: REMARK  Name = 
DOCKED: REMARK  7 active torsions:
DOCKED: REMARK  status: ('A' for Active; 'I' for Inactive)
DOCKED: REMARK    1  A    between atoms: C_2  and  C_5
DOCKED: REMARK    2  A    between atoms: N_3  and  O_4
DOCKED: REMARK    3  A    between atoms: C_5  and  C_6
DOCKED: REMARK    4  A    between atoms: C_6  and  C_7
DOCKED: REMARK    5  A    between atoms: C_7  and  C_8
DOCKED: REMARK    6  A    between atoms: C_8  and  C_9
DOCKED: REMARK    7  A    between atoms: C_9  and  N_10
DOCKED: REMARK                            x       y       z     vdW  Elec       q    Type
DOCKED: REMARK                         _______ _______ _______ _____ _____    ______ ____
DOCKED: USER                              x       y       z     vdW  Elec       q    Type
DOCKED: USER                           _______ _______ _______ _____ _____    ______ ____
DOCKED: ROOT
DOCKED: ATOM      1  N   UNL     1      37.977  15.368 122.460 -0.30 -0.00    +0.000 N 
DOCKED: ATOM      2  C   UNL     1      37.814  16.415 123.436 -0.29 -0.00    +0.000 C 
DOCKED: ATOM      3  C   UNL     1      38.993  17.165 123.924 -0.17 -0.00    +0.000 A 
DOCKED: ATOM      4  C   UNL     1      38.841  18.205 124.858 -0.18 -0.00    +0.000 A 
DOCKED: ATOM      5  C   UNL     1      39.952  18.915 125.318 -0.20 -0.00    +0.000 A 
DOCKED: ATOM      6  C   UNL     1      41.229  18.598 124.856 -0.24 -0.00    +0.000 A 
DOCKED: ATOM      7  C   UNL     1      41.407  17.565 123.925 -0.31 -0.00    +0.000 A 
DOCKED: ATOM      8  C   UNL     1      42.691  17.246 123.462 -0.27 -0.00    +0.000 A 
DOCKED: ATOM      9  C   UNL     1      42.868  16.217 122.538 -0.38 -0.00    +0.000 A 
DOCKED: ATOM     10  C   UNL     1      41.770  15.496 122.067 -0.40 -0.00    +0.000 A 
DOCKED: ATOM     11  C   UNL     1      40.472  15.796 122.516 -0.34 -0.00    +0.000 A 
DOCKED: ATOM     12  C   UNL     1      40.284  16.838 123.452 -0.22 -0.00    +0.000 A 
DOCKED: ATOM     13  O   UNL     1      36.664  16.694 123.876 -0.33 -0.00    +0.000 OA
DOCKED: ATOM     14  C   UNL     1      39.307  15.032 122.015 -0.39 -0.00    +0.000 C 
DOCKED: ATOM     15  O   UNL     1      39.483  14.086 121.199 -0.76 -0.00    +0.000 OA
DOCKED: ATOM     16  CM  UNL     1      39.110  16.082 122.953 +0.00 -0.00    +0.000 AC
DOCKED: ATOM     17  CM  UNL     1      40.118  17.882 124.388 +0.00 -0.00    +0.000 AC
DOCKED: ATOM     18  CM  UNL     1      41.582  16.526 122.993 +0.00 -0.00    +0.000 AC
DOCKED: ENDROOT
DOCKED: BRANCH   1  16
DOCKED: ATOM     19  C   UNL     1      36.797  14.684 121.905 -0.28 -0.00    +0.000 C 
DOCKED: BRANCH  16  17
DOCKED: ATOM     20  C   UNL     1      36.344  13.521 122.805 -0.50 -0.00    +0.000 C 
DOCKED: BRANCH  17  18
DOCKED: ATOM     21  C   UNL     1      36.395  12.139 122.125 -0.56 -0.00    +0.000 C 
DOCKED: BRANCH  18  19
DOCKED: ATOM     22  C   UNL     1      35.950  10.963 123.018 -0.70 -0.00    +0.000 C 
DOCKED: BRANCH  19  20
DOCKED: ATOM     23  C   UNL     1      37.062   9.955 123.349 -0.41 -0.00    +0.000 C 
DOCKED: BRANCH  20  22
DOCKED: ATOM     24  O   UNL     1      36.895   8.748 121.293 -2.45 -0.00    +0.000 OA
DOCKED: ATOM     25  C   UNL     1      36.930   8.690 122.551 -0.70 -0.00    +0.000 C 
DOCKED: ATOM     26  N   UNL     1      36.810   7.427 123.211 -0.76 -0.00    +0.000 N 
DOCKED: ATOM     27  H   UNL     1      36.830   7.385 124.193 -0.46 -0.00    +0.000 HD
DOCKED: BRANCH  23  25
DOCKED: ATOM     28  O   UNL     1      36.669   6.287 122.493 -1.12 -0.00    +0.000 OA
DOCKED: ATOM     29  H   UNL     1      37.103   6.390 121.631 -0.46 -0.00    +0.000 HD
DOCKED: ENDBRANCH  23  25
DOCKED: ENDBRANCH  20  22
DOCKED: ENDBRANCH  19  20
DOCKED: ENDBRANCH  18  19
DOCKED: ENDBRANCH  17  18
DOCKED: ENDBRANCH  16  17
DOCKED: ENDBRANCH   1  16
DOCKED: TORSDOF 7DOCKED: TER
DOCKED: ENDMDL
________________________________________________________________________________


	BEGINNING GENETIC ALGORITHM DOCKING 31 of 100
Run: 31 Seed: 1061785912 647953639 [ Run 31 of 100 GA/GALS ]
Beginning LAMARCKIAN GENETIC ALGORITHM (LGA), with a maximum of 2500000 energy evaluations.

Final-Value: -14.361


	FINAL GENETIC ALGORITHM DOCKED STATE
	_______________________________________________


Detailed state:  trans 37.816 15.162 124.178 quatxyzw 0.027404 0.166853 0.924478 0.341687 center 0.154 0.111 -0.146 ntor 7 28.8117 -33.0803 -177.0798 -166.9185 139.3305 -179.6942 -13.2556
State:	 37.816  15.162 124.178   0.029  0.178  0.984 140.041     28.81  -33.08 -177.08 -166.92  139.33 -179.69  -13.26

DOCKED: MODEL       31
DOCKED: USER    Run = 31
DOCKED: USER    DPF = ligand_dock.biased.dpf
DOCKED: USER  
DOCKED: USER    Estimated Free Energy of Binding    =  -11.22 kcal/mol  [=(1)+(2)+(3)-(4)]
DOCKED: USER    Estimated Inhibition Constant, Ki   =    5.97 nM (nanomolar)  [Temperature = 298.15 K]
DOCKED: USER    
DOCKED: USER    (1) Final Intermolecular Energy     =  -13.31 kcal/mol
DOCKED: USER        vdW + Hbond + desolv Energy     =  -13.31 kcal/mol
DOCKED: USER        Electrostatic Energy            =   +0.00 kcal/mol
DOCKED: USER    (2) Final Total Internal Energy     =   -1.05 kcal/mol
DOCKED: USER    (3) Torsional Free Energy           =   +2.09 kcal/mol
DOCKED: USER    (4) Unbound System's Energy  [=(2)] =   -1.05 kcal/mol
DOCKED: USER    
DOCKED: USER    
DOCKED: USER    NEWDPF move ligand.dum.pdbqt
DOCKED: USER    NEWDPF about 0.154000 0.111000 -0.146000
DOCKED: USER    NEWDPF tran0 37.815658 15.161779 124.178263
DOCKED: USER    NEWDPF quaternion0 0.027404 0.166853 0.924478 0.341687
DOCKED: USER    NEWDPF axisangle0 0.029159 0.177539 0.983682 140.040621
DOCKED: USER    NEWDPF quat0 0.029159 0.177539 0.983682 140.040621
DOCKED: USER    NEWDPF dihe0 28.81 -33.08 -177.08 -166.92 139.33 -179.69 -13.26 
DOCKED: USER  keepresnum = 1 
DOCKED: USER  
DOCKED: REMARK  Name = 
DOCKED: REMARK  7 active torsions:
DOCKED: REMARK  status: ('A' for Active; 'I' for Inactive)
DOCKED: REMARK    1  A    between atoms: C_2  and  C_5
DOCKED: REMARK    2  A    between atoms: N_3  and  O_4
DOCKED: REMARK    3  A    between atoms: C_5  and  C_6
DOCKED: REMARK    4  A    between atoms: C_6  and  C_7
DOCKED: REMARK    5  A    between atoms: C_7  and  C_8
DOCKED: REMARK    6  A    between atoms: C_8  and  C_9
DOCKED: REMARK    7  A    between atoms: C_9  and  N_10
DOCKED: REMARK                            x       y       z     vdW  Elec       q    Type
DOCKED: REMARK                         _______ _______ _______ _____ _____    ______ ____
DOCKED: USER                              x       y       z     vdW  Elec       q    Type
DOCKED: USER                           _______ _______ _______ _____ _____    ______ ____
DOCKED: ROOT
DOCKED: ATOM      1  N   UNL     1      37.898  15.678 122.774 -0.30 -0.00    +0.000 N 
DOCKED: ATOM      2  C   UNL     1      39.166  15.147 122.343 -0.39 -0.00    +0.000 C 
DOCKED: ATOM      3  C   UNL     1      40.423  15.845 122.697 -0.34 -0.00    +0.000 A 
DOCKED: ATOM      4  C   UNL     1      41.666  15.321 122.302 -0.45 -0.00    +0.000 A 
DOCKED: ATOM      5  C   UNL     1      42.852  15.977 122.638 -0.38 -0.00    +0.000 A 
DOCKED: ATOM      6  C   UNL     1      42.816  17.163 123.370 -0.27 -0.00    +0.000 A 
DOCKED: ATOM      7  C   UNL     1      41.589  17.706 123.775 -0.30 -0.00    +0.000 A 
DOCKED: ATOM      8  C   UNL     1      41.554  18.899 124.510 -0.16 -0.00    +0.000 A 
DOCKED: ATOM      9  C   UNL     1      40.333  19.441 124.910 -0.15 -0.00    +0.000 A 
DOCKED: ATOM     10  C   UNL     1      39.137  18.800 124.585 -0.16 -0.00    +0.000 A 
DOCKED: ATOM     11  C   UNL     1      39.145  17.602 123.848 -0.21 -0.00    +0.000 A 
DOCKED: ATOM     12  C   UNL     1      40.378  17.047 123.438 -0.25 -0.00    +0.000 A 
DOCKED: ATOM     13  O   UNL     1      39.207  14.086 121.661 -0.77 -0.00    +0.000 OA
DOCKED: ATOM     14  C   UNL     1      37.876  16.922 123.504 -0.26 -0.00    +0.000 C 
DOCKED: ATOM     15  O   UNL     1      36.777  17.435 123.850 -0.26 -0.00    +0.000 OA
DOCKED: ATOM     16  CM  UNL     1      39.114  16.355 123.092 +0.00 -0.00    +0.000 AC
DOCKED: ATOM     17  CM  UNL     1      41.621  16.510 123.037 +0.00 -0.00    +0.000 AC
DOCKED: ATOM     18  CM  UNL     1      40.356  18.250 124.178 +0.00 -0.00    +0.000 AC
DOCKED: ENDROOT
DOCKED: BRANCH   1  16
DOCKED: ATOM     19  C   UNL     1      36.655  14.938 122.501 -0.37 -0.00    +0.000 C 
DOCKED: BRANCH  16  17
DOCKED: ATOM     20  C   UNL     1      36.645  13.570 123.205 -0.57 -0.00    +0.000 C 
DOCKED: BRANCH  17  18
DOCKED: ATOM     21  C   UNL     1      36.622  12.366 122.244 -0.57 -0.00    +0.000 C 
DOCKED: BRANCH  18  19
DOCKED: ATOM     22  C   UNL     1      35.947  11.100 122.812 -0.69 -0.00    +0.000 C 
DOCKED: BRANCH  19  20
DOCKED: ATOM     23  C   UNL     1      36.925  10.029 123.322 -0.47 -0.00    +0.000 C 
DOCKED: BRANCH  20  22
DOCKED: ATOM     24  O   UNL     1      36.816   8.835 121.255 -2.58 -0.00    +0.000 OA
DOCKED: ATOM     25  C   UNL     1      36.849   8.767 122.513 -0.72 -0.00    +0.000 C 
DOCKED: ATOM     26  N   UNL     1      36.782   7.494 123.160 -0.76 -0.00    +0.000 N 
DOCKED: ATOM     27  H   UNL     1      36.800   7.444 124.142 -0.40 -0.00    +0.000 HD
DOCKED: BRANCH  23  25
DOCKED: ATOM     28  O   UNL     1      36.691   6.355 122.432 -1.13 -0.00    +0.000 OA
DOCKED: ATOM     29  H   UNL     1      37.123   6.485 121.572 -0.42 -0.00    +0.000 HD
DOCKED: ENDBRANCH  23  25
DOCKED: ENDBRANCH  20  22
DOCKED: ENDBRANCH  19  20
DOCKED: ENDBRANCH  18  19
DOCKED: ENDBRANCH  17  18
DOCKED: ENDBRANCH  16  17
DOCKED: ENDBRANCH   1  16
DOCKED: TORSDOF 7DOCKED: TER
DOCKED: ENDMDL
________________________________________________________________________________


	BEGINNING GENETIC ALGORITHM DOCKING 32 of 100
Run: 32 Seed: 1719237735 1312714510 [ Run 32 of 100 GA/GALS ]
Beginning LAMARCKIAN GENETIC ALGORITHM (LGA), with a maximum of 2500000 energy evaluations.

Final-Value: -14.115


	FINAL GENETIC ALGORITHM DOCKED STATE
	_______________________________________________


Detailed state:  trans 36.373 14.036 121.695 quatxyzw -0.468056 0.645144 -0.362558 0.482975 center 0.154 0.111 -0.146 ntor 7 7.1624 -25.8535 116.9532 -37.1839 59.3173 -110.3495 53.6836
State:	 36.373  14.036 121.695  -0.535  0.737 -0.414 122.240      7.16  -25.85  116.95  -37.18   59.32 -110.35   53.68

DOCKED: MODEL       32
DOCKED: USER    Run = 32
DOCKED: USER    DPF = ligand_dock.biased.dpf
DOCKED: USER  
DOCKED: USER    Estimated Free Energy of Binding    =  -10.37 kcal/mol  [=(1)+(2)+(3)-(4)]
DOCKED: USER    Estimated Inhibition Constant, Ki   =   24.85 nM (nanomolar)  [Temperature = 298.15 K]
DOCKED: USER    
DOCKED: USER    (1) Final Intermolecular Energy     =  -12.46 kcal/mol
DOCKED: USER        vdW + Hbond + desolv Energy     =  -12.46 kcal/mol
DOCKED: USER        Electrostatic Energy            =   +0.00 kcal/mol
DOCKED: USER    (2) Final Total Internal Energy     =   -1.65 kcal/mol
DOCKED: USER    (3) Torsional Free Energy           =   +2.09 kcal/mol
DOCKED: USER    (4) Unbound System's Energy  [=(2)] =   -1.65 kcal/mol
DOCKED: USER    
DOCKED: USER    
DOCKED: USER    NEWDPF move ligand.dum.pdbqt
DOCKED: USER    NEWDPF about 0.154000 0.111000 -0.146000
DOCKED: USER    NEWDPF tran0 36.373394 14.035643 121.694788
DOCKED: USER    NEWDPF quaternion0 -0.468056 0.645144 -0.362558 0.482975
DOCKED: USER    NEWDPF axisangle0 -0.534534 0.736773 -0.414052 122.240203
DOCKED: USER    NEWDPF quat0 -0.534534 0.736773 -0.414052 122.240203
DOCKED: USER    NEWDPF dihe0 7.16 -25.85 116.95 -37.18 59.32 -110.35 53.68 
DOCKED: USER  keepresnum = 1 
DOCKED: USER  
DOCKED: REMARK  Name = 
DOCKED: REMARK  7 active torsions:
DOCKED: REMARK  status: ('A' for Active; 'I' for Inactive)
DOCKED: REMARK    1  A    between atoms: C_2  and  C_5
DOCKED: REMARK    2  A    between atoms: N_3  and  O_4
DOCKED: REMARK    3  A    between atoms: C_5  and  C_6
DOCKED: REMARK    4  A    between atoms: C_6  and  C_7
DOCKED: REMARK    5  A    between atoms: C_7  and  C_8
DOCKED: REMARK    6  A    between atoms: C_8  and  C_9
DOCKED: REMARK    7  A    between atoms: C_9  and  N_10
DOCKED: REMARK                            x       y       z     vdW  Elec       q    Type
DOCKED: REMARK                         _______ _______ _______ _____ _____    ______ ____
DOCKED: USER                              x       y       z     vdW  Elec       q    Type
DOCKED: USER                           _______ _______ _______ _____ _____    ______ ____
DOCKED: ROOT
DOCKED: ATOM      1  N   UNL     1      37.449  15.043 121.427 -0.26 -0.00    +0.000 N 
DOCKED: ATOM      2  C   UNL     1      36.688  16.150 120.906 -0.20 -0.00    +0.000 C 
DOCKED: ATOM      3  C   UNL     1      36.286  16.168 119.481 -0.13 -0.00    +0.000 A 
DOCKED: ATOM      4  C   UNL     1      35.522  17.232 118.969 -0.13 -0.00    +0.000 A 
DOCKED: ATOM      5  C   UNL     1      35.139  17.249 117.626 -0.12 -0.00    +0.000 A 
DOCKED: ATOM      6  C   UNL     1      35.513  16.209 116.775 -0.13 -0.00    +0.000 A 
DOCKED: ATOM      7  C   UNL     1      36.275  15.138 117.262 -0.22 -0.00    +0.000 A 
DOCKED: ATOM      8  C   UNL     1      36.651  14.093 116.406 -0.31 -0.00    +0.000 A 
DOCKED: ATOM      9  C   UNL     1      37.412  13.030 116.890 -0.30 -0.00    +0.000 A 
DOCKED: ATOM     10  C   UNL     1      37.804  12.994 118.228 -0.17 -0.00    +0.000 A 
DOCKED: ATOM     11  C   UNL     1      37.439  14.030 119.107 -0.33 -0.00    +0.000 A 
DOCKED: ATOM     12  C   UNL     1      36.669  15.112 118.625 -0.22 -0.00    +0.000 A 
DOCKED: ATOM     13  O   UNL     1      36.365  17.107 121.663 -0.22 -0.00    +0.000 OA
DOCKED: ATOM     14  C   UNL     1      37.854  13.991 120.528 -0.38 -0.00    +0.000 C 
DOCKED: ATOM     15  O   UNL     1      38.564  13.036 120.947 -0.49 -0.00    +0.000 OA
DOCKED: ATOM     16  CM  UNL     1      37.075  15.081 120.050 +0.00 -0.00    +0.000 AC
DOCKED: ATOM     17  CM  UNL     1      35.900  16.184 118.123 +0.00 -0.00    +0.000 AC
DOCKED: ATOM     18  CM  UNL     1      37.042  14.066 117.753 +0.00 -0.00    +0.000 AC
DOCKED: ENDROOT
DOCKED: BRANCH   1  16
DOCKED: ATOM     19  C   UNL     1      37.772  14.979 122.862 -0.41 -0.00    +0.000 C 
DOCKED: BRANCH  16  17
DOCKED: ATOM     20  C   UNL     1      37.403  13.613 123.464 -0.50 -0.00    +0.000 C 
DOCKED: BRANCH  17  18
DOCKED: ATOM     21  C   UNL     1      36.000  13.109 123.073 -0.52 -0.00    +0.000 C 
DOCKED: BRANCH  18  19
DOCKED: ATOM     22  C   UNL     1      35.965  11.677 122.501 -0.59 -0.00    +0.000 C 
DOCKED: BRANCH  19  20
DOCKED: ATOM     23  C   UNL     1      37.078  10.754 123.021 -0.60 -0.00    +0.000 C 
DOCKED: BRANCH  20  22
DOCKED: ATOM     24  O   UNL     1      36.892   9.217 121.201 -2.69 -0.00    +0.000 OA
DOCKED: ATOM     25  C   UNL     1      36.975   9.369 122.449 -0.65 -0.00    +0.000 C 
DOCKED: ATOM     26  N   UNL     1      36.936   8.229 123.311 -0.72 -0.00    +0.000 N 
DOCKED: ATOM     27  H   UNL     1      36.992   8.352 124.286 -0.42 -0.00    +0.000 HD
DOCKED: BRANCH  23  25
DOCKED: ATOM     28  O   UNL     1      36.820   6.982 122.797 -1.64 -0.00    +0.000 OA
DOCKED: ATOM     29  H   UNL     1      36.890   7.022 121.830 -0.11 -0.00    +0.000 HD
DOCKED: ENDBRANCH  23  25
DOCKED: ENDBRANCH  20  22
DOCKED: ENDBRANCH  19  20
DOCKED: ENDBRANCH  18  19
DOCKED: ENDBRANCH  17  18
DOCKED: ENDBRANCH  16  17
DOCKED: ENDBRANCH   1  16
DOCKED: TORSDOF 7DOCKED: TER
DOCKED: ENDMDL
________________________________________________________________________________


	BEGINNING GENETIC ALGORITHM DOCKING 33 of 100
Run: 33 Seed: 563404814 628312847 [ Run 33 of 100 GA/GALS ]
Beginning LAMARCKIAN GENETIC ALGORITHM (LGA), with a maximum of 2500000 energy evaluations.

Final-Value: -14.955


	FINAL GENETIC ALGORITHM DOCKED STATE
	_______________________________________________


Detailed state:  trans 36.337 15.697 125.063 quatxyzw 0.007580 -0.012545 0.522124 0.852743 center 0.154 0.111 -0.146 ntor 7 2.4168 -136.6322 -176.2122 180.0000 -10.7315 99.3516 -28.8891
State:	 36.337  15.697 125.063   0.015 -0.024  1.000 62.977      2.42 -136.63 -176.21  180.00  -10.73   99.35  -28.89

DOCKED: MODEL       33
DOCKED: USER    Run = 33
DOCKED: USER    DPF = ligand_dock.biased.dpf
DOCKED: USER  
DOCKED: USER    Estimated Free Energy of Binding    =  -11.76 kcal/mol  [=(1)+(2)+(3)-(4)]
DOCKED: USER    Estimated Inhibition Constant, Ki   =    2.38 nM (nanomolar)  [Temperature = 298.15 K]
DOCKED: USER    
DOCKED: USER    (1) Final Intermolecular Energy     =  -13.85 kcal/mol
DOCKED: USER        vdW + Hbond + desolv Energy     =  -13.85 kcal/mol
DOCKED: USER        Electrostatic Energy            =   +0.00 kcal/mol
DOCKED: USER    (2) Final Total Internal Energy     =   -1.10 kcal/mol
DOCKED: USER    (3) Torsional Free Energy           =   +2.09 kcal/mol
DOCKED: USER    (4) Unbound System's Energy  [=(2)] =   -1.10 kcal/mol
DOCKED: USER    
DOCKED: USER    
DOCKED: USER    NEWDPF move ligand.dum.pdbqt
DOCKED: USER    NEWDPF about 0.154000 0.111000 -0.146000
DOCKED: USER    NEWDPF tran0 36.337472 15.696795 125.062834
DOCKED: USER    NEWDPF quaternion0 0.007580 -0.012545 0.522124 0.852743
DOCKED: USER    NEWDPF axisangle0 0.014512 -0.024017 0.999606 62.977347
DOCKED: USER    NEWDPF quat0 0.014512 -0.024017 0.999606 62.977347
DOCKED: USER    NEWDPF dihe0 2.42 -136.63 -176.21 180.00 -10.73 99.35 -28.89 
DOCKED: USER  keepresnum = 1 
DOCKED: USER  
DOCKED: REMARK  Name = 
DOCKED: REMARK  7 active torsions:
DOCKED: REMARK  status: ('A' for Active; 'I' for Inactive)
DOCKED: REMARK    1  A    between atoms: C_2  and  C_5
DOCKED: REMARK    2  A    between atoms: N_3  and  O_4
DOCKED: REMARK    3  A    between atoms: C_5  and  C_6
DOCKED: REMARK    4  A    between atoms: C_6  and  C_7
DOCKED: REMARK    5  A    between atoms: C_7  and  C_8
DOCKED: REMARK    6  A    between atoms: C_8  and  C_9
DOCKED: REMARK    7  A    between atoms: C_9  and  N_10
DOCKED: REMARK                            x       y       z     vdW  Elec       q    Type
DOCKED: REMARK                         _______ _______ _______ _____ _____    ______ ____
DOCKED: USER                              x       y       z     vdW  Elec       q    Type
DOCKED: USER                           _______ _______ _______ _____ _____    ______ ____
DOCKED: ROOT
DOCKED: ATOM      1  N   UNL     1      35.382  15.918 123.930 -0.44 -0.00    +0.000 N 
DOCKED: ATOM      2  C   UNL     1      35.988  17.035 123.252 -0.32 -0.00    +0.000 C 
DOCKED: ATOM      3  C   UNL     1      35.761  18.413 123.742 -0.23 -0.00    +0.000 A 
DOCKED: ATOM      4  C   UNL     1      36.368  19.508 123.101 -0.16 -0.00    +0.000 A 
DOCKED: ATOM      5  C   UNL     1      36.157  20.808 123.563 -0.13 -0.00    +0.000 A 
DOCKED: ATOM      6  C   UNL     1      35.338  21.037 124.669 -0.09 -0.00    +0.000 A 
DOCKED: ATOM      7  C   UNL     1      34.721  19.962 125.324 -0.16 -0.00    +0.000 A 
DOCKED: ATOM      8  C   UNL     1      33.896  20.192 126.435 -0.17 -0.00    +0.000 A 
DOCKED: ATOM      9  C   UNL     1      33.281  19.124 127.085 -0.21 -0.00    +0.000 A 
DOCKED: ATOM     10  C   UNL     1      33.479  17.817 126.638 -0.31 -0.00    +0.000 A 
DOCKED: ATOM     11  C   UNL     1      34.301  17.560 125.526 -0.36 -0.00    +0.000 A 
DOCKED: ATOM     12  C   UNL     1      34.929  18.637 124.862 -0.26 -0.00    +0.000 A 
DOCKED: ATOM     13  O   UNL     1      36.713  16.839 122.237 -0.22 -0.00    +0.000 OA
DOCKED: ATOM     14  C   UNL     1      34.513  16.173 125.052 -0.49 -0.00    +0.000 C 
DOCKED: ATOM     15  O   UNL     1      33.929  15.217 125.634 -0.58 -0.00    +0.000 OA
DOCKED: ATOM     16  CM  UNL     1      35.152  17.252 124.382 -0.28 -0.00    +0.000 AC
DOCKED: ATOM     17  CM  UNL     1      35.546  19.727 124.210 -0.02 -0.00    +0.000 AC
DOCKED: ATOM     18  CM  UNL     1      34.101  18.882 125.978 -0.07 -0.00    +0.000 AC
DOCKED: ENDROOT
DOCKED: BRANCH   1  16
DOCKED: ATOM     19  C   UNL     1      35.679  14.541 123.500 -0.52 -0.00    +0.000 C 
DOCKED: BRANCH  16  17
DOCKED: ATOM     20  C   UNL     1      37.189  14.324 123.304 -0.48 -0.00    +0.000 C 
DOCKED: BRANCH  17  18
DOCKED: ATOM     21  C   UNL     1      37.614  12.844 123.258 -0.51 -0.00    +0.000 C 
DOCKED: BRANCH  18  19
DOCKED: ATOM     22  C   UNL     1      36.935  12.011 122.151 -0.59 -0.00    +0.000 C 
DOCKED: BRANCH  19  20
DOCKED: ATOM     23  C   UNL     1      35.991  10.913 122.665 -0.68 -0.00    +0.000 C 
DOCKED: BRANCH  20  22
DOCKED: ATOM     24  O   UNL     1      36.696   9.216 121.136 -2.62 -0.00    +0.000 OA
DOCKED: ATOM     25  C   UNL     1      36.498   9.537 122.338 -0.71 -0.00    +0.000 C 
DOCKED: ATOM     26  N   UNL     1      36.723   8.582 123.378 -0.65 -0.00    +0.000 N 
DOCKED: ATOM     27  H   UNL     1      36.560   8.833 124.315 -0.37 -0.00    +0.000 HD
DOCKED: BRANCH  23  25
DOCKED: ATOM     28  O   UNL     1      37.159   7.334 123.083 -2.10 -0.00    +0.000 OA
DOCKED: ATOM     29  H   UNL     1      37.306   7.260 122.127 -0.13 -0.00    +0.000 HD
DOCKED: ENDBRANCH  23  25
DOCKED: ENDBRANCH  20  22
DOCKED: ENDBRANCH  19  20
DOCKED: ENDBRANCH  18  19
DOCKED: ENDBRANCH  17  18
DOCKED: ENDBRANCH  16  17
DOCKED: ENDBRANCH   1  16
DOCKED: TORSDOF 7DOCKED: TER
DOCKED: ENDMDL
________________________________________________________________________________


	BEGINNING GENETIC ALGORITHM DOCKING 34 of 100
Run: 34 Seed: 463162138 862588833 [ Run 34 of 100 GA/GALS ]
Beginning LAMARCKIAN GENETIC ALGORITHM (LGA), with a maximum of 2500000 energy evaluations.

Final-Value: -14.680


	FINAL GENETIC ALGORITHM DOCKED STATE
	_______________________________________________


Detailed state:  trans 35.041 17.317 123.089 quatxyzw 0.621661 -0.591489 -0.340728 0.384164 center 0.154 0.111 -0.146 ntor 7 44.2627 82.3886 141.7906 179.3495 80.1072 61.5194 -131.4166
State:	 35.041  17.317 123.089   0.673 -0.641 -0.369 134.816     44.26   82.39  141.79  179.35   80.11   61.52 -131.42

DOCKED: MODEL       34
DOCKED: USER    Run = 34
DOCKED: USER    DPF = ligand_dock.biased.dpf
DOCKED: USER  
DOCKED: USER    Estimated Free Energy of Binding    =  -11.77 kcal/mol  [=(1)+(2)+(3)-(4)]
DOCKED: USER    Estimated Inhibition Constant, Ki   =    2.35 nM (nanomolar)  [Temperature = 298.15 K]
DOCKED: USER    
DOCKED: USER    (1) Final Intermolecular Energy     =  -13.86 kcal/mol
DOCKED: USER        vdW + Hbond + desolv Energy     =  -13.86 kcal/mol
DOCKED: USER        Electrostatic Energy            =   +0.00 kcal/mol
DOCKED: USER    (2) Final Total Internal Energy     =   -0.82 kcal/mol
DOCKED: USER    (3) Torsional Free Energy           =   +2.09 kcal/mol
DOCKED: USER    (4) Unbound System's Energy  [=(2)] =   -0.82 kcal/mol
DOCKED: USER    
DOCKED: USER    
DOCKED: USER    NEWDPF move ligand.dum.pdbqt
DOCKED: USER    NEWDPF about 0.154000 0.111000 -0.146000
DOCKED: USER    NEWDPF tran0 35.040607 17.316681 123.089064
DOCKED: USER    NEWDPF quaternion0 0.621661 -0.591489 -0.340728 0.384164
DOCKED: USER    NEWDPF axisangle0 0.673330 -0.640649 -0.369047 134.816254
DOCKED: USER    NEWDPF quat0 0.673330 -0.640649 -0.369047 134.816254
DOCKED: USER    NEWDPF dihe0 44.26 82.39 141.79 179.35 80.11 61.52 -131.42 
DOCKED: USER  keepresnum = 1 
DOCKED: USER  
DOCKED: REMARK  Name = 
DOCKED: REMARK  7 active torsions:
DOCKED: REMARK  status: ('A' for Active; 'I' for Inactive)
DOCKED: REMARK    1  A    between atoms: C_2  and  C_5
DOCKED: REMARK    2  A    between atoms: N_3  and  O_4
DOCKED: REMARK    3  A    between atoms: C_5  and  C_6
DOCKED: REMARK    4  A    between atoms: C_6  and  C_7
DOCKED: REMARK    5  A    between atoms: C_7  and  C_8
DOCKED: REMARK    6  A    between atoms: C_8  and  C_9
DOCKED: REMARK    7  A    between atoms: C_9  and  N_10
DOCKED: REMARK                            x       y       z     vdW  Elec       q    Type
DOCKED: REMARK                         _______ _______ _______ _____ _____    ______ ____
DOCKED: USER                              x       y       z     vdW  Elec       q    Type
DOCKED: USER                           _______ _______ _______ _____ _____    ______ ____
DOCKED: ROOT
DOCKED: ATOM      1  N   UNL     1      35.682  16.590 124.232 -0.35 -0.00    +0.000 N 
DOCKED: ATOM      2  C   UNL     1      34.551  16.339 125.088 -0.47 -0.00    +0.000 C 
DOCKED: ATOM      3  C   UNL     1      34.064  17.396 126.004 -0.36 -0.00    +0.000 A 
DOCKED: ATOM      4  C   UNL     1      32.946  17.169 126.826 -0.21 -0.00    +0.000 A 
DOCKED: ATOM      5  C   UNL     1      32.484  18.165 127.688 -0.24 -0.00    +0.000 A 
DOCKED: ATOM      6  C   UNL     1      33.129  19.401 127.745 -0.15 -0.00    +0.000 A 
DOCKED: ATOM      7  C   UNL     1      34.247  19.651 126.936 -0.15 -0.00    +0.000 A 
DOCKED: ATOM      8  C   UNL     1      34.896  20.892 126.994 -0.09 -0.00    +0.000 A 
DOCKED: ATOM      9  C   UNL     1      36.008  21.140 126.191 -0.08 -0.00    +0.000 A 
DOCKED: ATOM     10  C   UNL     1      36.485  20.157 125.324 -0.12 -0.00    +0.000 A 
DOCKED: ATOM     11  C   UNL     1      35.852  18.904 125.247 -0.19 -0.00    +0.000 A 
DOCKED: ATOM     12  C   UNL     1      34.724  18.644 126.056 -0.24 -0.00    +0.000 A 
DOCKED: ATOM     13  O   UNL     1      33.974  15.217 125.060 -0.65 -0.00    +0.000 OA
DOCKED: ATOM     14  C   UNL     1      36.357  17.861 124.325 -0.25 -0.00    +0.000 C 
DOCKED: ATOM     15  O   UNL     1      37.380  18.089 123.623 -0.19 -0.00    +0.000 OA
DOCKED: ATOM     16  CM  UNL     1      35.218  17.595 125.134 -0.43 -0.00    +0.000 AC
DOCKED: ATOM     17  CM  UNL     1      33.599  18.404 126.875 -0.01 -0.00    +0.000 AC
DOCKED: ATOM     18  CM  UNL     1      35.369  19.898 126.125 -0.01 -0.00    +0.000 AC
DOCKED: ENDROOT
DOCKED: BRANCH   1  16
DOCKED: ATOM     19  C   UNL     1      36.111  15.574 123.257 -0.43 -0.00    +0.000 C 
DOCKED: BRANCH  16  17
DOCKED: ATOM     20  C   UNL     1      36.395  14.223 123.936 -0.44 -0.00    +0.000 C 
DOCKED: BRANCH  17  18
DOCKED: ATOM     21  C   UNL     1      35.613  13.038 123.336 -0.40 -0.00    +0.000 C 
DOCKED: BRANCH  18  19
DOCKED: ATOM     22  C   UNL     1      36.340  11.680 123.414 -0.71 -0.00    +0.000 C 
DOCKED: BRANCH  19  20
DOCKED: ATOM     23  C   UNL     1      36.727  11.083 122.051 -0.62 -0.00    +0.000 C 
DOCKED: BRANCH  20  22
DOCKED: ATOM     24  O   UNL     1      36.833   8.914 121.054 -2.65 -0.00    +0.000 OA
DOCKED: ATOM     25  C   UNL     1      36.888   9.591 122.115 -0.65 -0.00    +0.000 C 
DOCKED: ATOM     26  N   UNL     1      37.069   8.935 123.372 -0.61 -0.00    +0.000 N 
DOCKED: ATOM     27  H   UNL     1      37.104   9.467 124.200 -0.58 -0.00    +0.000 HD
DOCKED: BRANCH  23  25
DOCKED: ATOM     28  O   UNL     1      37.193   7.588 123.434 -2.19 -0.00    +0.000 OA
DOCKED: ATOM     29  H   UNL     1      37.795   7.285 122.735 -0.41 -0.00    +0.000 HD
DOCKED: ENDBRANCH  23  25
DOCKED: ENDBRANCH  20  22
DOCKED: ENDBRANCH  19  20
DOCKED: ENDBRANCH  18  19
DOCKED: ENDBRANCH  17  18
DOCKED: ENDBRANCH  16  17
DOCKED: ENDBRANCH   1  16
DOCKED: TORSDOF 7DOCKED: TER
DOCKED: ENDMDL
________________________________________________________________________________


	BEGINNING GENETIC ALGORITHM DOCKING 35 of 100
Run: 35 Seed: 2021699075 622533837 [ Run 35 of 100 GA/GALS ]
Beginning LAMARCKIAN GENETIC ALGORITHM (LGA), with a maximum of 2500000 energy evaluations.

Final-Value: -14.515


	FINAL GENETIC ALGORITHM DOCKED STATE
	_______________________________________________


Detailed state:  trans 36.742 15.418 119.577 quatxyzw -0.067805 -0.897140 0.048360 -0.433824 center 0.154 0.111 -0.146 ntor 7 -2.9420 156.2697 53.6165 -80.2402 77.2116 108.0730 157.5863
State:	 36.742  15.418 119.577  -0.075 -0.996  0.054 -128.579     -2.94  156.27   53.62  -80.24   77.21  108.07  157.59

DOCKED: MODEL       35
DOCKED: USER    Run = 35
DOCKED: USER    DPF = ligand_dock.biased.dpf
DOCKED: USER  
DOCKED: USER    Estimated Free Energy of Binding    =  -11.09 kcal/mol  [=(1)+(2)+(3)-(4)]
DOCKED: USER    Estimated Inhibition Constant, Ki   =    7.47 nM (nanomolar)  [Temperature = 298.15 K]
DOCKED: USER    
DOCKED: USER    (1) Final Intermolecular Energy     =  -13.18 kcal/mol
DOCKED: USER        vdW + Hbond + desolv Energy     =  -13.18 kcal/mol
DOCKED: USER        Electrostatic Energy            =   +0.00 kcal/mol
DOCKED: USER    (2) Final Total Internal Energy     =   -1.34 kcal/mol
DOCKED: USER    (3) Torsional Free Energy           =   +2.09 kcal/mol
DOCKED: USER    (4) Unbound System's Energy  [=(2)] =   -1.34 kcal/mol
DOCKED: USER    
DOCKED: USER    
DOCKED: USER    NEWDPF move ligand.dum.pdbqt
DOCKED: USER    NEWDPF about 0.154000 0.111000 -0.146000
DOCKED: USER    NEWDPF tran0 36.741586 15.418072 119.576758
DOCKED: USER    NEWDPF quaternion0 -0.067805 -0.897140 0.048360 -0.433824
DOCKED: USER    NEWDPF axisangle0 -0.075255 -0.995719 0.053673 -128.579028
DOCKED: USER    NEWDPF quat0 -0.075255 -0.995719 0.053673 -128.579028
DOCKED: USER    NEWDPF dihe0 -2.94 156.27 53.62 -80.24 77.21 108.07 157.59 
DOCKED: USER  keepresnum = 1 
DOCKED: USER  
DOCKED: REMARK  Name = 
DOCKED: REMARK  7 active torsions:
DOCKED: REMARK  status: ('A' for Active; 'I' for Inactive)
DOCKED: REMARK    1  A    between atoms: C_2  and  C_5
DOCKED: REMARK    2  A    between atoms: N_3  and  O_4
DOCKED: REMARK    3  A    between atoms: C_5  and  C_6
DOCKED: REMARK    4  A    between atoms: C_6  and  C_7
DOCKED: REMARK    5  A    between atoms: C_7  and  C_8
DOCKED: REMARK    6  A    between atoms: C_8  and  C_9
DOCKED: REMARK    7  A    between atoms: C_9  and  N_10
DOCKED: REMARK                            x       y       z     vdW  Elec       q    Type
DOCKED: REMARK                         _______ _______ _______ _____ _____    ______ ____
DOCKED: USER                              x       y       z     vdW  Elec       q    Type
DOCKED: USER                           _______ _______ _______ _____ _____    ______ ____
DOCKED: ROOT
DOCKED: ATOM      1  N   UNL     1      37.973  14.639 119.924 -0.26 -0.00    +0.000 N 
DOCKED: ATOM      2  C   UNL     1      39.013  15.591 119.630 -0.18 -0.00    +0.000 C 
DOCKED: ATOM      3  C   UNL     1      39.489  15.765 118.239 -0.12 -0.00    +0.000 A 
DOCKED: ATOM      4  C   UNL     1      40.486  16.710 117.938 -0.11 -0.00    +0.000 A 
DOCKED: ATOM      5  C   UNL     1      40.933  16.877 116.626 -0.12 -0.00    +0.000 A 
DOCKED: ATOM      6  C   UNL     1      40.396  16.105 115.596 -0.20 -0.00    +0.000 A 
DOCKED: ATOM      7  C   UNL     1      39.401  15.156 115.871 -0.26 -0.00    +0.000 A 
DOCKED: ATOM      8  C   UNL     1      38.862  14.379 114.836 -0.31 -0.00    +0.000 A 
DOCKED: ATOM      9  C   UNL     1      37.875  13.434 115.109 -0.41 -0.00    +0.000 A 
DOCKED: ATOM     10  C   UNL     1      37.414  13.252 116.414 -0.35 -0.00    +0.000 A 
DOCKED: ATOM     11  C   UNL     1      37.939  14.018 117.470 -0.26 -0.00    +0.000 A 
DOCKED: ATOM     12  C   UNL     1      38.940  14.979 117.201 -0.14 -0.00    +0.000 A 
DOCKED: ATOM     13  O   UNL     1      39.521  16.278 120.559 -0.16 -0.00    +0.000 OA
DOCKED: ATOM     14  C   UNL     1      37.449  13.826 118.854 -0.39 -0.00    +0.000 C 
DOCKED: ATOM     15  O   UNL     1      36.574  12.950 119.092 -0.47 -0.00    +0.000 OA
DOCKED: ATOM     16  CM  UNL     1      38.454  14.798 118.590 +0.00 -0.00    +0.000 AC
DOCKED: ATOM     17  CM  UNL     1      39.940  15.932 116.912 +0.00 -0.00    +0.000 AC
DOCKED: ATOM     18  CM  UNL     1      38.405  14.203 116.150 +0.00 -0.00    +0.000 AC
DOCKED: ENDROOT
DOCKED: BRANCH   1  16
DOCKED: ATOM     19  C   UNL     1      37.436  14.529 121.291 -0.35 -0.00    +0.000 C 
DOCKED: BRANCH  16  17
DOCKED: ATOM     20  C   UNL     1      37.495  13.081 121.807 -0.50 -0.00    +0.000 C 
DOCKED: BRANCH  17  18
DOCKED: ATOM     21  C   UNL     1      37.134  12.926 123.297 -0.61 -0.00    +0.000 C 
DOCKED: BRANCH  18  19
DOCKED: ATOM     22  C   UNL     1      36.406  11.614 123.652 -0.70 -0.00    +0.000 C 
DOCKED: BRANCH  19  20
DOCKED: ATOM     23  C   UNL     1      35.860  10.839 122.442 -0.66 -0.00    +0.000 C 
DOCKED: BRANCH  20  22
DOCKED: ATOM     24  O   UNL     1      37.064   9.209 121.176 -2.74 -0.00    +0.000 OA
DOCKED: ATOM     25  C   UNL     1      36.530   9.505 122.278 -0.71 -0.00    +0.000 C 
DOCKED: ATOM     26  N   UNL     1      36.535   8.560 123.351 -0.64 -0.00    +0.000 N 
DOCKED: ATOM     27  H   UNL     1      36.110   8.791 124.207 -0.25 -0.00    +0.000 HD
DOCKED: BRANCH  23  25
DOCKED: ATOM     28  O   UNL     1      37.119   7.348 123.197 -2.12 -0.00    +0.000 OA
DOCKED: ATOM     29  H   UNL     1      37.448   7.259 122.288 -0.17 -0.00    +0.000 HD
DOCKED: ENDBRANCH  23  25
DOCKED: ENDBRANCH  20  22
DOCKED: ENDBRANCH  19  20
DOCKED: ENDBRANCH  18  19
DOCKED: ENDBRANCH  17  18
DOCKED: ENDBRANCH  16  17
DOCKED: ENDBRANCH   1  16
DOCKED: TORSDOF 7DOCKED: TER
DOCKED: ENDMDL
________________________________________________________________________________


	BEGINNING GENETIC ALGORITHM DOCKING 36 of 100
Run: 36 Seed: 244400909 752766296 [ Run 36 of 100 GA/GALS ]
Beginning LAMARCKIAN GENETIC ALGORITHM (LGA), with a maximum of 2500000 energy evaluations.

Final-Value: -13.618


	FINAL GENETIC ALGORITHM DOCKED STATE
	_______________________________________________


Detailed state:  trans 38.256 16.581 120.435 quatxyzw 0.142149 -0.900275 -0.217860 0.349048 center 0.154 0.111 -0.146 ntor 7 -7.5687 -121.2823 14.1382 118.5229 -138.0259 58.3289 151.1814
State:	 38.256  16.581 120.435   0.152 -0.961 -0.232 139.142     -7.57 -121.28   14.14  118.52 -138.03   58.33  151.18

DOCKED: MODEL       36
DOCKED: USER    Run = 36
DOCKED: USER    DPF = ligand_dock.biased.dpf
DOCKED: USER  
DOCKED: USER    Estimated Free Energy of Binding    =  -10.30 kcal/mol  [=(1)+(2)+(3)-(4)]
DOCKED: USER    Estimated Inhibition Constant, Ki   =   28.25 nM (nanomolar)  [Temperature = 298.15 K]
DOCKED: USER    
DOCKED: USER    (1) Final Intermolecular Energy     =  -12.39 kcal/mol
DOCKED: USER        vdW + Hbond + desolv Energy     =  -12.39 kcal/mol
DOCKED: USER        Electrostatic Energy            =   +0.00 kcal/mol
DOCKED: USER    (2) Final Total Internal Energy     =   -1.23 kcal/mol
DOCKED: USER    (3) Torsional Free Energy           =   +2.09 kcal/mol
DOCKED: USER    (4) Unbound System's Energy  [=(2)] =   -1.23 kcal/mol
DOCKED: USER    
DOCKED: USER    
DOCKED: USER    NEWDPF move ligand.dum.pdbqt
DOCKED: USER    NEWDPF about 0.154000 0.111000 -0.146000
DOCKED: USER    NEWDPF tran0 38.256430 16.581425 120.434889
DOCKED: USER    NEWDPF quaternion0 0.142149 -0.900275 -0.217860 0.349048
DOCKED: USER    NEWDPF axisangle0 0.151690 -0.960699 -0.232482 139.141796
DOCKED: USER    NEWDPF quat0 0.151690 -0.960699 -0.232482 139.141796
DOCKED: USER    NEWDPF dihe0 -7.57 -121.28 14.14 118.52 -138.03 58.33 151.18 
DOCKED: USER  keepresnum = 1 
DOCKED: USER  
DOCKED: REMARK  Name = 
DOCKED: REMARK  7 active torsions:
DOCKED: REMARK  status: ('A' for Active; 'I' for Inactive)
DOCKED: REMARK    1  A    between atoms: C_2  and  C_5
DOCKED: REMARK    2  A    between atoms: N_3  and  O_4
DOCKED: REMARK    3  A    between atoms: C_5  and  C_6
DOCKED: REMARK    4  A    between atoms: C_6  and  C_7
DOCKED: REMARK    5  A    between atoms: C_7  and  C_8
DOCKED: REMARK    6  A    between atoms: C_8  and  C_9
DOCKED: REMARK    7  A    between atoms: C_9  and  N_10
DOCKED: REMARK                            x       y       z     vdW  Elec       q    Type
DOCKED: REMARK                         _______ _______ _______ _____ _____    ______ ____
DOCKED: USER                              x       y       z     vdW  Elec       q    Type
DOCKED: USER                           _______ _______ _______ _____ _____    ______ ____
DOCKED: ROOT
DOCKED: ATOM      1  N   UNL     1      38.334  15.452 121.416 -0.23 -0.00    +0.000 N 
DOCKED: ATOM      2  C   UNL     1      38.034  16.122 122.656 -0.28 -0.00    +0.000 C 
DOCKED: ATOM      3  C   UNL     1      39.097  16.854 123.381 -0.21 -0.00    +0.000 A 
DOCKED: ATOM      4  C   UNL     1      38.808  17.532 124.578 -0.09 -0.00    +0.000 A 
DOCKED: ATOM      5  C   UNL     1      39.809  18.225 125.261 -0.25 -0.00    +0.000 A 
DOCKED: ATOM      6  C   UNL     1      41.111  18.252 124.763 -0.28 -0.00    +0.000 A 
DOCKED: ATOM      7  C   UNL     1      41.424  17.584 123.571 -0.29 -0.00    +0.000 A 
DOCKED: ATOM      8  C   UNL     1      42.734  17.610 123.071 -0.28 -0.00    +0.000 A 
DOCKED: ATOM      9  C   UNL     1      43.046  16.943 121.887 -0.27 -0.00    +0.000 A 
DOCKED: ATOM     10  C   UNL     1      42.060  16.245 121.190 -0.24 -0.00    +0.000 A 
DOCKED: ATOM     11  C   UNL     1      40.739  16.203 121.671 -0.24 -0.00    +0.000 A 
DOCKED: ATOM     12  C   UNL     1      40.414  16.876 122.869 -0.25 -0.00    +0.000 A 
DOCKED: ATOM     13  O   UNL     1      36.863  16.084 123.126 -0.33 -0.00    +0.000 OA
DOCKED: ATOM     14  C   UNL     1      39.692  15.463 120.930 -0.26 -0.00    +0.000 C 
DOCKED: ATOM     15  O   UNL     1      39.993  14.842 119.874 -0.05 -0.00    +0.000 OA
DOCKED: ATOM     16  CM  UNL     1      39.357  16.142 122.134 +0.00 -0.00    +0.000 AC
DOCKED: ATOM     17  CM  UNL     1      40.110  17.554 124.070 +0.00 -0.00    +0.000 AC
DOCKED: ATOM     18  CM  UNL     1      41.737  16.910 122.376 +0.00 -0.00    +0.000 AC
DOCKED: ENDROOT
DOCKED: BRANCH   1  16
DOCKED: ATOM     19  C   UNL     1      37.260  14.800 120.648 -0.28 -0.00    +0.000 C 
DOCKED: BRANCH  16  17
DOCKED: ATOM     20  C   UNL     1      37.663  13.384 120.202 -0.44 -0.00    +0.000 C 
DOCKED: BRANCH  17  18
DOCKED: ATOM     21  C   UNL     1      36.714  12.274 120.693 -0.43 -0.00    +0.000 C 
DOCKED: BRANCH  18  19
DOCKED: ATOM     22  C   UNL     1      36.755  12.016 122.214 -0.60 -0.00    +0.000 C 
DOCKED: BRANCH  19  20
DOCKED: ATOM     23  C   UNL     1      35.893  10.834 122.684 -0.68 -0.00    +0.000 C 
DOCKED: BRANCH  20  22
DOCKED: ATOM     24  O   UNL     1      37.068   9.329 121.247 -2.60 -0.00    +0.000 OA
DOCKED: ATOM     25  C   UNL     1      36.532   9.511 122.373 -0.71 -0.00    +0.000 C 
DOCKED: ATOM     26  N   UNL     1      36.506   8.450 123.330 -0.66 -0.00    +0.000 N 
DOCKED: ATOM     27  H   UNL     1      36.079   8.593 124.205 -0.23 -0.00    +0.000 HD
DOCKED: BRANCH  23  25
DOCKED: ATOM     28  O   UNL     1      37.062   7.249 123.042 -2.05 -0.00    +0.000 OA
DOCKED: ATOM     29  H   UNL     1      37.330   7.232 122.110 -0.14 -0.00    +0.000 HD
DOCKED: ENDBRANCH  23  25
DOCKED: ENDBRANCH  20  22
DOCKED: ENDBRANCH  19  20
DOCKED: ENDBRANCH  18  19
DOCKED: ENDBRANCH  17  18
DOCKED: ENDBRANCH  16  17
DOCKED: ENDBRANCH   1  16
DOCKED: TORSDOF 7DOCKED: TER
DOCKED: ENDMDL
________________________________________________________________________________


	BEGINNING GENETIC ALGORITHM DOCKING 37 of 100
Run: 37 Seed: 982811561 560068648 [ Run 37 of 100 GA/GALS ]
Beginning LAMARCKIAN GENETIC ALGORITHM (LGA), with a maximum of 2500000 energy evaluations.

Final-Value: -15.162


	FINAL GENETIC ALGORITHM DOCKED STATE
	_______________________________________________


Detailed state:  trans 37.688 15.929 121.831 quatxyzw 0.635761 -0.562654 -0.167742 0.501090 center 0.154 0.111 -0.146 ntor 7 -176.3086 -70.1209 -178.5399 -139.6200 -10.1299 149.8951 5.5398
State:	 37.688  15.929 121.831   0.735 -0.650 -0.194 119.856   -176.31  -70.12 -178.54 -139.62  -10.13  149.90    5.54

DOCKED: MODEL       37
DOCKED: USER    Run = 37
DOCKED: USER    DPF = ligand_dock.biased.dpf
DOCKED: USER  
DOCKED: USER    Estimated Free Energy of Binding    =  -12.20 kcal/mol  [=(1)+(2)+(3)-(4)]
DOCKED: USER    Estimated Inhibition Constant, Ki   =    1.14 nM (nanomolar)  [Temperature = 298.15 K]
DOCKED: USER    
DOCKED: USER    (1) Final Intermolecular Energy     =  -14.29 kcal/mol
DOCKED: USER        vdW + Hbond + desolv Energy     =  -14.29 kcal/mol
DOCKED: USER        Electrostatic Energy            =   +0.00 kcal/mol
DOCKED: USER    (2) Final Total Internal Energy     =   -0.87 kcal/mol
DOCKED: USER    (3) Torsional Free Energy           =   +2.09 kcal/mol
DOCKED: USER    (4) Unbound System's Energy  [=(2)] =   -0.87 kcal/mol
DOCKED: USER    
DOCKED: USER    
DOCKED: USER    NEWDPF move ligand.dum.pdbqt
DOCKED: USER    NEWDPF about 0.154000 0.111000 -0.146000
DOCKED: USER    NEWDPF tran0 37.687791 15.929217 121.830816
DOCKED: USER    NEWDPF quaternion0 0.635761 -0.562654 -0.167742 0.501090
DOCKED: USER    NEWDPF axisangle0 0.734648 -0.650170 -0.193833 119.855752
DOCKED: USER    NEWDPF quat0 0.734648 -0.650170 -0.193833 119.855752
DOCKED: USER    NEWDPF dihe0 -176.31 -70.12 -178.54 -139.62 -10.13 149.90 5.54 
DOCKED: USER  keepresnum = 1 
DOCKED: USER  
DOCKED: REMARK  Name = 
DOCKED: REMARK  7 active torsions:
DOCKED: REMARK  status: ('A' for Active; 'I' for Inactive)
DOCKED: REMARK    1  A    between atoms: C_2  and  C_5
DOCKED: REMARK    2  A    between atoms: N_3  and  O_4
DOCKED: REMARK    3  A    between atoms: C_5  and  C_6
DOCKED: REMARK    4  A    between atoms: C_6  and  C_7
DOCKED: REMARK    5  A    between atoms: C_7  and  C_8
DOCKED: REMARK    6  A    between atoms: C_8  and  C_9
DOCKED: REMARK    7  A    between atoms: C_9  and  N_10
DOCKED: REMARK                            x       y       z     vdW  Elec       q    Type
DOCKED: REMARK                         _______ _______ _______ _____ _____    ______ ____
DOCKED: USER                              x       y       z     vdW  Elec       q    Type
DOCKED: USER                           _______ _______ _______ _____ _____    ______ ____
DOCKED: ROOT
DOCKED: ATOM      1  N   UNL     1      37.727  15.211 123.145 -0.36 -0.00    +0.000 N 
DOCKED: ATOM      2  C   UNL     1      36.334  15.198 123.511 -0.46 -0.00    +0.000 C 
DOCKED: ATOM      3  C   UNL     1      35.723  16.385 124.153 -0.35 -0.00    +0.000 A 
DOCKED: ATOM      4  C   UNL     1      34.359  16.390 124.491 -0.47 -0.00    +0.000 A 
DOCKED: ATOM      5  C   UNL     1      33.782  17.510 125.094 -0.31 -0.00    +0.000 A 
DOCKED: ATOM      6  C   UNL     1      34.555  18.637 125.369 -0.27 -0.00    +0.000 A 
DOCKED: ATOM      7  C   UNL     1      35.918  18.655 125.042 -0.20 -0.00    +0.000 A 
DOCKED: ATOM      8  C   UNL     1      36.695  19.789 125.320 -0.12 -0.00    +0.000 A 
DOCKED: ATOM      9  C   UNL     1      38.051  19.805 124.997 -0.09 -0.00    +0.000 A 
DOCKED: ATOM     10  C   UNL     1      38.647  18.697 124.394 -0.15 -0.00    +0.000 A 
DOCKED: ATOM     11  C   UNL     1      37.888  17.548 124.105 -0.18 -0.00    +0.000 A 
DOCKED: ATOM     12  C   UNL     1      36.514  17.523 124.429 -0.21 -0.00    +0.000 A 
DOCKED: ATOM     13  O   UNL     1      35.631  14.173 123.286 -0.55 -0.00    +0.000 OA
DOCKED: ATOM     14  C   UNL     1      38.520  16.372 123.464 -0.24 -0.00    +0.000 C 
DOCKED: ATOM     15  O   UNL     1      39.754  16.390 123.200 -0.32 -0.00    +0.000 OA
DOCKED: ATOM     16  CM  UNL     1      37.134  16.341 123.784 +0.00 -0.00    +0.000 AC
DOCKED: ATOM     17  CM  UNL     1      35.142  17.517 124.762 -0.42 -0.00    +0.000 AC
DOCKED: ATOM     18  CM  UNL     1      37.286  18.670 124.715 -0.00 -0.00    +0.000 AC
DOCKED: ENDROOT
DOCKED: BRANCH   1  16
DOCKED: ATOM     19  C   UNL     1      38.313  14.067 122.425 -0.46 -0.00    +0.000 C 
DOCKED: BRANCH  16  17
DOCKED: ATOM     20  C   UNL     1      38.019  14.138 120.917 -0.38 -0.00    +0.000 C 
DOCKED: BRANCH  17  18
DOCKED: ATOM     21  C   UNL     1      37.830  12.764 120.246 -0.49 -0.00    +0.000 C 
DOCKED: BRANCH  18  19
DOCKED: ATOM     22  C   UNL     1      36.687  11.911 120.832 -0.37 -0.00    +0.000 C 
DOCKED: BRANCH  19  20
DOCKED: ATOM     23  C   UNL     1      36.988  11.301 122.211 -0.58 -0.00    +0.000 C 
DOCKED: BRANCH  20  22
DOCKED: ATOM     24  O   UNL     1      36.939   9.206 121.061 -2.70 -0.00    +0.000 OA
DOCKED: ATOM     25  C   UNL     1      37.008   9.800 122.170 -0.60 -0.00    +0.000 C 
DOCKED: ATOM     26  N   UNL     1      37.071   9.043 123.382 -0.60 -0.00    +0.000 N 
DOCKED: ATOM     27  H   UNL     1      37.117   9.509 124.247 -0.57 -0.00    +0.000 HD
DOCKED: BRANCH  23  25
DOCKED: ATOM     28  O   UNL     1      37.067   7.689 123.348 -2.30 -0.00    +0.000 OA
DOCKED: ATOM     29  H   UNL     1      37.054   7.343 124.255 -0.53 -0.00    +0.000 HD
DOCKED: ENDBRANCH  23  25
DOCKED: ENDBRANCH  20  22
DOCKED: ENDBRANCH  19  20
DOCKED: ENDBRANCH  18  19
DOCKED: ENDBRANCH  17  18
DOCKED: ENDBRANCH  16  17
DOCKED: ENDBRANCH   1  16
DOCKED: TORSDOF 7DOCKED: TER
DOCKED: ENDMDL
________________________________________________________________________________


	BEGINNING GENETIC ALGORITHM DOCKING 38 of 100
Run: 38 Seed: 773109541 209897784 [ Run 38 of 100 GA/GALS ]
Beginning LAMARCKIAN GENETIC ALGORITHM (LGA), with a maximum of 2500000 energy evaluations.

Final-Value: -14.367


	FINAL GENETIC ALGORITHM DOCKED STATE
	_______________________________________________


Detailed state:  trans 38.146 14.057 123.638 quatxyzw 0.182671 -0.220088 -0.774292 -0.564503 center 0.154 0.111 -0.146 ntor 7 -20.1451 -178.1151 3.4837 17.1388 133.1705 -175.5644 71.5022
State:	 38.146  14.057 123.638   0.221 -0.267 -0.938 -111.264    -20.15 -178.12    3.48   17.14  133.17 -175.56   71.50

DOCKED: MODEL       38
DOCKED: USER    Run = 38
DOCKED: USER    DPF = ligand_dock.biased.dpf
DOCKED: USER  
DOCKED: USER    Estimated Free Energy of Binding    =  -11.34 kcal/mol  [=(1)+(2)+(3)-(4)]
DOCKED: USER    Estimated Inhibition Constant, Ki   =    4.83 nM (nanomolar)  [Temperature = 298.15 K]
DOCKED: USER    
DOCKED: USER    (1) Final Intermolecular Energy     =  -13.43 kcal/mol
DOCKED: USER        vdW + Hbond + desolv Energy     =  -13.43 kcal/mol
DOCKED: USER        Electrostatic Energy            =   +0.00 kcal/mol
DOCKED: USER    (2) Final Total Internal Energy     =   -0.93 kcal/mol
DOCKED: USER    (3) Torsional Free Energy           =   +2.09 kcal/mol
DOCKED: USER    (4) Unbound System's Energy  [=(2)] =   -0.93 kcal/mol
DOCKED: USER    
DOCKED: USER    
DOCKED: USER    NEWDPF move ligand.dum.pdbqt
DOCKED: USER    NEWDPF about 0.154000 0.111000 -0.146000
DOCKED: USER    NEWDPF tran0 38.145846 14.056626 123.637641
DOCKED: USER    NEWDPF quaternion0 0.182671 -0.220088 -0.774292 -0.564503
DOCKED: USER    NEWDPF axisangle0 0.221304 -0.266634 -0.938046 -111.264375
DOCKED: USER    NEWDPF quat0 0.221304 -0.266634 -0.938046 -111.264375
DOCKED: USER    NEWDPF dihe0 -20.15 -178.12 3.48 17.14 133.17 -175.56 71.50 
DOCKED: USER  keepresnum = 1 
DOCKED: USER  
DOCKED: REMARK  Name = 
DOCKED: REMARK  7 active torsions:
DOCKED: REMARK  status: ('A' for Active; 'I' for Inactive)
DOCKED: REMARK    1  A    between atoms: C_2  and  C_5
DOCKED: REMARK    2  A    between atoms: N_3  and  O_4
DOCKED: REMARK    3  A    between atoms: C_5  and  C_6
DOCKED: REMARK    4  A    between atoms: C_6  and  C_7
DOCKED: REMARK    5  A    between atoms: C_7  and  C_8
DOCKED: REMARK    6  A    between atoms: C_8  and  C_9
DOCKED: REMARK    7  A    between atoms: C_9  and  N_10
DOCKED: REMARK                            x       y       z     vdW  Elec       q    Type
DOCKED: REMARK                         _______ _______ _______ _____ _____    ______ ____
DOCKED: USER                              x       y       z     vdW  Elec       q    Type
DOCKED: USER                           _______ _______ _______ _____ _____    ______ ____
DOCKED: ROOT
DOCKED: ATOM      1  N   UNL     1      38.372  14.680 122.294 -0.37 -0.00    +0.000 N 
DOCKED: ATOM      2  C   UNL     1      39.779  14.986 122.348 -0.43 -0.00    +0.000 C 
DOCKED: ATOM      3  C   UNL     1      40.245  16.219 123.024 -0.24 -0.00    +0.000 A 
DOCKED: ATOM      4  C   UNL     1      41.618  16.513 123.104 -0.36 -0.00    +0.000 A 
DOCKED: ATOM      5  C   UNL     1      42.059  17.673 123.742 -0.23 -0.00    +0.000 A 
DOCKED: ATOM      6  C   UNL     1      41.140  18.557 124.309 -0.24 -0.00    +0.000 A 
DOCKED: ATOM      7  C   UNL     1      39.767  18.285 124.242 -0.20 -0.00    +0.000 A 
DOCKED: ATOM      8  C   UNL     1      38.843  19.174 124.810 -0.13 -0.00    +0.000 A 
DOCKED: ATOM      9  C   UNL     1      37.477  18.906 124.741 -0.15 -0.00    +0.000 A 
DOCKED: ATOM     10  C   UNL     1      37.016  17.752 124.107 -0.20 -0.00    +0.000 A 
DOCKED: ATOM     11  C   UNL     1      37.922  16.844 123.529 -0.22 -0.00    +0.000 A 
DOCKED: ATOM     12  C   UNL     1      39.308  17.109 123.595 -0.20 -0.00    +0.000 A 
DOCKED: ATOM     13  O   UNL     1      40.616  14.204 121.819 -0.96 +0.00    +0.000 OA
DOCKED: ATOM     14  C   UNL     1      37.433  15.618 122.857 -0.35 -0.00    +0.000 C 
DOCKED: ATOM     15  O   UNL     1      36.193  15.400 122.779 -0.39 -0.00    +0.000 OA
DOCKED: ATOM     16  CM  UNL     1      38.830  15.876 122.924 +0.00 -0.00    +0.000 AC
DOCKED: ATOM     17  CM  UNL     1      40.690  17.392 123.670 +0.00 -0.00    +0.000 AC
DOCKED: ATOM     18  CM  UNL     1      38.389  18.012 124.171 +0.00 -0.00    +0.000 AC
DOCKED: ENDROOT
DOCKED: BRANCH   1  16
DOCKED: ATOM     19  C   UNL     1      37.914  13.412 121.704 -0.46 -0.00    +0.000 C 
DOCKED: BRANCH  16  17
DOCKED: ATOM     20  C   UNL     1      36.641  12.893 122.396 -0.54 -0.00    +0.000 C 
DOCKED: BRANCH  17  18
DOCKED: ATOM     21  C   UNL     1      36.849  11.605 123.215 -0.68 -0.00    +0.000 C 
DOCKED: BRANCH  18  19
DOCKED: ATOM     22  C   UNL     1      35.567  10.783 123.462 -0.52 -0.00    +0.000 C 
DOCKED: BRANCH  19  20
DOCKED: ATOM     23  C   UNL     1      35.178   9.845 122.308 -0.63 -0.00    +0.000 C 
DOCKED: BRANCH  20  22
DOCKED: ATOM     24  O   UNL     1      37.041   8.859 121.182 -2.69 -0.00    +0.000 OA
DOCKED: ATOM     25  C   UNL     1      36.189   8.753 122.104 -0.72 -0.00    +0.000 C 
DOCKED: ATOM     26  N   UNL     1      36.169   7.584 122.927 -0.71 -0.00    +0.000 N 
DOCKED: ATOM     27  H   UNL     1      35.498   7.501 123.641 -0.03 -0.00    +0.000 HD
DOCKED: BRANCH  23  25
DOCKED: ATOM     28  O   UNL     1      37.066   6.589 122.730 -1.31 -0.00    +0.000 OA
DOCKED: ATOM     29  H   UNL     1      37.433   6.656 121.834 -0.47 -0.00    +0.000 HD
DOCKED: ENDBRANCH  23  25
DOCKED: ENDBRANCH  20  22
DOCKED: ENDBRANCH  19  20
DOCKED: ENDBRANCH  18  19
DOCKED: ENDBRANCH  17  18
DOCKED: ENDBRANCH  16  17
DOCKED: ENDBRANCH   1  16
DOCKED: TORSDOF 7DOCKED: TER
DOCKED: ENDMDL
________________________________________________________________________________


	BEGINNING GENETIC ALGORITHM DOCKING 39 of 100
Run: 39 Seed: 1717032697 280983390 [ Run 39 of 100 GA/GALS ]
Beginning LAMARCKIAN GENETIC ALGORITHM (LGA), with a maximum of 2500000 energy evaluations.

Final-Value: -15.505


	FINAL GENETIC ALGORITHM DOCKED STATE
	_______________________________________________


Detailed state:  trans 35.989 15.954 125.275 quatxyzw -0.036065 0.087511 -0.544770 -0.833227 center 0.154 0.111 -0.146 ntor 7 6.5040 145.5287 84.5917 76.1216 -158.9901 146.5494 -8.1281
State:	 35.989  15.954 125.275  -0.065  0.158 -0.985 -67.137      6.50  145.53   84.59   76.12 -158.99  146.55   -8.13

DOCKED: MODEL       39
DOCKED: USER    Run = 39
DOCKED: USER    DPF = ligand_dock.biased.dpf
DOCKED: USER  
DOCKED: USER    Estimated Free Energy of Binding    =  -12.29 kcal/mol  [=(1)+(2)+(3)-(4)]
DOCKED: USER    Estimated Inhibition Constant, Ki   =  988.49 pM (picomolar)  [Temperature = 298.15 K]
DOCKED: USER    
DOCKED: USER    (1) Final Intermolecular Energy     =  -14.37 kcal/mol
DOCKED: USER        vdW + Hbond + desolv Energy     =  -14.37 kcal/mol
DOCKED: USER        Electrostatic Energy            =   +0.00 kcal/mol
DOCKED: USER    (2) Final Total Internal Energy     =   -1.13 kcal/mol
DOCKED: USER    (3) Torsional Free Energy           =   +2.09 kcal/mol
DOCKED: USER    (4) Unbound System's Energy  [=(2)] =   -1.13 kcal/mol
DOCKED: USER    
DOCKED: USER    
DOCKED: USER    NEWDPF move ligand.dum.pdbqt
DOCKED: USER    NEWDPF about 0.154000 0.111000 -0.146000
DOCKED: USER    NEWDPF tran0 35.989151 15.953810 125.275271
DOCKED: USER    NEWDPF quaternion0 -0.036065 0.087511 -0.544770 -0.833227
DOCKED: USER    NEWDPF axisangle0 -0.065225 0.158267 -0.985240 -67.136644
DOCKED: USER    NEWDPF quat0 -0.065225 0.158267 -0.985240 -67.136644
DOCKED: USER    NEWDPF dihe0 6.50 145.53 84.59 76.12 -158.99 146.55 -8.13 
DOCKED: USER  keepresnum = 1 
DOCKED: USER  
DOCKED: REMARK  Name = 
DOCKED: REMARK  7 active torsions:
DOCKED: REMARK  status: ('A' for Active; 'I' for Inactive)
DOCKED: REMARK    1  A    between atoms: C_2  and  C_5
DOCKED: REMARK    2  A    between atoms: N_3  and  O_4
DOCKED: REMARK    3  A    between atoms: C_5  and  C_6
DOCKED: REMARK    4  A    between atoms: C_6  and  C_7
DOCKED: REMARK    5  A    between atoms: C_7  and  C_8
DOCKED: REMARK    6  A    between atoms: C_8  and  C_9
DOCKED: REMARK    7  A    between atoms: C_9  and  N_10
DOCKED: REMARK                            x       y       z     vdW  Elec       q    Type
DOCKED: REMARK                         _______ _______ _______ _____ _____    ______ ____
DOCKED: USER                              x       y       z     vdW  Elec       q    Type
DOCKED: USER                           _______ _______ _______ _____ _____    ______ ____
DOCKED: ROOT
DOCKED: ATOM      1  N   UNL     1      34.883  16.267 124.314 -0.46 -0.00    +0.000 N 
DOCKED: ATOM      2  C   UNL     1      35.444  17.369 123.575 -0.35 -0.00    +0.000 C 
DOCKED: ATOM      3  C   UNL     1      35.381  18.742 124.128 -0.23 -0.00    +0.000 A 
DOCKED: ATOM      4  C   UNL     1      35.947  19.820 123.425 -0.16 -0.00    +0.000 A 
DOCKED: ATOM      5  C   UNL     1      35.891  21.114 123.947 -0.13 -0.00    +0.000 A 
DOCKED: ATOM      6  C   UNL     1      35.270  21.352 125.173 -0.14 -0.00    +0.000 A 
DOCKED: ATOM      7  C   UNL     1      34.698  20.293 125.891 -0.16 -0.00    +0.000 A 
DOCKED: ATOM      8  C   UNL     1      34.074  20.533 127.123 -0.11 -0.00    +0.000 A 
DOCKED: ATOM      9  C   UNL     1      33.502  19.480 127.837 -0.13 -0.00    +0.000 A 
DOCKED: ATOM     10  C   UNL     1      33.548  18.180 127.333 -0.25 -0.00    +0.000 A 
DOCKED: ATOM     11  C   UNL     1      34.169  17.913 126.099 -0.32 -0.00    +0.000 A 
DOCKED: ATOM     12  C   UNL     1      34.750  18.974 125.370 -0.24 -0.00    +0.000 A 
DOCKED: ATOM     13  O   UNL     1      35.987  17.167 122.454 -0.26 -0.00    +0.000 OA
DOCKED: ATOM     14  C   UNL     1      34.218  16.533 125.565 -0.43 -0.00    +0.000 C 
DOCKED: ATOM     15  O   UNL     1      33.675  15.593 126.208 -0.92 -0.00    +0.000 OA
DOCKED: ATOM     16  CM  UNL     1      34.809  17.596 124.828 -0.45 -0.00    +0.000 AC
DOCKED: ATOM     17  CM  UNL     1      35.323  20.049 124.656 -0.00 -0.00    +0.000 AC
DOCKED: ATOM     18  CM  UNL     1      34.123  19.229 126.609 -0.01 -0.00    +0.000 AC
DOCKED: ENDROOT
DOCKED: BRANCH   1  16
DOCKED: ATOM     19  C   UNL     1      35.025  14.890 123.809 -0.56 -0.00    +0.000 C 
DOCKED: BRANCH  16  17
DOCKED: ATOM     20  C   UNL     1      36.488  14.419 123.856 -0.45 -0.00    +0.000 C 
DOCKED: BRANCH  17  18
DOCKED: ATOM     21  C   UNL     1      36.860  13.405 122.757 -0.55 -0.00    +0.000 C 
DOCKED: BRANCH  18  19
DOCKED: ATOM     22  C   UNL     1      36.649  11.926 123.144 -0.68 -0.00    +0.000 C 
DOCKED: BRANCH  19  20
DOCKED: ATOM     23  C   UNL     1      36.125  11.036 122.006 -0.59 -0.00    +0.000 C 
DOCKED: BRANCH  20  22
DOCKED: ATOM     24  O   UNL     1      37.065   9.057 121.051 -2.72 -0.00    +0.000 OA
DOCKED: ATOM     25  C   UNL     1      36.660   9.636 122.095 -0.69 -0.00    +0.000 C 
DOCKED: ATOM     26  N   UNL     1      36.682   8.946 123.347 -0.60 -0.00    +0.000 N 
DOCKED: ATOM     27  H   UNL     1      36.358   9.398 124.159 -0.36 -0.00    +0.000 HD
DOCKED: BRANCH  23  25
DOCKED: ATOM     28  O   UNL     1      37.143   7.675 123.425 -2.25 -0.00    +0.000 OA
DOCKED: ATOM     29  H   UNL     1      37.517   7.413 122.569 -0.18 -0.00    +0.000 HD
DOCKED: ENDBRANCH  23  25
DOCKED: ENDBRANCH  20  22
DOCKED: ENDBRANCH  19  20
DOCKED: ENDBRANCH  18  19
DOCKED: ENDBRANCH  17  18
DOCKED: ENDBRANCH  16  17
DOCKED: ENDBRANCH   1  16
DOCKED: TORSDOF 7DOCKED: TER
DOCKED: ENDMDL
________________________________________________________________________________


	BEGINNING GENETIC ALGORITHM DOCKING 40 of 100
Run: 40 Seed: 1759982039 1357697742 [ Run 40 of 100 GA/GALS ]
Beginning LAMARCKIAN GENETIC ALGORITHM (LGA), with a maximum of 2500000 energy evaluations.

Final-Value: -14.697


	FINAL GENETIC ALGORITHM DOCKED STATE
	_______________________________________________


Detailed state:  trans 37.206 15.316 123.466 quatxyzw 0.212984 0.122010 -0.424646 -0.871451 center 0.154 0.111 -0.146 ntor 7 10.7207 -122.1007 -138.3989 -155.9974 -104.1598 88.4823 26.8646
State:	 37.206  15.316 123.466   0.434  0.249 -0.866 -58.745     10.72 -122.10 -138.40 -156.00 -104.16   88.48   26.86

DOCKED: MODEL       40
DOCKED: USER    Run = 40
DOCKED: USER    DPF = ligand_dock.biased.dpf
DOCKED: USER  
DOCKED: USER    Estimated Free Energy of Binding    =  -11.21 kcal/mol  [=(1)+(2)+(3)-(4)]
DOCKED: USER    Estimated Inhibition Constant, Ki   =    6.07 nM (nanomolar)  [Temperature = 298.15 K]
DOCKED: USER    
DOCKED: USER    (1) Final Intermolecular Energy     =  -13.30 kcal/mol
DOCKED: USER        vdW + Hbond + desolv Energy     =  -13.30 kcal/mol
DOCKED: USER        Electrostatic Energy            =   +0.00 kcal/mol
DOCKED: USER    (2) Final Total Internal Energy     =   -1.40 kcal/mol
DOCKED: USER    (3) Torsional Free Energy           =   +2.09 kcal/mol
DOCKED: USER    (4) Unbound System's Energy  [=(2)] =   -1.40 kcal/mol
DOCKED: USER    
DOCKED: USER    
DOCKED: USER    NEWDPF move ligand.dum.pdbqt
DOCKED: USER    NEWDPF about 0.154000 0.111000 -0.146000
DOCKED: USER    NEWDPF tran0 37.206015 15.316075 123.466286
DOCKED: USER    NEWDPF quaternion0 0.212984 0.122010 -0.424646 -0.871451
DOCKED: USER    NEWDPF axisangle0 0.434234 0.248756 -0.865772 -58.744547
DOCKED: USER    NEWDPF quat0 0.434234 0.248756 -0.865772 -58.744547
DOCKED: USER    NEWDPF dihe0 10.72 -122.10 -138.40 -156.00 -104.16 88.48 26.86 
DOCKED: USER  keepresnum = 1 
DOCKED: USER  
DOCKED: REMARK  Name = 
DOCKED: REMARK  7 active torsions:
DOCKED: REMARK  status: ('A' for Active; 'I' for Inactive)
DOCKED: REMARK    1  A    between atoms: C_2  and  C_5
DOCKED: REMARK    2  A    between atoms: N_3  and  O_4
DOCKED: REMARK    3  A    between atoms: C_5  and  C_6
DOCKED: REMARK    4  A    between atoms: C_6  and  C_7
DOCKED: REMARK    5  A    between atoms: C_7  and  C_8
DOCKED: REMARK    6  A    between atoms: C_8  and  C_9
DOCKED: REMARK    7  A    between atoms: C_9  and  N_10
DOCKED: REMARK                            x       y       z     vdW  Elec       q    Type
DOCKED: REMARK                         _______ _______ _______ _____ _____    ______ ____
DOCKED: USER                              x       y       z     vdW  Elec       q    Type
DOCKED: USER                           _______ _______ _______ _____ _____    ______ ____
DOCKED: ROOT
DOCKED: ATOM      1  N   UNL     1      36.223  15.895 122.496 -0.29 -0.00    +0.000 N 
DOCKED: ATOM      2  C   UNL     1      36.612  17.282 122.479 -0.22 -0.00    +0.000 C 
DOCKED: ATOM      3  C   UNL     1      36.138  18.199 123.540 -0.21 -0.00    +0.000 A 
DOCKED: ATOM      4  C   UNL     1      36.534  19.549 123.546 -0.15 -0.00    +0.000 A 
DOCKED: ATOM      5  C   UNL     1      36.090  20.414 124.548 -0.15 -0.00    +0.000 A 
DOCKED: ATOM      6  C   UNL     1      35.246  19.948 125.556 -0.16 -0.00    +0.000 A 
DOCKED: ATOM      7  C   UNL     1      34.838  18.608 125.571 -0.25 -0.00    +0.000 A 
DOCKED: ATOM      8  C   UNL     1      33.988  18.140 126.584 -0.28 -0.00    +0.000 A 
DOCKED: ATOM      9  C   UNL     1      33.580  16.807 126.598 -0.37 -0.00    +0.000 A 
DOCKED: ATOM     10  C   UNL     1      34.012  15.927 125.606 -0.35 -0.00    +0.000 A 
DOCKED: ATOM     11  C   UNL     1      34.865  16.371 124.579 -0.44 -0.00    +0.000 A 
DOCKED: ATOM     12  C   UNL     1      35.283  17.720 124.557 -0.30 -0.00    +0.000 A 
DOCKED: ATOM     13  O   UNL     1      37.358  17.718 121.558 -0.12 -0.00    +0.000 OA
DOCKED: ATOM     14  C   UNL     1      35.325  15.436 123.526 -0.50 -0.00    +0.000 C 
DOCKED: ATOM     15  O   UNL     1      34.928  14.239 123.536 -0.56 -0.00    +0.000 OA
DOCKED: ATOM     16  CM  UNL     1      35.754  16.792 123.502 -0.03 -0.00    +0.000 AC
DOCKED: ATOM     17  CM  UNL     1      35.689  19.073 124.553 -0.09 -0.00    +0.000 AC
DOCKED: ATOM     18  CM  UNL     1      34.427  17.262 125.583 -0.28 -0.00    +0.000 AC
DOCKED: ENDROOT
DOCKED: BRANCH   1  16
DOCKED: ATOM     19  C   UNL     1      36.765  14.962 121.494 -0.19 -0.00    +0.000 C 
DOCKED: BRANCH  16  17
DOCKED: ATOM     20  C   UNL     1      37.876  14.079 122.087 -0.46 -0.00    +0.000 C 
DOCKED: BRANCH  17  18
DOCKED: ATOM     21  C   UNL     1      38.023  12.706 121.404 -0.28 -0.00    +0.000 C 
DOCKED: BRANCH  18  19
DOCKED: ATOM     22  C   UNL     1      36.698  12.077 120.924 -0.45 -0.00    +0.000 C 
DOCKED: BRANCH  19  20
DOCKED: ATOM     23  C   UNL     1      36.000  11.188 121.965 -0.56 -0.00    +0.000 C 
DOCKED: BRANCH  20  22
DOCKED: ATOM     24  O   UNL     1      37.006   9.219 121.058 -2.72 -0.00    +0.000 OA
DOCKED: ATOM     25  C   UNL     1      36.663   9.847 122.095 -0.67 -0.00    +0.000 C 
DOCKED: ATOM     26  N   UNL     1      36.874   9.265 123.384 -0.56 -0.00    +0.000 N 
DOCKED: ATOM     27  H   UNL     1      36.598   9.753 124.192 -0.44 -0.00    +0.000 HD
DOCKED: BRANCH  23  25
DOCKED: ATOM     28  O   UNL     1      37.451   8.045 123.502 -2.06 -0.00    +0.000 OA
DOCKED: ATOM     29  H   UNL     1      37.815   7.774 122.644 -0.16 -0.00    +0.000 HD
DOCKED: ENDBRANCH  23  25
DOCKED: ENDBRANCH  20  22
DOCKED: ENDBRANCH  19  20
DOCKED: ENDBRANCH  18  19
DOCKED: ENDBRANCH  17  18
DOCKED: ENDBRANCH  16  17
DOCKED: ENDBRANCH   1  16
DOCKED: TORSDOF 7DOCKED: TER
DOCKED: ENDMDL
________________________________________________________________________________


	BEGINNING GENETIC ALGORITHM DOCKING 41 of 100
Run: 41 Seed: 708913397 477657479 [ Run 41 of 100 GA/GALS ]
Beginning LAMARCKIAN GENETIC ALGORITHM (LGA), with a maximum of 2500000 energy evaluations.

Final-Value: -14.864


	FINAL GENETIC ALGORITHM DOCKED STATE
	_______________________________________________


Detailed state:  trans 34.204 16.889 122.806 quatxyzw -0.603173 0.689152 0.353363 -0.190755 center 0.154 0.111 -0.146 ntor 7 4.7581 147.8373 81.6829 27.1145 152.6878 164.3451 -122.0545
State:	 34.204  16.889 122.806  -0.614  0.702  0.360 -158.006      4.76  147.84   81.68   27.11  152.69  164.35 -122.05

DOCKED: MODEL       41
DOCKED: USER    Run = 41
DOCKED: USER    DPF = ligand_dock.biased.dpf
DOCKED: USER  
DOCKED: USER    Estimated Free Energy of Binding    =  -11.79 kcal/mol  [=(1)+(2)+(3)-(4)]
DOCKED: USER    Estimated Inhibition Constant, Ki   =    2.27 nM (nanomolar)  [Temperature = 298.15 K]
DOCKED: USER    
DOCKED: USER    (1) Final Intermolecular Energy     =  -13.88 kcal/mol
DOCKED: USER        vdW + Hbond + desolv Energy     =  -13.88 kcal/mol
DOCKED: USER        Electrostatic Energy            =   +0.00 kcal/mol
DOCKED: USER    (2) Final Total Internal Energy     =   -0.98 kcal/mol
DOCKED: USER    (3) Torsional Free Energy           =   +2.09 kcal/mol
DOCKED: USER    (4) Unbound System's Energy  [=(2)] =   -0.98 kcal/mol
DOCKED: USER    
DOCKED: USER    
DOCKED: USER    NEWDPF move ligand.dum.pdbqt
DOCKED: USER    NEWDPF about 0.154000 0.111000 -0.146000
DOCKED: USER    NEWDPF tran0 34.203862 16.888503 122.806008
DOCKED: USER    NEWDPF quaternion0 -0.603173 0.689152 0.353363 -0.190755
DOCKED: USER    NEWDPF axisangle0 -0.614455 0.702043 0.359973 -158.006321
DOCKED: USER    NEWDPF quat0 -0.614455 0.702043 0.359973 -158.006321
DOCKED: USER    NEWDPF dihe0 4.76 147.84 81.68 27.11 152.69 164.35 -122.05 
DOCKED: USER  keepresnum = 1 
DOCKED: USER  
DOCKED: REMARK  Name = 
DOCKED: REMARK  7 active torsions:
DOCKED: REMARK  status: ('A' for Active; 'I' for Inactive)
DOCKED: REMARK    1  A    between atoms: C_2  and  C_5
DOCKED: REMARK    2  A    between atoms: N_3  and  O_4
DOCKED: REMARK    3  A    between atoms: C_5  and  C_6
DOCKED: REMARK    4  A    between atoms: C_6  and  C_7
DOCKED: REMARK    5  A    between atoms: C_7  and  C_8
DOCKED: REMARK    6  A    between atoms: C_8  and  C_9
DOCKED: REMARK    7  A    between atoms: C_9  and  N_10
DOCKED: REMARK                            x       y       z     vdW  Elec       q    Type
DOCKED: REMARK                         _______ _______ _______ _____ _____    ______ ____
DOCKED: USER                              x       y       z     vdW  Elec       q    Type
DOCKED: USER                           _______ _______ _______ _____ _____    ______ ____
DOCKED: ROOT
DOCKED: ATOM      1  N   UNL     1      35.213  16.469 123.831 -0.40 -0.00    +0.000 N 
DOCKED: ATOM      2  C   UNL     1      34.434  16.514 125.042 -0.50 -0.00    +0.000 C 
DOCKED: ATOM      3  C   UNL     1      34.224  17.802 125.743 -0.34 -0.00    +0.000 A 
DOCKED: ATOM      4  C   UNL     1      33.444  17.859 126.911 -0.30 -0.00    +0.000 A 
DOCKED: ATOM      5  C   UNL     1      33.243  19.073 127.571 -0.18 -0.00    +0.000 A 
DOCKED: ATOM      6  C   UNL     1      33.816  20.245 127.078 -0.13 -0.00    +0.000 A 
DOCKED: ATOM      7  C   UNL     1      34.598  20.213 125.915 -0.16 -0.00    +0.000 A 
DOCKED: ATOM      8  C   UNL     1      35.175  21.391 125.421 -0.14 -0.00    +0.000 A 
DOCKED: ATOM      9  C   UNL     1      35.955  21.359 124.265 -0.14 -0.00    +0.000 A 
DOCKED: ATOM     10  C   UNL     1      36.168  20.156 123.591 -0.15 -0.00    +0.000 A 
DOCKED: ATOM     11  C   UNL     1      35.600  18.960 124.067 -0.21 -0.00    +0.000 A 
DOCKED: ATOM     12  C   UNL     1      34.808  18.984 125.237 -0.24 -0.00    +0.000 A 
DOCKED: ATOM     13  O   UNL     1      33.929  15.455 125.508 -0.72 -0.00    +0.000 OA
DOCKED: ATOM     14  C   UNL     1      35.825  17.684 123.351 -0.29 -0.00    +0.000 C 
DOCKED: ATOM     15  O   UNL     1      36.553  17.663 122.322 -0.19 -0.00    +0.000 OA
DOCKED: ATOM     16  CM  UNL     1      35.023  17.701 124.526 -0.39 -0.00    +0.000 AC
DOCKED: ATOM     17  CM  UNL     1      34.022  19.029 126.409 -0.03 -0.00    +0.000 AC
DOCKED: ATOM     18  CM  UNL     1      35.385  20.177 124.750 -0.00 -0.00    +0.000 AC
DOCKED: ENDROOT
DOCKED: BRANCH   1  16
DOCKED: ATOM     19  C   UNL     1      35.347  15.207 123.084 -0.29 -0.00    +0.000 C 
DOCKED: BRANCH  16  17
DOCKED: ATOM     20  C   UNL     1      35.671  14.029 124.019 -0.51 -0.00    +0.000 C 
DOCKED: BRANCH  17  18
DOCKED: ATOM     21  C   UNL     1      36.842  13.148 123.541 -0.58 -0.00    +0.000 C 
DOCKED: BRANCH  18  19
DOCKED: ATOM     22  C   UNL     1      36.619  11.631 123.713 -0.70 -0.00    +0.000 C 
DOCKED: BRANCH  19  20
DOCKED: ATOM     23  C   UNL     1      36.033  10.928 122.478 -0.67 -0.00    +0.000 C 
DOCKED: BRANCH  20  22
DOCKED: ATOM     24  O   UNL     1      36.978   9.180 121.150 -2.71 -0.00    +0.000 OA
DOCKED: ATOM     25  C   UNL     1      36.598   9.549 122.294 -0.71 -0.00    +0.000 C 
DOCKED: ATOM     26  N   UNL     1      36.674   8.644 123.398 -0.63 -0.00    +0.000 N 
DOCKED: ATOM     27  H   UNL     1      36.369   8.932 124.288 -0.30 -0.00    +0.000 HD
DOCKED: BRANCH  23  25
DOCKED: ATOM     28  O   UNL     1      37.163   7.392 123.229 -2.12 -0.00    +0.000 OA
DOCKED: ATOM     29  H   UNL     1      37.487   7.291 122.320 -0.16 -0.00    +0.000 HD
DOCKED: ENDBRANCH  23  25
DOCKED: ENDBRANCH  20  22
DOCKED: ENDBRANCH  19  20
DOCKED: ENDBRANCH  18  19
DOCKED: ENDBRANCH  17  18
DOCKED: ENDBRANCH  16  17
DOCKED: ENDBRANCH   1  16
DOCKED: TORSDOF 7DOCKED: TER
DOCKED: ENDMDL
________________________________________________________________________________


	BEGINNING GENETIC ALGORITHM DOCKING 42 of 100
Run: 42 Seed: 1800528632 1839114553 [ Run 42 of 100 GA/GALS ]
Beginning LAMARCKIAN GENETIC ALGORITHM (LGA), with a maximum of 2500000 energy evaluations.

Final-Value: -15.316


	FINAL GENETIC ALGORITHM DOCKED STATE
	_______________________________________________


Detailed state:  trans 37.919 16.136 121.647 quatxyzw 0.150551 -0.952401 0.023389 0.264044 center 0.154 0.111 -0.146 ntor 7 9.9240 180.0000 -157.6934 -159.5599 -121.1891 -145.9216 -169.2563
State:	 37.919  16.136 121.647   0.156 -0.987  0.024 149.380      9.92  180.00 -157.69 -159.56 -121.19 -145.92 -169.26

DOCKED: MODEL       42
DOCKED: USER    Run = 42
DOCKED: USER    DPF = ligand_dock.biased.dpf
DOCKED: USER  
DOCKED: USER    Estimated Free Energy of Binding    =  -11.85 kcal/mol  [=(1)+(2)+(3)-(4)]
DOCKED: USER    Estimated Inhibition Constant, Ki   =    2.07 nM (nanomolar)  [Temperature = 298.15 K]
DOCKED: USER    
DOCKED: USER    (1) Final Intermolecular Energy     =  -13.94 kcal/mol
DOCKED: USER        vdW + Hbond + desolv Energy     =  -13.94 kcal/mol
DOCKED: USER        Electrostatic Energy            =   +0.00 kcal/mol
DOCKED: USER    (2) Final Total Internal Energy     =   -1.38 kcal/mol
DOCKED: USER    (3) Torsional Free Energy           =   +2.09 kcal/mol
DOCKED: USER    (4) Unbound System's Energy  [=(2)] =   -1.38 kcal/mol
DOCKED: USER    
DOCKED: USER    
DOCKED: USER    NEWDPF move ligand.dum.pdbqt
DOCKED: USER    NEWDPF about 0.154000 0.111000 -0.146000
DOCKED: USER    NEWDPF tran0 37.919411 16.135622 121.646772
DOCKED: USER    NEWDPF quaternion0 0.150551 -0.952401 0.023389 0.264044
DOCKED: USER    NEWDPF axisangle0 0.156091 -0.987445 0.024250 149.379693
DOCKED: USER    NEWDPF quat0 0.156091 -0.987445 0.024250 149.379693
DOCKED: USER    NEWDPF dihe0 9.92 180.00 -157.69 -159.56 -121.19 -145.92 -169.26 
DOCKED: USER  keepresnum = 1 
DOCKED: USER  
DOCKED: REMARK  Name = 
DOCKED: REMARK  7 active torsions:
DOCKED: REMARK  status: ('A' for Active; 'I' for Inactive)
DOCKED: REMARK    1  A    between atoms: C_2  and  C_5
DOCKED: REMARK    2  A    between atoms: N_3  and  O_4
DOCKED: REMARK    3  A    between atoms: C_5  and  C_6
DOCKED: REMARK    4  A    between atoms: C_6  and  C_7
DOCKED: REMARK    5  A    between atoms: C_7  and  C_8
DOCKED: REMARK    6  A    between atoms: C_8  and  C_9
DOCKED: REMARK    7  A    between atoms: C_9  and  N_10
DOCKED: REMARK                            x       y       z     vdW  Elec       q    Type
DOCKED: REMARK                         _______ _______ _______ _____ _____    ______ ____
DOCKED: USER                              x       y       z     vdW  Elec       q    Type
DOCKED: USER                           _______ _______ _______ _____ _____    ______ ____
DOCKED: ROOT
DOCKED: ATOM      1  N   UNL     1      38.028  15.592 123.039 -0.32 -0.00    +0.000 N 
DOCKED: ATOM      2  C   UNL     1      37.977  16.797 123.827 -0.23 -0.00    +0.000 C 
DOCKED: ATOM      3  C   UNL     1      39.201  17.607 124.024 -0.21 -0.00    +0.000 A 
DOCKED: ATOM      4  C   UNL     1      39.157  18.797 124.771 -0.16 -0.00    +0.000 A 
DOCKED: ATOM      5  C   UNL     1      40.309  19.563 124.955 -0.14 -0.00    +0.000 A 
DOCKED: ATOM      6  C   UNL     1      41.522  19.154 124.400 -0.16 -0.00    +0.000 A 
DOCKED: ATOM      7  C   UNL     1      41.591  17.970 123.652 -0.27 -0.00    +0.000 A 
DOCKED: ATOM      8  C   UNL     1      42.811  17.559 123.096 -0.27 -0.00    +0.000 A 
DOCKED: ATOM      9  C   UNL     1      42.881  16.380 122.354 -0.37 -0.00    +0.000 A 
DOCKED: ATOM     10  C   UNL     1      41.740  15.601 122.159 -0.41 -0.00    +0.000 A 
DOCKED: ATOM     11  C   UNL     1      40.506  15.992 122.707 -0.33 -0.00    +0.000 A 
DOCKED: ATOM     12  C   UNL     1      40.426  17.185 123.459 -0.26 -0.00    +0.000 A 
DOCKED: ATOM     13  O   UNL     1      36.889  17.163 124.352 -0.28 -0.00    +0.000 OA
DOCKED: ATOM     14  C   UNL     1      39.295  15.166 122.498 -0.39 -0.00    +0.000 C 
DOCKED: ATOM     15  O   UNL     1      39.377  14.088 121.847 -0.83 -0.00    +0.000 OA
DOCKED: ATOM     16  CM  UNL     1      39.206  16.368 123.253 +0.00 -0.00    +0.000 AC
DOCKED: ATOM     17  CM  UNL     1      40.367  18.380 124.210 +0.00 -0.00    +0.000 AC
DOCKED: ATOM     18  CM  UNL     1      41.660  16.781 122.905 +0.00 -0.00    +0.000 AC
DOCKED: ENDROOT
DOCKED: BRANCH   1  16
DOCKED: ATOM     19  C   UNL     1      36.795  14.834 122.766 -0.43 -0.00    +0.000 C 
DOCKED: BRANCH  16  17
DOCKED: ATOM     20  C   UNL     1      36.574  13.721 123.804 -0.50 -0.00    +0.000 C 
DOCKED: BRANCH  17  18
DOCKED: ATOM     21  C   UNL     1      37.367  12.429 123.522 -0.57 -0.00    +0.000 C 
DOCKED: BRANCH  18  19
DOCKED: ATOM     22  C   UNL     1      37.185  11.858 122.101 -0.53 -0.00    +0.000 C 
DOCKED: BRANCH  19  20
DOCKED: ATOM     23  C   UNL     1      36.080  10.797 121.975 -0.56 -0.00    +0.000 C 
DOCKED: BRANCH  20  22
DOCKED: ATOM     24  O   UNL     1      36.780   8.717 121.030 -2.51 -0.00    +0.000 OA
DOCKED: ATOM     25  C   UNL     1      36.624   9.402 122.076 -0.70 -0.00    +0.000 C 
DOCKED: ATOM     26  N   UNL     1      36.933   8.835 123.352 -0.63 -0.00    +0.000 N 
DOCKED: ATOM     27  H   UNL     1      36.802   9.369 124.168 -0.50 -0.00    +0.000 HD
DOCKED: BRANCH  23  25
DOCKED: ATOM     28  O   UNL     1      37.403   7.568 123.447 -2.11 -0.00    +0.000 OA
DOCKED: ATOM     29  H   UNL     1      37.622   7.237 122.561 -0.26 -0.00    +0.000 HD
DOCKED: ENDBRANCH  23  25
DOCKED: ENDBRANCH  20  22
DOCKED: ENDBRANCH  19  20
DOCKED: ENDBRANCH  18  19
DOCKED: ENDBRANCH  17  18
DOCKED: ENDBRANCH  16  17
DOCKED: ENDBRANCH   1  16
DOCKED: TORSDOF 7DOCKED: TER
DOCKED: ENDMDL
________________________________________________________________________________


	BEGINNING GENETIC ALGORITHM DOCKING 43 of 100
Run: 43 Seed: 647304759 1714533632 [ Run 43 of 100 GA/GALS ]
Beginning LAMARCKIAN GENETIC ALGORITHM (LGA), with a maximum of 2500000 energy evaluations.

Final-Value: -14.434


	FINAL GENETIC ALGORITHM DOCKED STATE
	_______________________________________________


Detailed state:  trans 37.992 15.039 124.213 quatxyzw 0.043006 0.156139 0.916216 0.366495 center 0.154 0.111 -0.146 ntor 7 19.6772 -60.8469 175.6541 -153.8331 164.1970 -168.9472 -18.0251
State:	 37.992  15.039 124.213   0.046  0.168  0.985 137.001     19.68  -60.85  175.65 -153.83  164.20 -168.95  -18.03

DOCKED: MODEL       43
DOCKED: USER    Run = 43
DOCKED: USER    DPF = ligand_dock.biased.dpf
DOCKED: USER  
DOCKED: USER    Estimated Free Energy of Binding    =  -11.29 kcal/mol  [=(1)+(2)+(3)-(4)]
DOCKED: USER    Estimated Inhibition Constant, Ki   =    5.31 nM (nanomolar)  [Temperature = 298.15 K]
DOCKED: USER    
DOCKED: USER    (1) Final Intermolecular Energy     =  -13.38 kcal/mol
DOCKED: USER        vdW + Hbond + desolv Energy     =  -13.38 kcal/mol
DOCKED: USER        Electrostatic Energy            =   +0.00 kcal/mol
DOCKED: USER    (2) Final Total Internal Energy     =   -1.06 kcal/mol
DOCKED: USER    (3) Torsional Free Energy           =   +2.09 kcal/mol
DOCKED: USER    (4) Unbound System's Energy  [=(2)] =   -1.06 kcal/mol
DOCKED: USER    
DOCKED: USER    
DOCKED: USER    NEWDPF move ligand.dum.pdbqt
DOCKED: USER    NEWDPF about 0.154000 0.111000 -0.146000
DOCKED: USER    NEWDPF tran0 37.992183 15.039160 124.212771
DOCKED: USER    NEWDPF quaternion0 0.043006 0.156139 0.916216 0.366495
DOCKED: USER    NEWDPF axisangle0 0.046223 0.167816 0.984734 137.000808
DOCKED: USER    NEWDPF quat0 0.046223 0.167816 0.984734 137.000808
DOCKED: USER    NEWDPF dihe0 19.68 -60.85 175.65 -153.83 164.20 -168.95 -18.03 
DOCKED: USER  keepresnum = 1 
DOCKED: USER  
DOCKED: REMARK  Name = 
DOCKED: REMARK  7 active torsions:
DOCKED: REMARK  status: ('A' for Active; 'I' for Inactive)
DOCKED: REMARK    1  A    between atoms: C_2  and  C_5
DOCKED: REMARK    2  A    between atoms: N_3  and  O_4
DOCKED: REMARK    3  A    between atoms: C_5  and  C_6
DOCKED: REMARK    4  A    between atoms: C_6  and  C_7
DOCKED: REMARK    5  A    between atoms: C_7  and  C_8
DOCKED: REMARK    6  A    between atoms: C_8  and  C_9
DOCKED: REMARK    7  A    between atoms: C_9  and  N_10
DOCKED: REMARK                            x       y       z     vdW  Elec       q    Type
DOCKED: REMARK                         _______ _______ _______ _____ _____    ______ ____
DOCKED: USER                              x       y       z     vdW  Elec       q    Type
DOCKED: USER                           _______ _______ _______ _____ _____    ______ ____
DOCKED: ROOT
DOCKED: ATOM      1  N   UNL     1      37.988  15.568 122.811 -0.31 -0.00    +0.000 N 
DOCKED: ATOM      2  C   UNL     1      39.258  15.099 122.319 -0.40 -0.00    +0.000 C 
DOCKED: ATOM      3  C   UNL     1      40.496  15.851 122.623 -0.34 -0.00    +0.000 A 
DOCKED: ATOM      4  C   UNL     1      41.743  15.388 122.168 -0.42 -0.00    +0.000 A 
DOCKED: ATOM      5  C   UNL     1      42.912  16.095 122.456 -0.36 -0.00    +0.000 A 
DOCKED: ATOM      6  C   UNL     1      42.855  17.273 123.199 -0.28 -0.00    +0.000 A 
DOCKED: ATOM      7  C   UNL     1      41.624  17.756 123.663 -0.29 -0.00    +0.000 A 
DOCKED: ATOM      8  C   UNL     1      41.567  18.942 124.410 -0.16 -0.00    +0.000 A 
DOCKED: ATOM      9  C   UNL     1      40.342  19.424 124.869 -0.15 -0.00    +0.000 A 
DOCKED: ATOM     10  C   UNL     1      39.163  18.732 124.592 -0.16 -0.00    +0.000 A 
DOCKED: ATOM     11  C   UNL     1      39.193  17.540 123.845 -0.21 -0.00    +0.000 A 
DOCKED: ATOM     12  C   UNL     1      40.430  17.045 123.376 -0.26 -0.00    +0.000 A 
DOCKED: ATOM     13  O   UNL     1      39.316  14.045 121.626 -0.80 -0.00    +0.000 OA
DOCKED: ATOM     14  C   UNL     1      37.942  16.805 123.552 -0.26 -0.00    +0.000 C 
DOCKED: ATOM     15  O   UNL     1      36.837  17.265 123.951 -0.28 -0.00    +0.000 OA
DOCKED: ATOM     16  CM  UNL     1      39.184  16.298 123.080 +0.00 -0.00    +0.000 AC
DOCKED: ATOM     17  CM  UNL     1      41.677  16.568 122.914 +0.00 -0.00    +0.000 AC
DOCKED: ATOM     18  CM  UNL     1      40.387  18.240 124.126 +0.00 -0.00    +0.000 AC
DOCKED: ENDROOT
DOCKED: BRANCH   1  16
DOCKED: ATOM     19  C   UNL     1      36.768  14.774 122.587 -0.41 -0.00    +0.000 C 
DOCKED: BRANCH  16  17
DOCKED: ATOM     20  C   UNL     1      36.899  13.359 123.178 -0.58 -0.00    +0.000 C 
DOCKED: BRANCH  17  18
DOCKED: ATOM     21  C   UNL     1      37.119  12.254 122.127 -0.57 -0.00    +0.000 C 
DOCKED: BRANCH  18  19
DOCKED: ATOM     22  C   UNL     1      36.126  11.077 122.211 -0.63 -0.00    +0.000 C 
DOCKED: BRANCH  19  20
DOCKED: ATOM     23  C   UNL     1      36.549   9.951 123.167 -0.60 -0.00    +0.000 C 
DOCKED: BRANCH  20  22
DOCKED: ATOM     24  O   UNL     1      36.712   8.588 121.211 -2.37 -0.00    +0.000 OA
DOCKED: ATOM     25  C   UNL     1      36.646   8.625 122.469 -0.77 -0.00    +0.000 C 
DOCKED: ATOM     26  N   UNL     1      36.629   7.408 123.219 -0.75 -0.00    +0.000 N 
DOCKED: ATOM     27  H   UNL     1      36.570   7.440 124.200 -0.40 -0.00    +0.000 HD
DOCKED: BRANCH  23  25
DOCKED: ATOM     28  O   UNL     1      36.694   6.210 122.589 -1.14 -0.00    +0.000 OA
DOCKED: ATOM     29  H   UNL     1      37.053   6.333 121.696 -0.46 -0.00    +0.000 HD
DOCKED: ENDBRANCH  23  25
DOCKED: ENDBRANCH  20  22
DOCKED: ENDBRANCH  19  20
DOCKED: ENDBRANCH  18  19
DOCKED: ENDBRANCH  17  18
DOCKED: ENDBRANCH  16  17
DOCKED: ENDBRANCH   1  16
DOCKED: TORSDOF 7DOCKED: TER
DOCKED: ENDMDL
________________________________________________________________________________


	BEGINNING GENETIC ALGORITHM DOCKING 44 of 100
Run: 44 Seed: 761795767 907116402 [ Run 44 of 100 GA/GALS ]
Beginning LAMARCKIAN GENETIC ALGORITHM (LGA), with a maximum of 2500000 energy evaluations.

Final-Value: -13.247


	FINAL GENETIC ALGORITHM DOCKED STATE
	_______________________________________________


Detailed state:  trans 36.173 13.994 121.603 quatxyzw 0.558462 -0.682582 0.269402 -0.386814 center 0.154 0.111 -0.146 ntor 7 25.9032 -24.6200 -179.9260 -163.1044 84.9834 -12.0960 17.3249
State:	 36.173  13.994 121.603   0.606 -0.740  0.292 -134.487     25.90  -24.62 -179.93 -163.10   84.98  -12.10   17.32

DOCKED: MODEL       44
DOCKED: USER    Run = 44
DOCKED: USER    DPF = ligand_dock.biased.dpf
DOCKED: USER  
DOCKED: USER    Estimated Free Energy of Binding    =   -9.94 kcal/mol  [=(1)+(2)+(3)-(4)]
DOCKED: USER    Estimated Inhibition Constant, Ki   =   51.80 nM (nanomolar)  [Temperature = 298.15 K]
DOCKED: USER    
DOCKED: USER    (1) Final Intermolecular Energy     =  -12.03 kcal/mol
DOCKED: USER        vdW + Hbond + desolv Energy     =  -12.03 kcal/mol
DOCKED: USER        Electrostatic Energy            =   +0.00 kcal/mol
DOCKED: USER    (2) Final Total Internal Energy     =   -1.22 kcal/mol
DOCKED: USER    (3) Torsional Free Energy           =   +2.09 kcal/mol
DOCKED: USER    (4) Unbound System's Energy  [=(2)] =   -1.22 kcal/mol
DOCKED: USER    
DOCKED: USER    
DOCKED: USER    NEWDPF move ligand.dum.pdbqt
DOCKED: USER    NEWDPF about 0.154000 0.111000 -0.146000
DOCKED: USER    NEWDPF tran0 36.173487 13.993607 121.602591
DOCKED: USER    NEWDPF quaternion0 0.558462 -0.682582 0.269402 -0.386814
DOCKED: USER    NEWDPF axisangle0 0.605603 -0.740201 0.292143 -134.487150
DOCKED: USER    NEWDPF quat0 0.605603 -0.740201 0.292143 -134.487150
DOCKED: USER    NEWDPF dihe0 25.90 -24.62 -179.93 -163.10 84.98 -12.10 17.32 
DOCKED: USER  keepresnum = 1 
DOCKED: USER  
DOCKED: REMARK  Name = 
DOCKED: REMARK  7 active torsions:
DOCKED: REMARK  status: ('A' for Active; 'I' for Inactive)
DOCKED: REMARK    1  A    between atoms: C_2  and  C_5
DOCKED: REMARK    2  A    between atoms: N_3  and  O_4
DOCKED: REMARK    3  A    between atoms: C_5  and  C_6
DOCKED: REMARK    4  A    between atoms: C_6  and  C_7
DOCKED: REMARK    5  A    between atoms: C_7  and  C_8
DOCKED: REMARK    6  A    between atoms: C_8  and  C_9
DOCKED: REMARK    7  A    between atoms: C_9  and  N_10
DOCKED: REMARK                            x       y       z     vdW  Elec       q    Type
DOCKED: REMARK                         _______ _______ _______ _____ _____    ______ ____
DOCKED: USER                              x       y       z     vdW  Elec       q    Type
DOCKED: USER                           _______ _______ _______ _____ _____    ______ ____
DOCKED: ROOT
DOCKED: ATOM      1  N   UNL     1      37.184  15.096 121.690 -0.27 -0.00    +0.000 N 
DOCKED: ATOM      2  C   UNL     1      36.355  16.264 121.537 -0.22 -0.00    +0.000 C 
DOCKED: ATOM      3  C   UNL     1      35.949  16.714 120.186 -0.13 -0.00    +0.000 A 
DOCKED: ATOM      4  C   UNL     1      35.119  17.839 120.028 -0.20 -0.00    +0.000 A 
DOCKED: ATOM      5  C   UNL     1      34.733  18.262 118.755 -0.17 -0.00    +0.000 A 
DOCKED: ATOM      6  C   UNL     1      35.168  17.574 117.623 -0.11 -0.00    +0.000 A 
DOCKED: ATOM      7  C   UNL     1      35.996  16.451 117.755 -0.13 -0.00    +0.000 A 
DOCKED: ATOM      8  C   UNL     1      36.434  15.760 116.616 -0.14 -0.00    +0.000 A 
DOCKED: ATOM      9  C   UNL     1      37.259  14.644 116.747 -0.25 -0.00    +0.000 A 
DOCKED: ATOM     10  C   UNL     1      37.657  14.205 118.010 -0.29 -0.00    +0.000 A 
DOCKED: ATOM     11  C   UNL     1      37.231  14.881 119.168 -0.24 -0.00    +0.000 A 
DOCKED: ATOM     12  C   UNL     1      36.394  16.012 119.044 -0.15 -0.00    +0.000 A 
DOCKED: ATOM     13  O   UNL     1      35.975  16.907 122.555 -0.28 -0.00    +0.000 OA
DOCKED: ATOM     14  C   UNL     1      37.651  14.414 120.509 -0.34 -0.00    +0.000 C 
DOCKED: ATOM     15  O   UNL     1      38.419  13.418 120.612 -0.44 -0.00    +0.000 OA
DOCKED: ATOM     16  CM  UNL     1      36.805  15.551 120.392 +0.00 -0.00    +0.000 AC
DOCKED: ATOM     17  CM  UNL     1      35.559  17.142 118.899 +0.00 -0.00    +0.000 AC
DOCKED: ATOM     18  CM  UNL     1      36.829  15.325 117.890 +0.00 -0.00    +0.000 AC
DOCKED: ENDROOT
DOCKED: BRANCH   1  16
DOCKED: ATOM     19  C   UNL     1      37.515  14.595 123.035 -0.46 -0.00    +0.000 C 
DOCKED: BRANCH  16  17
DOCKED: ATOM     20  C   UNL     1      36.521  13.514 123.495 -0.58 -0.00    +0.000 C 
DOCKED: BRANCH  17  18
DOCKED: ATOM     21  C   UNL     1      36.322  12.368 122.483 -0.57 -0.00    +0.000 C 
DOCKED: BRANCH  18  19
DOCKED: ATOM     22  C   UNL     1      35.880  11.028 123.105 -0.69 -0.00    +0.000 C 
DOCKED: BRANCH  19  20
DOCKED: ATOM     23  C   UNL     1      37.025  10.035 123.362 -0.43 -0.00    +0.000 C 
DOCKED: BRANCH  20  22
DOCKED: ATOM     24  O   UNL     1      36.695   8.834 121.322 -2.50 -0.00    +0.000 OA
DOCKED: ATOM     25  C   UNL     1      36.861   8.769 122.570 -0.72 -0.00    +0.000 C 
DOCKED: ATOM     26  N   UNL     1      36.859   7.499 123.226 -0.76 -0.00    +0.000 N 
DOCKED: ATOM     27  H   UNL     1      36.981   7.453 124.201 -0.45 -0.00    +0.000 HD
DOCKED: BRANCH  23  25
DOCKED: ATOM     28  O   UNL     1      36.689   6.358 122.516 -1.17 -0.00    +0.000 OA
DOCKED: ATOM     29  H   UNL     1      36.986   6.498 121.602 -0.35 -0.00    +0.000 HD
DOCKED: ENDBRANCH  23  25
DOCKED: ENDBRANCH  20  22
DOCKED: ENDBRANCH  19  20
DOCKED: ENDBRANCH  18  19
DOCKED: ENDBRANCH  17  18
DOCKED: ENDBRANCH  16  17
DOCKED: ENDBRANCH   1  16
DOCKED: TORSDOF 7DOCKED: TER
DOCKED: ENDMDL
________________________________________________________________________________


	BEGINNING GENETIC ALGORITHM DOCKING 45 of 100
Run: 45 Seed: 127446177 578046045 [ Run 45 of 100 GA/GALS ]
Beginning LAMARCKIAN GENETIC ALGORITHM (LGA), with a maximum of 2500000 energy evaluations.

Final-Value: -15.619


	FINAL GENETIC ALGORITHM DOCKED STATE
	_______________________________________________


Detailed state:  trans 37.798 16.171 121.437 quatxyzw 0.084609 -0.949558 0.037163 0.299666 center 0.154 0.111 -0.146 ntor 7 19.5173 70.1225 87.1588 40.4648 -177.1951 -124.6216 -162.5459
State:	 37.798  16.171 121.437   0.089 -0.995  0.039 145.125     19.52   70.12   87.16   40.46 -177.20 -124.62 -162.55

DOCKED: MODEL       45
DOCKED: USER    Run = 45
DOCKED: USER    DPF = ligand_dock.biased.dpf
DOCKED: USER  
DOCKED: USER    Estimated Free Energy of Binding    =  -12.14 kcal/mol  [=(1)+(2)+(3)-(4)]
DOCKED: USER    Estimated Inhibition Constant, Ki   =    1.25 nM (nanomolar)  [Temperature = 298.15 K]
DOCKED: USER    
DOCKED: USER    (1) Final Intermolecular Energy     =  -14.23 kcal/mol
DOCKED: USER        vdW + Hbond + desolv Energy     =  -14.23 kcal/mol
DOCKED: USER        Electrostatic Energy            =   +0.00 kcal/mol
DOCKED: USER    (2) Final Total Internal Energy     =   -1.39 kcal/mol
DOCKED: USER    (3) Torsional Free Energy           =   +2.09 kcal/mol
DOCKED: USER    (4) Unbound System's Energy  [=(2)] =   -1.39 kcal/mol
DOCKED: USER    
DOCKED: USER    
DOCKED: USER    NEWDPF move ligand.dum.pdbqt
DOCKED: USER    NEWDPF about 0.154000 0.111000 -0.146000
DOCKED: USER    NEWDPF tran0 37.797801 16.171319 121.436953
DOCKED: USER    NEWDPF quaternion0 0.084609 -0.949558 0.037163 0.299666
DOCKED: USER    NEWDPF axisangle0 0.088684 -0.995298 0.038953 145.124884
DOCKED: USER    NEWDPF quat0 0.088684 -0.995298 0.038953 145.124884
DOCKED: USER    NEWDPF dihe0 19.52 70.12 87.16 40.46 -177.20 -124.62 -162.55 
DOCKED: USER  keepresnum = 1 
DOCKED: USER  
DOCKED: REMARK  Name = 
DOCKED: REMARK  7 active torsions:
DOCKED: REMARK  status: ('A' for Active; 'I' for Inactive)
DOCKED: REMARK    1  A    between atoms: C_2  and  C_5
DOCKED: REMARK    2  A    between atoms: N_3  and  O_4
DOCKED: REMARK    3  A    between atoms: C_5  and  C_6
DOCKED: REMARK    4  A    between atoms: C_6  and  C_7
DOCKED: REMARK    5  A    between atoms: C_7  and  C_8
DOCKED: REMARK    6  A    between atoms: C_8  and  C_9
DOCKED: REMARK    7  A    between atoms: C_9  and  N_10
DOCKED: REMARK                            x       y       z     vdW  Elec       q    Type
DOCKED: REMARK                         _______ _______ _______ _____ _____    ______ ____
DOCKED: USER                              x       y       z     vdW  Elec       q    Type
DOCKED: USER                           _______ _______ _______ _____ _____    ______ ____
DOCKED: ROOT
DOCKED: ATOM      1  N   UNL     1      37.727  15.598 122.820 -0.31 -0.00    +0.000 N 
DOCKED: ATOM      2  C   UNL     1      37.771  16.788 123.630 -0.25 -0.00    +0.000 C 
DOCKED: ATOM      3  C   UNL     1      39.071  17.428 123.939 -0.20 -0.00    +0.000 A 
DOCKED: ATOM      4  C   UNL     1      39.122  18.604 124.708 -0.18 -0.00    +0.000 A 
DOCKED: ATOM      5  C   UNL     1      40.346  19.210 124.997 -0.17 -0.00    +0.000 A 
DOCKED: ATOM      6  C   UNL     1      41.535  18.654 124.525 -0.17 -0.00    +0.000 A 
DOCKED: ATOM      7  C   UNL     1      41.509  17.482 123.756 -0.32 -0.00    +0.000 A 
DOCKED: ATOM      8  C   UNL     1      42.705  16.922 123.283 -0.33 -0.00    +0.000 A 
DOCKED: ATOM      9  C   UNL     1      42.680  15.755 122.521 -0.37 -0.00    +0.000 A 
DOCKED: ATOM     10  C   UNL     1      41.466  15.135 122.221 -0.44 -0.00    +0.000 A 
DOCKED: ATOM     11  C   UNL     1      40.254  15.676 122.684 -0.34 -0.00    +0.000 A 
DOCKED: ATOM     12  C   UNL     1      40.270  16.858 123.457 -0.22 -0.00    +0.000 A 
DOCKED: ATOM     13  O   UNL     1      36.702  17.286 124.081 -0.28 -0.00    +0.000 OA
DOCKED: ATOM     14  C   UNL     1      38.966  15.018 122.365 -0.40 -0.00    +0.000 C 
DOCKED: ATOM     15  O   UNL     1      38.959  13.948 121.696 -0.67 -0.00    +0.000 OA
DOCKED: ATOM     16  CM  UNL     1      38.975  16.211 123.140 +0.00 -0.00    +0.000 AC
DOCKED: ATOM     17  CM  UNL     1      40.309  18.040 124.230 +0.00 -0.00    +0.000 AC
DOCKED: ATOM     18  CM  UNL     1      41.481  16.304 122.987 +0.00 -0.00    +0.000 AC
DOCKED: ENDROOT
DOCKED: BRANCH   1  16
DOCKED: ATOM     19  C   UNL     1      36.431  15.013 122.437 -0.31 -0.00    +0.000 C 
DOCKED: BRANCH  16  17
DOCKED: ATOM     20  C   UNL     1      35.909  14.044 123.512 -0.55 -0.00    +0.000 C 
DOCKED: BRANCH  17  18
DOCKED: ATOM     21  C   UNL     1      36.834  12.841 123.781 -0.55 -0.00    +0.000 C 
DOCKED: BRANCH  18  19
DOCKED: ATOM     22  C   UNL     1      36.306  11.490 123.256 -0.71 -0.00    +0.000 C 
DOCKED: BRANCH  19  20
DOCKED: ATOM     23  C   UNL     1      37.031  10.962 122.008 -0.55 -0.00    +0.000 C 
DOCKED: BRANCH  20  22
DOCKED: ATOM     24  O   UNL     1      37.031   8.871 120.851 -2.71 -0.00    +0.000 OA
DOCKED: ATOM     25  C   UNL     1      37.055   9.461 121.964 -0.63 -0.00    +0.000 C 
DOCKED: ATOM     26  N   UNL     1      37.070   8.700 123.175 -0.69 -0.00    +0.000 N 
DOCKED: ATOM     27  H   UNL     1      37.080   9.164 124.042 -0.53 -0.00    +0.000 HD
DOCKED: BRANCH  23  25
DOCKED: ATOM     28  O   UNL     1      37.069   7.347 123.137 -2.16 -0.00    +0.000 OA
DOCKED: ATOM     29  H   UNL     1      37.364   7.047 122.262 -0.19 -0.00    +0.000 HD
DOCKED: ENDBRANCH  23  25
DOCKED: ENDBRANCH  20  22
DOCKED: ENDBRANCH  19  20
DOCKED: ENDBRANCH  18  19
DOCKED: ENDBRANCH  17  18
DOCKED: ENDBRANCH  16  17
DOCKED: ENDBRANCH   1  16
DOCKED: TORSDOF 7DOCKED: TER
DOCKED: ENDMDL
________________________________________________________________________________


	BEGINNING GENETIC ALGORITHM DOCKING 46 of 100
Run: 46 Seed: 1166703751 1177517832 [ Run 46 of 100 GA/GALS ]
Beginning LAMARCKIAN GENETIC ALGORITHM (LGA), with a maximum of 2500000 energy evaluations.

Final-Value: -13.227


	FINAL GENETIC ALGORITHM DOCKED STATE
	_______________________________________________


Detailed state:  trans 38.141 17.089 120.687 quatxyzw -0.186269 0.807338 0.160200 -0.536513 center 0.154 0.111 -0.146 ntor 7 3.6015 -109.7076 121.7867 -85.6356 110.3942 -165.9104 -176.1450
State:	 38.141  17.089 120.687  -0.221  0.957  0.190 -115.107      3.60 -109.71  121.79  -85.64  110.39 -165.91 -176.14

DOCKED: MODEL       46
DOCKED: USER    Run = 46
DOCKED: USER    DPF = ligand_dock.biased.dpf
DOCKED: USER  
DOCKED: USER    Estimated Free Energy of Binding    =   -9.88 kcal/mol  [=(1)+(2)+(3)-(4)]
DOCKED: USER    Estimated Inhibition Constant, Ki   =   57.47 nM (nanomolar)  [Temperature = 298.15 K]
DOCKED: USER    
DOCKED: USER    (1) Final Intermolecular Energy     =  -11.97 kcal/mol
DOCKED: USER        vdW + Hbond + desolv Energy     =  -11.97 kcal/mol
DOCKED: USER        Electrostatic Energy            =   +0.00 kcal/mol
DOCKED: USER    (2) Final Total Internal Energy     =   -1.26 kcal/mol
DOCKED: USER    (3) Torsional Free Energy           =   +2.09 kcal/mol
DOCKED: USER    (4) Unbound System's Energy  [=(2)] =   -1.26 kcal/mol
DOCKED: USER    
DOCKED: USER    
DOCKED: USER    NEWDPF move ligand.dum.pdbqt
DOCKED: USER    NEWDPF about 0.154000 0.111000 -0.146000
DOCKED: USER    NEWDPF tran0 38.141111 17.088634 120.686948
DOCKED: USER    NEWDPF quaternion0 -0.186269 0.807338 0.160200 -0.536513
DOCKED: USER    NEWDPF axisangle0 -0.220726 0.956683 0.189834 -115.106861
DOCKED: USER    NEWDPF quat0 -0.220726 0.956683 0.189834 -115.106861
DOCKED: USER    NEWDPF dihe0 3.60 -109.71 121.79 -85.64 110.39 -165.91 -176.14 
DOCKED: USER  keepresnum = 1 
DOCKED: USER  
DOCKED: REMARK  Name = 
DOCKED: REMARK  7 active torsions:
DOCKED: REMARK  status: ('A' for Active; 'I' for Inactive)
DOCKED: REMARK    1  A    between atoms: C_2  and  C_5
DOCKED: REMARK    2  A    between atoms: N_3  and  O_4
DOCKED: REMARK    3  A    between atoms: C_5  and  C_6
DOCKED: REMARK    4  A    between atoms: C_6  and  C_7
DOCKED: REMARK    5  A    between atoms: C_7  and  C_8
DOCKED: REMARK    6  A    between atoms: C_8  and  C_9
DOCKED: REMARK    7  A    between atoms: C_9  and  N_10
DOCKED: REMARK                            x       y       z     vdW  Elec       q    Type
DOCKED: REMARK                         _______ _______ _______ _____ _____    ______ ____
DOCKED: USER                              x       y       z     vdW  Elec       q    Type
DOCKED: USER                           _______ _______ _______ _____ _____    ______ ____
DOCKED: ROOT
DOCKED: ATOM      1  N   UNL     1      37.765  16.002 121.648 -0.19 -0.00    +0.000 N 
DOCKED: ATOM      2  C   UNL     1      36.980  16.727 122.614 -0.25 -0.00    +0.000 C 
DOCKED: ATOM      3  C   UNL     1      37.650  17.483 123.697 -0.20 -0.00    +0.000 A 
DOCKED: ATOM      4  C   UNL     1      36.894  18.214 124.631 -0.19 -0.00    +0.000 A 
DOCKED: ATOM      5  C   UNL     1      37.524  18.929 125.650 -0.15 -0.00    +0.000 A 
DOCKED: ATOM      6  C   UNL     1      38.915  18.926 125.756 -0.17 -0.00    +0.000 A 
DOCKED: ATOM      7  C   UNL     1      39.690  18.204 124.838 -0.23 -0.00    +0.000 A 
DOCKED: ATOM      8  C   UNL     1      41.088  18.201 124.945 -0.29 -0.00    +0.000 A 
DOCKED: ATOM      9  C   UNL     1      41.860  17.481 124.033 -0.24 -0.00    +0.000 A 
DOCKED: ATOM     10  C   UNL     1      41.249  16.759 123.007 -0.32 -0.00    +0.000 A 
DOCKED: ATOM     11  C   UNL     1      39.848  16.747 122.878 -0.24 -0.00    +0.000 A 
DOCKED: ATOM     12  C   UNL     1      39.059  17.474 123.798 -0.21 -0.00    +0.000 A 
DOCKED: ATOM     13  O   UNL     1      35.720  16.718 122.540 -0.31 -0.00    +0.000 OA
DOCKED: ATOM     14  C   UNL     1      39.200  15.983 121.788 -0.26 -0.00    +0.000 C 
DOCKED: ATOM     15  O   UNL     1      39.908  15.315 120.986 -0.30 -0.00    +0.000 OA
DOCKED: ATOM     16  CM  UNL     1      38.400  16.716 122.708 +0.00 -0.00    +0.000 AC
DOCKED: ATOM     17  CM  UNL     1      38.289  18.206 124.728 +0.00 -0.00    +0.000 AC
DOCKED: ATOM     18  CM  UNL     1      40.466  17.478 123.917 +0.00 -0.00    +0.000 AC
DOCKED: ENDROOT
DOCKED: BRANCH   1  16
DOCKED: ATOM     19  C   UNL     1      37.106  15.325 120.518 -0.24 -0.00    +0.000 C 
DOCKED: BRANCH  16  17
DOCKED: ATOM     20  C   UNL     1      36.953  13.816 120.775 -0.25 -0.00    +0.000 C 
DOCKED: BRANCH  17  18
DOCKED: ATOM     21  C   UNL     1      37.985  12.942 120.036 -0.40 -0.00    +0.000 C 
DOCKED: BRANCH  18  19
DOCKED: ATOM     22  C   UNL     1      37.852  11.428 120.297 -0.30 -0.00    +0.000 C 
DOCKED: BRANCH  19  20
DOCKED: ATOM     23  C   UNL     1      37.064  11.064 121.565 -0.52 -0.00    +0.000 C 
DOCKED: BRANCH  20  22
DOCKED: ATOM     24  O   UNL     1      37.069   8.789 120.834 -2.67 -0.00    +0.000 OA
DOCKED: ATOM     25  C   UNL     1      37.047   9.583 121.812 -0.60 -0.00    +0.000 C 
DOCKED: ATOM     26  N   UNL     1      36.972   9.072 123.146 -0.65 -0.00    +0.000 N 
DOCKED: ATOM     27  H   UNL     1      36.947   9.695 123.907 -0.46 -0.00    +0.000 HD
DOCKED: BRANCH  23  25
DOCKED: ATOM     28  O   UNL     1      36.934   7.736 123.369 -2.24 -0.00    +0.000 OA
DOCKED: ATOM     29  H   UNL     1      37.024   7.264 122.526 -0.08 -0.00    +0.000 HD
DOCKED: ENDBRANCH  23  25
DOCKED: ENDBRANCH  20  22
DOCKED: ENDBRANCH  19  20
DOCKED: ENDBRANCH  18  19
DOCKED: ENDBRANCH  17  18
DOCKED: ENDBRANCH  16  17
DOCKED: ENDBRANCH   1  16
DOCKED: TORSDOF 7DOCKED: TER
DOCKED: ENDMDL
________________________________________________________________________________


	BEGINNING GENETIC ALGORITHM DOCKING 47 of 100
Run: 47 Seed: 466906018 774907154 [ Run 47 of 100 GA/GALS ]
Beginning LAMARCKIAN GENETIC ALGORITHM (LGA), with a maximum of 2500000 energy evaluations.

Final-Value: -14.958


	FINAL GENETIC ALGORITHM DOCKED STATE
	_______________________________________________


Detailed state:  trans 36.715 15.404 122.245 quatxyzw 0.657070 -0.664384 -0.104585 0.340463 center 0.154 0.111 -0.146 ntor 7 17.7728 -116.5108 142.3130 -5.0895 -150.8012 -170.4518 66.0296
State:	 36.715  15.404 122.245   0.699 -0.707 -0.111 140.190     17.77 -116.51  142.31   -5.09 -150.80 -170.45   66.03

DOCKED: MODEL       47
DOCKED: USER    Run = 47
DOCKED: USER    DPF = ligand_dock.biased.dpf
DOCKED: USER  
DOCKED: USER    Estimated Free Energy of Binding    =  -11.81 kcal/mol  [=(1)+(2)+(3)-(4)]
DOCKED: USER    Estimated Inhibition Constant, Ki   =    2.21 nM (nanomolar)  [Temperature = 298.15 K]
DOCKED: USER    
DOCKED: USER    (1) Final Intermolecular Energy     =  -13.90 kcal/mol
DOCKED: USER        vdW + Hbond + desolv Energy     =  -13.90 kcal/mol
DOCKED: USER        Electrostatic Energy            =   +0.00 kcal/mol
DOCKED: USER    (2) Final Total Internal Energy     =   -1.06 kcal/mol
DOCKED: USER    (3) Torsional Free Energy           =   +2.09 kcal/mol
DOCKED: USER    (4) Unbound System's Energy  [=(2)] =   -1.06 kcal/mol
DOCKED: USER    
DOCKED: USER    
DOCKED: USER    NEWDPF move ligand.dum.pdbqt
DOCKED: USER    NEWDPF about 0.154000 0.111000 -0.146000
DOCKED: USER    NEWDPF tran0 36.714842 15.403541 122.244766
DOCKED: USER    NEWDPF quaternion0 0.657070 -0.664384 -0.104585 0.340463
DOCKED: USER    NEWDPF axisangle0 0.698819 -0.706598 -0.111230 140.189877
DOCKED: USER    NEWDPF quat0 0.698819 -0.706598 -0.111230 140.189877
DOCKED: USER    NEWDPF dihe0 17.77 -116.51 142.31 -5.09 -150.80 -170.45 66.03 
DOCKED: USER  keepresnum = 1 
DOCKED: USER  
DOCKED: REMARK  Name = 
DOCKED: REMARK  7 active torsions:
DOCKED: REMARK  status: ('A' for Active; 'I' for Inactive)
DOCKED: REMARK    1  A    between atoms: C_2  and  C_5
DOCKED: REMARK    2  A    between atoms: N_3  and  O_4
DOCKED: REMARK    3  A    between atoms: C_5  and  C_6
DOCKED: REMARK    4  A    between atoms: C_6  and  C_7
DOCKED: REMARK    5  A    between atoms: C_7  and  C_8
DOCKED: REMARK    6  A    between atoms: C_8  and  C_9
DOCKED: REMARK    7  A    between atoms: C_9  and  N_10
DOCKED: REMARK                            x       y       z     vdW  Elec       q    Type
DOCKED: REMARK                         _______ _______ _______ _____ _____    ______ ____
DOCKED: USER                              x       y       z     vdW  Elec       q    Type
DOCKED: USER                           _______ _______ _______ _____ _____    ______ ____
DOCKED: ROOT
DOCKED: ATOM      1  N   UNL     1      36.972  15.135 123.696 -0.39 -0.00    +0.000 N 
DOCKED: ATOM      2  C   UNL     1      35.690  15.438 124.280 -0.43 -0.00    +0.000 C 
DOCKED: ATOM      3  C   UNL     1      35.326  16.842 124.581 -0.35 -0.00    +0.000 A 
DOCKED: ATOM      4  C   UNL     1      34.067  17.151 125.128 -0.40 -0.00    +0.000 A 
DOCKED: ATOM      5  C   UNL     1      33.722  18.473 125.410 -0.31 -0.00    +0.000 A 
DOCKED: ATOM      6  C   UNL     1      34.623  19.506 125.154 -0.16 -0.00    +0.000 A 
DOCKED: ATOM      7  C   UNL     1      35.884  19.223 124.610 -0.19 -0.00    +0.000 A 
DOCKED: ATOM      8  C   UNL     1      36.791  20.262 124.353 -0.12 -0.00    +0.000 A 
DOCKED: ATOM      9  C   UNL     1      38.045  19.980 123.815 -0.07 -0.00    +0.000 A 
DOCKED: ATOM     10  C   UNL     1      38.410  18.665 123.526 -0.12 -0.00    +0.000 A 
DOCKED: ATOM     11  C   UNL     1      37.518  17.605 123.774 -0.20 -0.00    +0.000 A 
DOCKED: ATOM     12  C   UNL     1      36.245  17.882 124.319 -0.23 -0.00    +0.000 A 
DOCKED: ATOM     13  O   UNL     1      34.876  14.508 124.536 -0.53 -0.00    +0.000 OA
DOCKED: ATOM     14  C   UNL     1      37.905  16.209 123.466 -0.29 -0.00    +0.000 C 
DOCKED: ATOM     15  O   UNL     1      39.053  15.965 123.003 -0.33 -0.00    +0.000 OA
DOCKED: ATOM     16  CM  UNL     1      36.619  16.481 124.011 -0.01 -0.00    +0.000 AC
DOCKED: ATOM     17  CM  UNL     1      34.978  18.180 124.867 -0.41 -0.00    +0.000 AC
DOCKED: ATOM     18  CM  UNL     1      37.149  18.936 124.066 +0.00 -0.00    +0.000 AC
DOCKED: ENDROOT
DOCKED: BRANCH   1  16
DOCKED: ATOM     19  C   UNL     1      37.300  13.751 123.312 -0.52 -0.00    +0.000 C 
DOCKED: BRANCH  16  17
DOCKED: ATOM     20  C   UNL     1      38.107  13.705 122.003 -0.46 -0.00    +0.000 C 
DOCKED: BRANCH  17  18
DOCKED: ATOM     21  C   UNL     1      37.305  13.207 120.785 -0.46 -0.00    +0.000 C 
DOCKED: BRANCH  18  19
DOCKED: ATOM     22  C   UNL     1      37.189  11.673 120.671 -0.42 -0.00    +0.000 C 
DOCKED: BRANCH  19  20
DOCKED: ATOM     23  C   UNL     1      36.478  10.997 121.854 -0.56 -0.00    +0.000 C 
DOCKED: BRANCH  20  22
DOCKED: ATOM     24  O   UNL     1      37.062   8.850 120.982 -2.71 -0.00    +0.000 OA
DOCKED: ATOM     25  C   UNL     1      36.883   9.559 122.008 -0.65 -0.00    +0.000 C 
DOCKED: ATOM     26  N   UNL     1      37.033   8.984 123.308 -0.62 -0.00    +0.000 N 
DOCKED: ATOM     27  H   UNL     1      36.884   9.538 124.107 -0.51 -0.00    +0.000 HD
DOCKED: BRANCH  23  25
DOCKED: ATOM     28  O   UNL     1      37.376   7.681 123.448 -2.18 -0.00    +0.000 OA
DOCKED: ATOM     29  H   UNL     1      37.753   7.354 122.616 -0.29 -0.00    +0.000 HD
DOCKED: ENDBRANCH  23  25
DOCKED: ENDBRANCH  20  22
DOCKED: ENDBRANCH  19  20
DOCKED: ENDBRANCH  18  19
DOCKED: ENDBRANCH  17  18
DOCKED: ENDBRANCH  16  17
DOCKED: ENDBRANCH   1  16
DOCKED: TORSDOF 7DOCKED: TER
DOCKED: ENDMDL
________________________________________________________________________________


	BEGINNING GENETIC ALGORITHM DOCKING 48 of 100
Run: 48 Seed: 891805907 551718921 [ Run 48 of 100 GA/GALS ]
Beginning LAMARCKIAN GENETIC ALGORITHM (LGA), with a maximum of 2500000 energy evaluations.

Final-Value: -14.850


	FINAL GENETIC ALGORITHM DOCKED STATE
	_______________________________________________


Detailed state:  trans 38.606 15.542 123.944 quatxyzw -0.000737 0.408825 0.787875 0.460559 center 0.154 0.111 -0.146 ntor 7 6.1932 124.6403 142.5172 -158.8253 -52.2460 132.1858 61.9207
State:	 38.606  15.542 123.944  -0.001  0.461  0.888 125.154      6.19  124.64  142.52 -158.83  -52.25  132.19   61.92

DOCKED: MODEL       48
DOCKED: USER    Run = 48
DOCKED: USER    DPF = ligand_dock.biased.dpf
DOCKED: USER  
DOCKED: USER    Estimated Free Energy of Binding    =  -11.63 kcal/mol  [=(1)+(2)+(3)-(4)]
DOCKED: USER    Estimated Inhibition Constant, Ki   =    2.97 nM (nanomolar)  [Temperature = 298.15 K]
DOCKED: USER    
DOCKED: USER    (1) Final Intermolecular Energy     =  -13.72 kcal/mol
DOCKED: USER        vdW + Hbond + desolv Energy     =  -13.72 kcal/mol
DOCKED: USER        Electrostatic Energy            =   +0.00 kcal/mol
DOCKED: USER    (2) Final Total Internal Energy     =   -1.13 kcal/mol
DOCKED: USER    (3) Torsional Free Energy           =   +2.09 kcal/mol
DOCKED: USER    (4) Unbound System's Energy  [=(2)] =   -1.13 kcal/mol
DOCKED: USER    
DOCKED: USER    
DOCKED: USER    NEWDPF move ligand.dum.pdbqt
DOCKED: USER    NEWDPF about 0.154000 0.111000 -0.146000
DOCKED: USER    NEWDPF tran0 38.606130 15.541529 123.944002
DOCKED: USER    NEWDPF quaternion0 -0.000737 0.408825 0.787875 0.460559
DOCKED: USER    NEWDPF axisangle0 -0.000830 0.460581 0.887617 125.153592
DOCKED: USER    NEWDPF quat0 -0.000830 0.460581 0.887617 125.153592
DOCKED: USER    NEWDPF dihe0 6.19 124.64 142.52 -158.83 -52.25 132.19 61.92 
DOCKED: USER  keepresnum = 1 
DOCKED: USER  
DOCKED: REMARK  Name = 
DOCKED: REMARK  7 active torsions:
DOCKED: REMARK  status: ('A' for Active; 'I' for Inactive)
DOCKED: REMARK    1  A    between atoms: C_2  and  C_5
DOCKED: REMARK    2  A    between atoms: N_3  and  O_4
DOCKED: REMARK    3  A    between atoms: C_5  and  C_6
DOCKED: REMARK    4  A    between atoms: C_6  and  C_7
DOCKED: REMARK    5  A    between atoms: C_7  and  C_8
DOCKED: REMARK    6  A    between atoms: C_8  and  C_9
DOCKED: REMARK    7  A    between atoms: C_9  and  N_10
DOCKED: REMARK                            x       y       z     vdW  Elec       q    Type
DOCKED: REMARK                         _______ _______ _______ _____ _____    ______ ____
DOCKED: USER                              x       y       z     vdW  Elec       q    Type
DOCKED: USER                           _______ _______ _______ _____ _____    ______ ____
DOCKED: ROOT
DOCKED: ATOM      1  N   UNL     1      38.876  15.417 122.476 -0.31 -0.00    +0.000 N 
DOCKED: ATOM      2  C   UNL     1      40.307  15.250 122.456 -0.43 -0.00    +0.000 C 
DOCKED: ATOM      3  C   UNL     1      41.194  16.433 122.541 -0.32 -0.00    +0.000 A 
DOCKED: ATOM      4  C   UNL     1      42.591  16.278 122.547 -0.40 -0.00    +0.000 A 
DOCKED: ATOM      5  C   UNL     1      43.428  17.393 122.630 -0.30 -0.00    +0.000 A 
DOCKED: ATOM      6  C   UNL     1      42.886  18.675 122.706 -0.16 -0.00    +0.000 A 
DOCKED: ATOM      7  C   UNL     1      41.495  18.855 122.700 -0.12 -0.00    +0.000 A 
DOCKED: ATOM      8  C   UNL     1      40.951  20.145 122.776 -0.04 -0.00    +0.000 A 
DOCKED: ATOM      9  C   UNL     1      39.568  20.324 122.768 -0.03 -0.00    +0.000 A 
DOCKED: ATOM     10  C   UNL     1      38.715  19.223 122.685 -0.06 -0.00    +0.000 A 
DOCKED: ATOM     11  C   UNL     1      39.237  17.919 122.609 -0.12 -0.00    +0.000 A 
DOCKED: ATOM     12  C   UNL     1      40.636  17.729 122.617 -0.17 -0.00    +0.000 A 
DOCKED: ATOM     13  O   UNL     1      40.807  14.094 122.365 -1.08 +0.00    +0.000 OA
DOCKED: ATOM     14  C   UNL     1      38.331  16.750 122.523 -0.22 -0.00    +0.000 C 
DOCKED: ATOM     15  O   UNL     1      37.082  16.928 122.491 -0.21 -0.00    +0.000 OA
DOCKED: ATOM     16  CM  UNL     1      39.739  16.552 122.535 +0.00 -0.00    +0.000 AC
DOCKED: ATOM     17  CM  UNL     1      42.038  17.560 122.624 +0.00 -0.00    +0.000 AC
DOCKED: ATOM     18  CM  UNL     1      40.100  19.033 122.692 +0.00 -0.00    +0.000 AC
DOCKED: ENDROOT
DOCKED: BRANCH   1  16
DOCKED: ATOM     19  C   UNL     1      37.994  14.237 122.483 -0.47 -0.00    +0.000 C 
DOCKED: BRANCH  16  17
DOCKED: ATOM     20  C   UNL     1      36.820  14.416 123.460 -0.49 -0.00    +0.000 C 
DOCKED: BRANCH  17  18
DOCKED: ATOM     21  C   UNL     1      36.087  13.107 123.812 -0.60 -0.00    +0.000 C 
DOCKED: BRANCH  18  19
DOCKED: ATOM     22  C   UNL     1      36.867  11.820 123.476 -0.69 -0.00    +0.000 C 
DOCKED: BRANCH  19  20
DOCKED: ATOM     23  C   UNL     1      36.562  11.232 122.089 -0.63 -0.00    +0.000 C 
DOCKED: BRANCH  20  22
DOCKED: ATOM     24  O   UNL     1      37.063   9.214 120.911 -2.74 -0.00    +0.000 OA
DOCKED: ATOM     25  C   UNL     1      36.845   9.759 122.026 -0.64 -0.00    +0.000 C 
DOCKED: ATOM     26  N   UNL     1      36.834   8.968 123.217 -0.64 -0.00    +0.000 N 
DOCKED: ATOM     27  H   UNL     1      36.655   9.395 124.085 -0.45 -0.00    +0.000 HD
DOCKED: BRANCH  23  25
DOCKED: ATOM     28  O   UNL     1      37.066   7.635 123.160 -2.30 -0.00    +0.000 OA
DOCKED: ATOM     29  H   UNL     1      37.319   7.388 122.256 -0.12 -0.00    +0.000 HD
DOCKED: ENDBRANCH  23  25
DOCKED: ENDBRANCH  20  22
DOCKED: ENDBRANCH  19  20
DOCKED: ENDBRANCH  18  19
DOCKED: ENDBRANCH  17  18
DOCKED: ENDBRANCH  16  17
DOCKED: ENDBRANCH   1  16
DOCKED: TORSDOF 7DOCKED: TER
DOCKED: ENDMDL
________________________________________________________________________________


	BEGINNING GENETIC ALGORITHM DOCKING 49 of 100
Run: 49 Seed: 326029766 918768927 [ Run 49 of 100 GA/GALS ]
Beginning LAMARCKIAN GENETIC ALGORITHM (LGA), with a maximum of 2500000 energy evaluations.

Final-Value: -14.041


	FINAL GENETIC ALGORITHM DOCKED STATE
	_______________________________________________


Detailed state:  trans 39.059 16.148 121.746 quatxyzw -0.214841 0.929539 -0.224613 -0.198368 center 0.154 0.111 -0.146 ntor 7 5.3603 -164.4137 -176.6162 142.4162 105.1738 75.9796 62.0862
State:	 39.059  16.148 121.746  -0.219  0.948 -0.229 -157.117      5.36 -164.41 -176.62  142.42  105.17   75.98   62.09

DOCKED: MODEL       49
DOCKED: USER    Run = 49
DOCKED: USER    DPF = ligand_dock.biased.dpf
DOCKED: USER  
DOCKED: USER    Estimated Free Energy of Binding    =  -10.96 kcal/mol  [=(1)+(2)+(3)-(4)]
DOCKED: USER    Estimated Inhibition Constant, Ki   =    9.32 nM (nanomolar)  [Temperature = 298.15 K]
DOCKED: USER    
DOCKED: USER    (1) Final Intermolecular Energy     =  -13.04 kcal/mol
DOCKED: USER        vdW + Hbond + desolv Energy     =  -13.04 kcal/mol
DOCKED: USER        Electrostatic Energy            =   +0.00 kcal/mol
DOCKED: USER    (2) Final Total Internal Energy     =   -1.00 kcal/mol
DOCKED: USER    (3) Torsional Free Energy           =   +2.09 kcal/mol
DOCKED: USER    (4) Unbound System's Energy  [=(2)] =   -1.00 kcal/mol
DOCKED: USER    
DOCKED: USER    
DOCKED: USER    NEWDPF move ligand.dum.pdbqt
DOCKED: USER    NEWDPF about 0.154000 0.111000 -0.146000
DOCKED: USER    NEWDPF tran0 39.058858 16.148201 121.745935
DOCKED: USER    NEWDPF quaternion0 -0.214841 0.929539 -0.224613 -0.198368
DOCKED: USER    NEWDPF axisangle0 -0.219197 0.948385 -0.229167 -157.116877
DOCKED: USER    NEWDPF quat0 -0.219197 0.948385 -0.229167 -157.116877
DOCKED: USER    NEWDPF dihe0 5.36 -164.41 -176.62 142.42 105.17 75.98 62.09 
DOCKED: USER  keepresnum = 1 
DOCKED: USER  
DOCKED: REMARK  Name = 
DOCKED: REMARK  7 active torsions:
DOCKED: REMARK  status: ('A' for Active; 'I' for Inactive)
DOCKED: REMARK    1  A    between atoms: C_2  and  C_5
DOCKED: REMARK    2  A    between atoms: N_3  and  O_4
DOCKED: REMARK    3  A    between atoms: C_5  and  C_6
DOCKED: REMARK    4  A    between atoms: C_6  and  C_7
DOCKED: REMARK    5  A    between atoms: C_7  and  C_8
DOCKED: REMARK    6  A    between atoms: C_8  and  C_9
DOCKED: REMARK    7  A    between atoms: C_9  and  N_10
DOCKED: REMARK                            x       y       z     vdW  Elec       q    Type
DOCKED: REMARK                         _______ _______ _______ _____ _____    ______ ____
DOCKED: USER                              x       y       z     vdW  Elec       q    Type
DOCKED: USER                           _______ _______ _______ _____ _____    ______ ____
DOCKED: ROOT
DOCKED: ATOM      1  N   UNL     1      39.253  16.253 123.228 -0.24 -0.00    +0.000 N 
DOCKED: ATOM      2  C   UNL     1      39.204  17.679 123.428 -0.22 -0.00    +0.000 C 
DOCKED: ATOM      3  C   UNL     1      40.410  18.504 123.189 -0.14 -0.00    +0.000 A 
DOCKED: ATOM      4  C   UNL     1      40.365  19.899 123.357 -0.06 -0.00    +0.000 A 
DOCKED: ATOM      5  C   UNL     1      41.500  20.679 123.130 -0.05 -0.00    +0.000 A 
DOCKED: ATOM      6  C   UNL     1      42.696  20.081 122.733 -0.08 -0.00    +0.000 A 
DOCKED: ATOM      7  C   UNL     1      42.766  18.692 122.559 -0.15 -0.00    +0.000 A 
DOCKED: ATOM      8  C   UNL     1      43.969  18.090 122.160 -0.19 -0.00    +0.000 A 
DOCKED: ATOM      9  C   UNL     1      44.039  16.709 121.990 -0.29 -0.00    +0.000 A 
DOCKED: ATOM     10  C   UNL     1      42.916  15.912 122.213 -0.33 -0.00    +0.000 A 
DOCKED: ATOM     11  C   UNL     1      41.698  16.491 122.613 -0.35 -0.00    +0.000 A 
DOCKED: ATOM     12  C   UNL     1      41.618  17.891 122.788 -0.20 -0.00    +0.000 A 
DOCKED: ATOM     13  O   UNL     1      38.133  18.226 123.809 -0.18 -0.00    +0.000 OA
DOCKED: ATOM     14  C   UNL     1      40.505  15.646 122.848 -0.34 -0.00    +0.000 C 
DOCKED: ATOM     15  O   UNL     1      40.589  14.394 122.715 -1.05 -0.00    +0.000 OA
DOCKED: ATOM     16  CM  UNL     1      40.416  17.055 123.021 +0.00 -0.00    +0.000 AC
DOCKED: ATOM     17  CM  UNL     1      41.559  19.291 122.959 +0.00 -0.00    +0.000 AC
DOCKED: ATOM     18  CM  UNL     1      42.835  17.297 122.387 +0.00 -0.00    +0.000 AC
DOCKED: ENDROOT
DOCKED: BRANCH   1  16
DOCKED: ATOM     19  C   UNL     1      38.033  15.443 123.377 -0.26 -0.00    +0.000 C 
DOCKED: BRANCH  16  17
DOCKED: ATOM     20  C   UNL     1      37.923  14.378 122.272 -0.44 -0.00    +0.000 C 
DOCKED: BRANCH  17  18
DOCKED: ATOM     21  C   UNL     1      37.405  13.012 122.761 -0.57 -0.00    +0.000 C 
DOCKED: BRANCH  18  19
DOCKED: ATOM     22  C   UNL     1      37.156  11.978 121.643 -0.54 -0.00    +0.000 C 
DOCKED: BRANCH  19  20
DOCKED: ATOM     23  C   UNL     1      36.061  10.947 121.959 -0.56 -0.00    +0.000 C 
DOCKED: BRANCH  20  22
DOCKED: ATOM     24  O   UNL     1      36.738   8.850 121.035 -2.63 -0.00    +0.000 OA
DOCKED: ATOM     25  C   UNL     1      36.613   9.555 122.072 -0.69 -0.00    +0.000 C 
DOCKED: ATOM     26  N   UNL     1      36.965   9.016 123.348 -0.60 -0.00    +0.000 N 
DOCKED: ATOM     27  H   UNL     1      36.859   9.566 124.157 -0.52 -0.00    +0.000 HD
DOCKED: BRANCH  23  25
DOCKED: ATOM     28  O   UNL     1      37.443   7.753 123.453 -2.17 -0.00    +0.000 OA
DOCKED: ATOM     29  H   UNL     1      37.566   7.378 122.567 -0.20 -0.00    +0.000 HD
DOCKED: ENDBRANCH  23  25
DOCKED: ENDBRANCH  20  22
DOCKED: ENDBRANCH  19  20
DOCKED: ENDBRANCH  18  19
DOCKED: ENDBRANCH  17  18
DOCKED: ENDBRANCH  16  17
DOCKED: ENDBRANCH   1  16
DOCKED: TORSDOF 7DOCKED: TER
DOCKED: ENDMDL
________________________________________________________________________________


	BEGINNING GENETIC ALGORITHM DOCKING 50 of 100
Run: 50 Seed: 1998480345 2145815704 [ Run 50 of 100 GA/GALS ]
Beginning LAMARCKIAN GENETIC ALGORITHM (LGA), with a maximum of 2500000 energy evaluations.

Final-Value: -14.735


	FINAL GENETIC ALGORITHM DOCKED STATE
	_______________________________________________


Detailed state:  trans 36.428 13.556 121.700 quatxyzw -0.475148 0.691551 -0.230506 0.492808 center 0.154 0.111 -0.146 ntor 7 -0.4494 41.5512 133.7526 -128.9224 5.1132 -10.5930 -13.5583
State:	 36.428  13.556 121.700  -0.546  0.795 -0.265 120.949     -0.45   41.55  133.75 -128.92    5.11  -10.59  -13.56

DOCKED: MODEL       50
DOCKED: USER    Run = 50
DOCKED: USER    DPF = ligand_dock.biased.dpf
DOCKED: USER  
DOCKED: USER    Estimated Free Energy of Binding    =  -11.02 kcal/mol  [=(1)+(2)+(3)-(4)]
DOCKED: USER    Estimated Inhibition Constant, Ki   =    8.33 nM (nanomolar)  [Temperature = 298.15 K]
DOCKED: USER    
DOCKED: USER    (1) Final Intermolecular Energy     =  -13.11 kcal/mol
DOCKED: USER        vdW + Hbond + desolv Energy     =  -13.11 kcal/mol
DOCKED: USER        Electrostatic Energy            =   +0.00 kcal/mol
DOCKED: USER    (2) Final Total Internal Energy     =   -1.62 kcal/mol
DOCKED: USER    (3) Torsional Free Energy           =   +2.09 kcal/mol
DOCKED: USER    (4) Unbound System's Energy  [=(2)] =   -1.62 kcal/mol
DOCKED: USER    
DOCKED: USER    
DOCKED: USER    NEWDPF move ligand.dum.pdbqt
DOCKED: USER    NEWDPF about 0.154000 0.111000 -0.146000
DOCKED: USER    NEWDPF tran0 36.427704 13.555939 121.699607
DOCKED: USER    NEWDPF quaternion0 -0.475148 0.691551 -0.230506 0.492808
DOCKED: USER    NEWDPF axisangle0 -0.546060 0.794760 -0.264907 120.949437
DOCKED: USER    NEWDPF quat0 -0.546060 0.794760 -0.264907 120.949437
DOCKED: USER    NEWDPF dihe0 -0.45 41.55 133.75 -128.92 5.11 -10.59 -13.56 
DOCKED: USER  keepresnum = 1 
DOCKED: USER  
DOCKED: REMARK  Name = 
DOCKED: REMARK  7 active torsions:
DOCKED: REMARK  status: ('A' for Active; 'I' for Inactive)
DOCKED: REMARK    1  A    between atoms: C_2  and  C_5
DOCKED: REMARK    2  A    between atoms: N_3  and  O_4
DOCKED: REMARK    3  A    between atoms: C_5  and  C_6
DOCKED: REMARK    4  A    between atoms: C_6  and  C_7
DOCKED: REMARK    5  A    between atoms: C_7  and  C_8
DOCKED: REMARK    6  A    between atoms: C_8  and  C_9
DOCKED: REMARK    7  A    between atoms: C_9  and  N_10
DOCKED: REMARK                            x       y       z     vdW  Elec       q    Type
DOCKED: REMARK                         _______ _______ _______ _____ _____    ______ ____
DOCKED: USER                              x       y       z     vdW  Elec       q    Type
DOCKED: USER                           _______ _______ _______ _____ _____    ______ ____
DOCKED: ROOT
DOCKED: ATOM      1  N   UNL     1      37.641  14.415 121.510 -0.32 -0.00    +0.000 N 
DOCKED: ATOM      2  C   UNL     1      37.049  15.712 121.300 -0.24 -0.00    +0.000 C 
DOCKED: ATOM      3  C   UNL     1      36.545  16.089 119.959 -0.14 -0.00    +0.000 A 
DOCKED: ATOM      4  C   UNL     1      35.944  17.343 119.750 -0.15 -0.00    +0.000 A 
DOCKED: ATOM      5  C   UNL     1      35.466  17.698 118.487 -0.13 -0.00    +0.000 A 
DOCKED: ATOM      6  C   UNL     1      35.581  16.812 117.416 -0.12 -0.00    +0.000 A 
DOCKED: ATOM      7  C   UNL     1      36.178  15.557 117.600 -0.18 -0.00    +0.000 A 
DOCKED: ATOM      8  C   UNL     1      36.295  14.667 116.523 -0.26 -0.00    +0.000 A 
DOCKED: ATOM      9  C   UNL     1      36.890  13.420 116.705 -0.33 -0.00    +0.000 A 
DOCKED: ATOM     10  C   UNL     1      37.374  13.046 117.959 -0.31 -0.00    +0.000 A 
DOCKED: ATOM     11  C   UNL     1      37.269  13.920 119.055 -0.34 -0.00    +0.000 A 
DOCKED: ATOM     12  C   UNL     1      36.667  15.186 118.879 -0.21 -0.00    +0.000 A 
DOCKED: ATOM     13  O   UNL     1      36.960  16.529 122.258 -0.23 -0.00    +0.000 OA
DOCKED: ATOM     14  C   UNL     1      37.781  13.522 120.387 -0.43 -0.00    +0.000 C 
DOCKED: ATOM     15  O   UNL     1      38.341  12.401 120.532 -0.48 -0.00    +0.000 OA
DOCKED: ATOM     16  CM  UNL     1      37.172  14.797 120.218 +0.00 -0.00    +0.000 AC
DOCKED: ATOM     17  CM  UNL     1      36.063  16.447 118.682 +0.00 -0.00    +0.000 AC
DOCKED: ATOM     18  CM  UNL     1      36.779  14.299 117.787 +0.00 -0.00    +0.000 AC
DOCKED: ENDROOT
DOCKED: BRANCH   1  16
DOCKED: ATOM     19  C   UNL     1      38.059  14.004 122.861 -0.49 -0.00    +0.000 C 
DOCKED: BRANCH  16  17
DOCKED: ATOM     20  C   UNL     1      36.864  13.938 123.827 -0.39 -0.00    +0.000 C 
DOCKED: BRANCH  17  18
DOCKED: ATOM     21  C   UNL     1      35.693  13.072 123.326 -0.44 -0.00    +0.000 C 
DOCKED: BRANCH  18  19
DOCKED: ATOM     22  C   UNL     1      35.941  11.550 123.393 -0.70 -0.00    +0.000 C 
DOCKED: BRANCH  19  20
DOCKED: ATOM     23  C   UNL     1      37.098  11.052 122.514 -0.54 -0.00    +0.000 C 
DOCKED: BRANCH  20  22
DOCKED: ATOM     24  O   UNL     1      36.945   9.091 121.156 -2.69 -0.00    +0.000 OA
DOCKED: ATOM     25  C   UNL     1      37.058   9.564 122.319 -0.61 -0.00    +0.000 C 
DOCKED: ATOM     26  N   UNL     1      37.112   8.684 123.445 -0.63 -0.00    +0.000 N 
DOCKED: ATOM     27  H   UNL     1      37.192   9.056 124.352 -0.54 -0.00    +0.000 HD
DOCKED: BRANCH  23  25
DOCKED: ATOM     28  O   UNL     1      37.053   7.342 123.273 -2.13 -0.00    +0.000 OA
DOCKED: ATOM     29  H   UNL     1      36.969   7.140 122.327 -0.09 -0.00    +0.000 HD
DOCKED: ENDBRANCH  23  25
DOCKED: ENDBRANCH  20  22
DOCKED: ENDBRANCH  19  20
DOCKED: ENDBRANCH  18  19
DOCKED: ENDBRANCH  17  18
DOCKED: ENDBRANCH  16  17
DOCKED: ENDBRANCH   1  16
DOCKED: TORSDOF 7DOCKED: TER
DOCKED: ENDMDL
________________________________________________________________________________


	BEGINNING GENETIC ALGORITHM DOCKING 51 of 100
Run: 51 Seed: 1540612077 1925006550 [ Run 51 of 100 GA/GALS ]
Beginning LAMARCKIAN GENETIC ALGORITHM (LGA), with a maximum of 2500000 energy evaluations.

Final-Value: -13.398


	FINAL GENETIC ALGORITHM DOCKED STATE
	_______________________________________________


Detailed state:  trans 38.174 14.889 122.961 quatxyzw -0.467008 0.331492 0.645913 0.504791 center 0.154 0.111 -0.146 ntor 7 6.1728 -155.2654 86.6114 172.3469 -156.5679 -124.4800 76.2272
State:	 38.174  14.889 122.961  -0.541  0.384  0.748 119.365      6.17 -155.27   86.61  172.35 -156.57 -124.48   76.23

DOCKED: MODEL       51
DOCKED: USER    Run = 51
DOCKED: USER    DPF = ligand_dock.biased.dpf
DOCKED: USER  
DOCKED: USER    Estimated Free Energy of Binding    =  -10.48 kcal/mol  [=(1)+(2)+(3)-(4)]
DOCKED: USER    Estimated Inhibition Constant, Ki   =   20.68 nM (nanomolar)  [Temperature = 298.15 K]
DOCKED: USER    
DOCKED: USER    (1) Final Intermolecular Energy     =  -12.57 kcal/mol
DOCKED: USER        vdW + Hbond + desolv Energy     =  -12.57 kcal/mol
DOCKED: USER        Electrostatic Energy            =   +0.00 kcal/mol
DOCKED: USER    (2) Final Total Internal Energy     =   -0.83 kcal/mol
DOCKED: USER    (3) Torsional Free Energy           =   +2.09 kcal/mol
DOCKED: USER    (4) Unbound System's Energy  [=(2)] =   -0.83 kcal/mol
DOCKED: USER    
DOCKED: USER    
DOCKED: USER    NEWDPF move ligand.dum.pdbqt
DOCKED: USER    NEWDPF about 0.154000 0.111000 -0.146000
DOCKED: USER    NEWDPF tran0 38.174480 14.889344 122.960556
DOCKED: USER    NEWDPF quaternion0 -0.467008 0.331492 0.645913 0.504791
DOCKED: USER    NEWDPF axisangle0 -0.540993 0.384008 0.748241 119.365105
DOCKED: USER    NEWDPF quat0 -0.540993 0.384008 0.748241 119.365105
DOCKED: USER    NEWDPF dihe0 6.17 -155.27 86.61 172.35 -156.57 -124.48 76.23 
DOCKED: USER  keepresnum = 1 
DOCKED: USER  
DOCKED: REMARK  Name = 
DOCKED: REMARK  7 active torsions:
DOCKED: REMARK  status: ('A' for Active; 'I' for Inactive)
DOCKED: REMARK    1  A    between atoms: C_2  and  C_5
DOCKED: REMARK    2  A    between atoms: N_3  and  O_4
DOCKED: REMARK    3  A    between atoms: C_5  and  C_6
DOCKED: REMARK    4  A    between atoms: C_6  and  C_7
DOCKED: REMARK    5  A    between atoms: C_7  and  C_8
DOCKED: REMARK    6  A    between atoms: C_8  and  C_9
DOCKED: REMARK    7  A    between atoms: C_9  and  N_10
DOCKED: REMARK                            x       y       z     vdW  Elec       q    Type
DOCKED: REMARK                         _______ _______ _______ _____ _____    ______ ____
DOCKED: USER                              x       y       z     vdW  Elec       q    Type
DOCKED: USER                           _______ _______ _______ _____ _____    ______ ____
DOCKED: ROOT
DOCKED: ATOM      1  N   UNL     1      39.049  15.727 122.078 -0.26 -0.00    +0.000 N 
DOCKED: ATOM      2  C   UNL     1      40.072  16.150 123.000 -0.26 -0.00    +0.000 C 
DOCKED: ATOM      3  C   UNL     1      39.833  17.305 123.896 -0.18 -0.00    +0.000 A 
DOCKED: ATOM      4  C   UNL     1      40.816  17.710 124.816 -0.25 -0.00    +0.000 A 
DOCKED: ATOM      5  C   UNL     1      40.590  18.796 125.663 -0.26 -0.00    +0.000 A 
DOCKED: ATOM      6  C   UNL     1      39.384  19.495 125.606 -0.13 -0.00    +0.000 A 
DOCKED: ATOM      7  C   UNL     1      38.389  19.110 124.696 -0.13 -0.00    +0.000 A 
DOCKED: ATOM      8  C   UNL     1      37.178  19.813 124.638 -0.11 -0.00    +0.000 A 
DOCKED: ATOM      9  C   UNL     1      36.189  19.433 123.731 -0.17 -0.00    +0.000 A 
DOCKED: ATOM     10  C   UNL     1      36.395  18.350 122.876 -0.18 -0.00    +0.000 A 
DOCKED: ATOM     11  C   UNL     1      37.602  17.628 122.915 -0.16 -0.00    +0.000 A 
DOCKED: ATOM     12  C   UNL     1      38.609  18.007 123.831 -0.18 -0.00    +0.000 A 
DOCKED: ATOM     13  O   UNL     1      41.175  15.538 123.044 -0.80 -0.00    +0.000 OA
DOCKED: ATOM     14  C   UNL     1      37.820  16.478 122.008 -0.21 -0.00    +0.000 C 
DOCKED: ATOM     15  O   UNL     1      36.928  16.160 121.175 -0.22 -0.00    +0.000 OA
DOCKED: ATOM     16  CM  UNL     1      38.836  16.852 122.931 +0.00 -0.00    +0.000 AC
DOCKED: ATOM     17  CM  UNL     1      39.603  18.403 124.752 +0.00 -0.00    +0.000 AC
DOCKED: ATOM     18  CM  UNL     1      37.393  18.724 123.781 +0.00 -0.00    +0.000 AC
DOCKED: ENDROOT
DOCKED: BRANCH   1  16
DOCKED: ATOM     19  C   UNL     1      39.250  14.525 121.251 -0.35 -0.00    +0.000 C 
DOCKED: BRANCH  16  17
DOCKED: ATOM     20  C   UNL     1      37.912  13.858 120.890 -0.40 -0.00    +0.000 C 
DOCKED: BRANCH  17  18
DOCKED: ATOM     21  C   UNL     1      37.094  13.384 122.107 -0.50 -0.00    +0.000 C 
DOCKED: BRANCH  18  19
DOCKED: ATOM     22  C   UNL     1      37.430  11.960 122.596 -0.46 -0.00    +0.000 C 
DOCKED: BRANCH  19  20
DOCKED: ATOM     23  C   UNL     1      36.241  10.987 122.596 -0.68 -0.00    +0.000 C 
DOCKED: BRANCH  20  22
DOCKED: ATOM     24  O   UNL     1      36.948   9.217 121.154 -2.70 -0.00    +0.000 OA
DOCKED: ATOM     25  C   UNL     1      36.670   9.573 122.331 -0.71 -0.00    +0.000 C 
DOCKED: ATOM     26  N   UNL     1      36.733   8.622 123.397 -0.64 -0.00    +0.000 N 
DOCKED: ATOM     27  H   UNL     1      36.508   8.901 124.313 -0.34 -0.00    +0.000 HD
DOCKED: BRANCH  23  25
DOCKED: ATOM     28  O   UNL     1      37.098   7.340 123.156 -2.13 -0.00    +0.000 OA
DOCKED: ATOM     29  H   UNL     1      37.379   7.252 122.231 -0.15 -0.00    +0.000 HD
DOCKED: ENDBRANCH  23  25
DOCKED: ENDBRANCH  20  22
DOCKED: ENDBRANCH  19  20
DOCKED: ENDBRANCH  18  19
DOCKED: ENDBRANCH  17  18
DOCKED: ENDBRANCH  16  17
DOCKED: ENDBRANCH   1  16
DOCKED: TORSDOF 7DOCKED: TER
DOCKED: ENDMDL
________________________________________________________________________________


	BEGINNING GENETIC ALGORITHM DOCKING 52 of 100
Run: 52 Seed: 740317870 241253105 [ Run 52 of 100 GA/GALS ]
Beginning LAMARCKIAN GENETIC ALGORITHM (LGA), with a maximum of 2500000 energy evaluations.

Final-Value: -14.443


	FINAL GENETIC ALGORITHM DOCKED STATE
	_______________________________________________


Detailed state:  trans 39.710 14.963 120.602 quatxyzw 0.342684 -0.757333 0.321054 0.453805 center 0.154 0.111 -0.146 ntor 7 8.6101 123.9479 50.2883 -4.5934 179.1383 179.3769 -150.9345
State:	 39.710  14.963 120.602   0.385 -0.850  0.360 126.024      8.61  123.95   50.29   -4.59  179.14  179.38 -150.93

DOCKED: MODEL       52
DOCKED: USER    Run = 52
DOCKED: USER    DPF = ligand_dock.biased.dpf
DOCKED: USER  
DOCKED: USER    Estimated Free Energy of Binding    =  -11.10 kcal/mol  [=(1)+(2)+(3)-(4)]
DOCKED: USER    Estimated Inhibition Constant, Ki   =    7.31 nM (nanomolar)  [Temperature = 298.15 K]
DOCKED: USER    
DOCKED: USER    (1) Final Intermolecular Energy     =  -13.19 kcal/mol
DOCKED: USER        vdW + Hbond + desolv Energy     =  -13.19 kcal/mol
DOCKED: USER        Electrostatic Energy            =   +0.00 kcal/mol
DOCKED: USER    (2) Final Total Internal Energy     =   -1.25 kcal/mol
DOCKED: USER    (3) Torsional Free Energy           =   +2.09 kcal/mol
DOCKED: USER    (4) Unbound System's Energy  [=(2)] =   -1.25 kcal/mol
DOCKED: USER    
DOCKED: USER    
DOCKED: USER    NEWDPF move ligand.dum.pdbqt
DOCKED: USER    NEWDPF about 0.154000 0.111000 -0.146000
DOCKED: USER    NEWDPF tran0 39.710496 14.962514 120.602015
DOCKED: USER    NEWDPF quaternion0 0.342684 -0.757333 0.321054 0.453805
DOCKED: USER    NEWDPF axisangle0 0.384563 -0.849884 0.360290 126.023893
DOCKED: USER    NEWDPF quat0 0.384563 -0.849884 0.360290 126.023893
DOCKED: USER    NEWDPF dihe0 8.61 123.95 50.29 -4.59 179.14 179.38 -150.93 
DOCKED: USER  keepresnum = 1 
DOCKED: USER  
DOCKED: REMARK  Name = 
DOCKED: REMARK  7 active torsions:
DOCKED: REMARK  status: ('A' for Active; 'I' for Inactive)
DOCKED: REMARK    1  A    between atoms: C_2  and  C_5
DOCKED: REMARK    2  A    between atoms: N_3  and  O_4
DOCKED: REMARK    3  A    between atoms: C_5  and  C_6
DOCKED: REMARK    4  A    between atoms: C_6  and  C_7
DOCKED: REMARK    5  A    between atoms: C_7  and  C_8
DOCKED: REMARK    6  A    between atoms: C_8  and  C_9
DOCKED: REMARK    7  A    between atoms: C_9  and  N_10
DOCKED: REMARK                            x       y       z     vdW  Elec       q    Type
DOCKED: REMARK                         _______ _______ _______ _____ _____    ______ ____
DOCKED: USER                              x       y       z     vdW  Elec       q    Type
DOCKED: USER                           _______ _______ _______ _____ _____    ______ ____
DOCKED: ROOT
DOCKED: ATOM      1  N   UNL     1      39.040  15.262 121.908 -0.30 -0.00    +0.000 N 
DOCKED: ATOM      2  C   UNL     1      38.448  16.549 121.643 -0.18 -0.00    +0.000 C 
DOCKED: ATOM      3  C   UNL     1      39.265  17.779 121.755 -0.09 -0.00    +0.000 A 
DOCKED: ATOM      4  C   UNL     1      38.704  19.037 121.475 -0.04 -0.00    +0.000 A 
DOCKED: ATOM      5  C   UNL     1      39.473  20.197 121.577 -0.02 -0.00    +0.000 A 
DOCKED: ATOM      6  C   UNL     1      40.812  20.120 121.962 -0.02 -0.00    +0.000 A 
DOCKED: ATOM      7  C   UNL     1      41.394  18.878 122.248 -0.09 -0.00    +0.000 A 
DOCKED: ATOM      8  C   UNL     1      42.740  18.802 122.636 -0.15 -0.00    +0.000 A 
DOCKED: ATOM      9  C   UNL     1      43.318  17.566 122.922 -0.25 -0.00    +0.000 A 
DOCKED: ATOM     10  C   UNL     1      42.565  16.395 122.826 -0.40 -0.00    +0.000 A 
DOCKED: ATOM     11  C   UNL     1      41.214  16.445 122.439 -0.31 -0.00    +0.000 A 
DOCKED: ATOM     12  C   UNL     1      40.620  17.693 122.146 -0.13 -0.00    +0.000 A 
DOCKED: ATOM     13  O   UNL     1      37.232  16.630 121.316 -0.18 -0.00    +0.000 OA
DOCKED: ATOM     14  C   UNL     1      40.416  15.202 122.335 -0.45 -0.00    +0.000 C 
DOCKED: ATOM     15  O   UNL     1      40.944  14.093 122.622 -1.06 +0.00    +0.000 OA
DOCKED: ATOM     16  CM  UNL     1      39.813  16.455 122.034 +0.00 -0.00    +0.000 AC
DOCKED: ATOM     17  CM  UNL     1      40.045  18.950 121.860 +0.00 -0.00    +0.000 AC
DOCKED: ATOM     18  CM  UNL     1      41.976  17.630 122.536 +0.00 -0.00    +0.000 AC
DOCKED: ENDROOT
DOCKED: BRANCH   1  16
DOCKED: ATOM     19  C   UNL     1      38.254  14.032 121.709 -0.43 -0.00    +0.000 C 
DOCKED: BRANCH  16  17
DOCKED: ATOM     20  C   UNL     1      37.225  13.831 122.834 -0.52 -0.00    +0.000 C 
DOCKED: BRANCH  17  18
DOCKED: ATOM     21  C   UNL     1      37.454  12.563 123.680 -0.47 -0.00    +0.000 C 
DOCKED: BRANCH  18  19
DOCKED: ATOM     22  C   UNL     1      36.377  11.472 123.512 -0.71 -0.00    +0.000 C 
DOCKED: BRANCH  19  20
DOCKED: ATOM     23  C   UNL     1      36.256  10.909 122.087 -0.62 -0.00    +0.000 C 
DOCKED: BRANCH  20  22
DOCKED: ATOM     24  O   UNL     1      37.055   8.996 120.898 -2.72 -0.00    +0.000 OA
DOCKED: ATOM     25  C   UNL     1      36.698   9.476 122.007 -0.69 -0.00    +0.000 C 
DOCKED: ATOM     26  N   UNL     1      36.685   8.648 123.173 -0.68 -0.00    +0.000 N 
DOCKED: ATOM     27  H   UNL     1      36.398   9.023 124.035 -0.34 -0.00    +0.000 HD
DOCKED: BRANCH  23  25
DOCKED: ATOM     28  O   UNL     1      37.062   7.349 123.098 -2.16 -0.00    +0.000 OA
DOCKED: ATOM     29  H   UNL     1      37.441   7.171 122.223 -0.18 -0.00    +0.000 HD
DOCKED: ENDBRANCH  23  25
DOCKED: ENDBRANCH  20  22
DOCKED: ENDBRANCH  19  20
DOCKED: ENDBRANCH  18  19
DOCKED: ENDBRANCH  17  18
DOCKED: ENDBRANCH  16  17
DOCKED: ENDBRANCH   1  16
DOCKED: TORSDOF 7DOCKED: TER
DOCKED: ENDMDL
________________________________________________________________________________


	BEGINNING GENETIC ALGORITHM DOCKING 53 of 100
Run: 53 Seed: 185055635 64466155 [ Run 53 of 100 GA/GALS ]
Beginning LAMARCKIAN GENETIC ALGORITHM (LGA), with a maximum of 2500000 energy evaluations.

Final-Value: -15.072


	FINAL GENETIC ALGORITHM DOCKED STATE
	_______________________________________________


Detailed state:  trans 38.161 15.061 123.788 quatxyzw 0.256496 -0.001987 -0.357999 -0.897799 center 0.154 0.111 -0.146 ntor 7 9.7243 -130.7006 79.8354 77.7607 -116.3826 -152.0484 180.0000
State:	 38.161  15.061 123.788   0.582 -0.005 -0.813 -52.260      9.72 -130.70   79.84   77.76 -116.38 -152.05  180.00

DOCKED: MODEL       53
DOCKED: USER    Run = 53
DOCKED: USER    DPF = ligand_dock.biased.dpf
DOCKED: USER  
DOCKED: USER    Estimated Free Energy of Binding    =  -11.61 kcal/mol  [=(1)+(2)+(3)-(4)]
DOCKED: USER    Estimated Inhibition Constant, Ki   =    3.10 nM (nanomolar)  [Temperature = 298.15 K]
DOCKED: USER    
DOCKED: USER    (1) Final Intermolecular Energy     =  -13.70 kcal/mol
DOCKED: USER        vdW + Hbond + desolv Energy     =  -13.70 kcal/mol
DOCKED: USER        Electrostatic Energy            =   +0.00 kcal/mol
DOCKED: USER    (2) Final Total Internal Energy     =   -1.37 kcal/mol
DOCKED: USER    (3) Torsional Free Energy           =   +2.09 kcal/mol
DOCKED: USER    (4) Unbound System's Energy  [=(2)] =   -1.37 kcal/mol
DOCKED: USER    
DOCKED: USER    
DOCKED: USER    NEWDPF move ligand.dum.pdbqt
DOCKED: USER    NEWDPF about 0.154000 0.111000 -0.146000
DOCKED: USER    NEWDPF tran0 38.160817 15.060797 123.787873
DOCKED: USER    NEWDPF quaternion0 0.256496 -0.001987 -0.357999 -0.897799
DOCKED: USER    NEWDPF axisangle0 0.582409 -0.004513 -0.812884 -52.259544
DOCKED: USER    NEWDPF quat0 0.582409 -0.004513 -0.812884 -52.259544
DOCKED: USER    NEWDPF dihe0 9.72 -130.70 79.84 77.76 -116.38 -152.05 180.00 
DOCKED: USER  keepresnum = 1 
DOCKED: USER  
DOCKED: REMARK  Name = 
DOCKED: REMARK  7 active torsions:
DOCKED: REMARK  status: ('A' for Active; 'I' for Inactive)
DOCKED: REMARK    1  A    between atoms: C_2  and  C_5
DOCKED: REMARK    2  A    between atoms: N_3  and  O_4
DOCKED: REMARK    3  A    between atoms: C_5  and  C_6
DOCKED: REMARK    4  A    between atoms: C_6  and  C_7
DOCKED: REMARK    5  A    between atoms: C_7  and  C_8
DOCKED: REMARK    6  A    between atoms: C_8  and  C_9
DOCKED: REMARK    7  A    between atoms: C_9  and  N_10
DOCKED: REMARK                            x       y       z     vdW  Elec       q    Type
DOCKED: REMARK                         _______ _______ _______ _____ _____    ______ ____
DOCKED: USER                              x       y       z     vdW  Elec       q    Type
DOCKED: USER                           _______ _______ _______ _____ _____    ______ ____
DOCKED: ROOT
DOCKED: ATOM      1  N   UNL     1      37.457  15.549 122.558 -0.30 -0.00    +0.000 N 
DOCKED: ATOM      2  C   UNL     1      37.736  16.961 122.604 -0.21 -0.00    +0.000 C 
DOCKED: ATOM      3  C   UNL     1      36.915  17.853 123.455 -0.19 -0.00    +0.000 A 
DOCKED: ATOM      4  C   UNL     1      37.196  19.229 123.526 -0.12 -0.00    +0.000 A 
DOCKED: ATOM      5  C   UNL     1      36.425  20.070 124.329 -0.14 -0.00    +0.000 A 
DOCKED: ATOM      6  C   UNL     1      35.363  19.554 125.072 -0.19 -0.00    +0.000 A 
DOCKED: ATOM      7  C   UNL     1      35.063  18.186 125.018 -0.28 -0.00    +0.000 A 
DOCKED: ATOM      8  C   UNL     1      33.995  17.668 125.764 -0.35 -0.00    +0.000 A 
DOCKED: ATOM      9  C   UNL     1      33.695  16.307 125.708 -0.31 -0.00    +0.000 A 
DOCKED: ATOM     10  C   UNL     1      34.454  15.450 124.910 -0.42 -0.00    +0.000 A 
DOCKED: ATOM     11  C   UNL     1      35.531  15.945 124.153 -0.41 -0.00    +0.000 A 
DOCKED: ATOM     12  C   UNL     1      35.841  17.323 124.204 -0.28 -0.00    +0.000 A 
DOCKED: ATOM     13  O   UNL     1      38.681  17.441 121.918 -0.12 -0.00    +0.000 OA
DOCKED: ATOM     14  C   UNL     1      36.337  15.035 123.307 -0.46 -0.00    +0.000 C 
DOCKED: ATOM     15  O   UNL     1      36.040  13.811 123.245 -0.57 -0.00    +0.000 OA
DOCKED: ATOM     16  CM  UNL     1      36.658  16.420 123.358 +0.00 -0.00    +0.000 AC
DOCKED: ATOM     17  CM  UNL     1      36.134  18.702 124.268 -0.06 -0.00    +0.000 AC
DOCKED: ATOM     18  CM  UNL     1      34.763  16.813 124.959 -0.26 -0.00    +0.000 AC
DOCKED: ENDROOT
DOCKED: BRANCH   1  16
DOCKED: ATOM     19  C   UNL     1      38.328  14.648 121.785 -0.39 -0.00    +0.000 C 
DOCKED: BRANCH  16  17
DOCKED: ATOM     20  C   UNL     1      37.669  14.224 120.461 -0.36 -0.00    +0.000 C 
DOCKED: BRANCH  17  18
DOCKED: ATOM     21  C   UNL     1      36.787  12.965 120.569 -0.38 -0.00    +0.000 C 
DOCKED: BRANCH  18  19
DOCKED: ATOM     22  C   UNL     1      37.435  11.785 121.322 -0.46 -0.00    +0.000 C 
DOCKED: BRANCH  19  20
DOCKED: ATOM     23  C   UNL     1      36.460  10.959 122.175 -0.64 -0.00    +0.000 C 
DOCKED: BRANCH  20  22
DOCKED: ATOM     24  O   UNL     1      36.884   8.917 121.008 -2.66 -0.00    +0.000 OA
DOCKED: ATOM     25  C   UNL     1      36.772   9.491 122.124 -0.68 -0.00    +0.000 C 
DOCKED: ATOM     26  N   UNL     1      36.910   8.737 123.332 -0.64 -0.00    +0.000 N 
DOCKED: ATOM     27  H   UNL     1      36.814   9.187 124.201 -0.51 -0.00    +0.000 HD
DOCKED: BRANCH  23  25
DOCKED: ATOM     28  O   UNL     1      37.169   7.409 123.288 -2.12 -0.00    +0.000 OA
DOCKED: ATOM     29  H   UNL     1      37.384   7.151 122.377 -0.19 -0.00    +0.000 HD
DOCKED: ENDBRANCH  23  25
DOCKED: ENDBRANCH  20  22
DOCKED: ENDBRANCH  19  20
DOCKED: ENDBRANCH  18  19
DOCKED: ENDBRANCH  17  18
DOCKED: ENDBRANCH  16  17
DOCKED: ENDBRANCH   1  16
DOCKED: TORSDOF 7DOCKED: TER
DOCKED: ENDMDL
________________________________________________________________________________


	BEGINNING GENETIC ALGORITHM DOCKING 54 of 100
Run: 54 Seed: 688014365 1191838928 [ Run 54 of 100 GA/GALS ]
Beginning LAMARCKIAN GENETIC ALGORITHM (LGA), with a maximum of 2500000 energy evaluations.

Final-Value: -14.399


	FINAL GENETIC ALGORITHM DOCKED STATE
	_______________________________________________


Detailed state:  trans 36.747 16.691 121.456 quatxyzw -0.728036 0.494429 0.346803 -0.324394 center 0.154 0.111 -0.146 ntor 7 11.7242 -120.9079 -176.2809 -170.1026 101.5676 163.8623 -38.2821
State:	 36.747  16.691 121.456  -0.770  0.523  0.367 -142.142     11.72 -120.91 -176.28 -170.10  101.57  163.86  -38.28

DOCKED: MODEL       54
DOCKED: USER    Run = 54
DOCKED: USER    DPF = ligand_dock.biased.dpf
DOCKED: USER  
DOCKED: USER    Estimated Free Energy of Binding    =  -11.30 kcal/mol  [=(1)+(2)+(3)-(4)]
DOCKED: USER    Estimated Inhibition Constant, Ki   =    5.25 nM (nanomolar)  [Temperature = 298.15 K]
DOCKED: USER    
DOCKED: USER    (1) Final Intermolecular Energy     =  -13.38 kcal/mol
DOCKED: USER        vdW + Hbond + desolv Energy     =  -13.38 kcal/mol
DOCKED: USER        Electrostatic Energy            =   +0.00 kcal/mol
DOCKED: USER    (2) Final Total Internal Energy     =   -1.02 kcal/mol
DOCKED: USER    (3) Torsional Free Energy           =   +2.09 kcal/mol
DOCKED: USER    (4) Unbound System's Energy  [=(2)] =   -1.02 kcal/mol
DOCKED: USER    
DOCKED: USER    
DOCKED: USER    NEWDPF move ligand.dum.pdbqt
DOCKED: USER    NEWDPF about 0.154000 0.111000 -0.146000
DOCKED: USER    NEWDPF tran0 36.747130 16.691188 121.455861
DOCKED: USER    NEWDPF quaternion0 -0.728036 0.494429 0.346803 -0.324394
DOCKED: USER    NEWDPF axisangle0 -0.769657 0.522696 0.366629 -142.142301
DOCKED: USER    NEWDPF quat0 -0.769657 0.522696 0.366629 -142.142301
DOCKED: USER    NEWDPF dihe0 11.72 -120.91 -176.28 -170.10 101.57 163.86 -38.28 
DOCKED: USER  keepresnum = 1 
DOCKED: USER  
DOCKED: REMARK  Name = 
DOCKED: REMARK  7 active torsions:
DOCKED: REMARK  status: ('A' for Active; 'I' for Inactive)
DOCKED: REMARK    1  A    between atoms: C_2  and  C_5
DOCKED: REMARK    2  A    between atoms: N_3  and  O_4
DOCKED: REMARK    3  A    between atoms: C_5  and  C_6
DOCKED: REMARK    4  A    between atoms: C_6  and  C_7
DOCKED: REMARK    5  A    between atoms: C_7  and  C_8
DOCKED: REMARK    6  A    between atoms: C_8  and  C_9
DOCKED: REMARK    7  A    between atoms: C_9  and  N_10
DOCKED: REMARK                            x       y       z     vdW  Elec       q    Type
DOCKED: REMARK                         _______ _______ _______ _____ _____    ______ ____
DOCKED: USER                              x       y       z     vdW  Elec       q    Type
DOCKED: USER                           _______ _______ _______ _____ _____    ______ ____
DOCKED: ROOT
DOCKED: ATOM      1  N   UNL     1      37.475  16.267 122.695 -0.25 -0.00    +0.000 N 
DOCKED: ATOM      2  C   UNL     1      36.399  15.759 123.506 -0.40 -0.00    +0.000 C 
DOCKED: ATOM      3  C   UNL     1      35.559  16.692 124.292 -0.34 -0.00    +0.000 A 
DOCKED: ATOM      4  C   UNL     1      34.490  16.208 125.068 -0.43 -0.00    +0.000 A 
DOCKED: ATOM      5  C   UNL     1      33.695  17.086 125.807 -0.34 -0.00    +0.000 A 
DOCKED: ATOM      6  C   UNL     1      33.954  18.456 125.786 -0.30 -0.00    +0.000 A 
DOCKED: ATOM      7  C   UNL     1      35.015  18.962 125.022 -0.23 -0.00    +0.000 A 
DOCKED: ATOM      8  C   UNL     1      35.275  20.340 125.002 -0.15 -0.00    +0.000 A 
DOCKED: ATOM      9  C   UNL     1      36.331  20.843 124.243 -0.14 -0.00    +0.000 A 
DOCKED: ATOM     10  C   UNL     1      37.137  19.982 123.498 -0.12 -0.00    +0.000 A 
DOCKED: ATOM     11  C   UNL     1      36.896  18.596 123.501 -0.15 -0.00    +0.000 A 
DOCKED: ATOM     12  C   UNL     1      35.828  18.078 124.267 -0.24 -0.00    +0.000 A 
DOCKED: ATOM     13  O   UNL     1      36.171  14.519 123.549 -0.55 -0.00    +0.000 OA
DOCKED: ATOM     14  C   UNL     1      37.750  17.682 122.708 -0.17 -0.00    +0.000 C 
DOCKED: ATOM     15  O   UNL     1      38.719  18.147 122.046 -0.10 -0.00    +0.000 OA
DOCKED: ATOM     16  CM  UNL     1      36.674  17.155 123.473 -0.00 -0.00    +0.000 AC
DOCKED: ATOM     17  CM  UNL     1      34.756  17.580 125.040 -0.46 -0.00    +0.000 AC
DOCKED: ATOM     18  CM  UNL     1      36.081  19.467 124.255 -0.02 -0.00    +0.000 AC
DOCKED: ENDROOT
DOCKED: BRANCH   1  16
DOCKED: ATOM     19  C   UNL     1      38.254  15.353 121.842 -0.31 -0.00    +0.000 C 
DOCKED: BRANCH  16  17
DOCKED: ATOM     20  C   UNL     1      37.361  14.268 121.215 -0.36 -0.00    +0.000 C 
DOCKED: BRANCH  17  18
DOCKED: ATOM     21  C   UNL     1      37.923  12.838 121.340 -0.42 -0.00    +0.000 C 
DOCKED: BRANCH  18  19
DOCKED: ATOM     22  C   UNL     1      36.944  11.721 120.925 -0.43 -0.00    +0.000 C 
DOCKED: BRANCH  19  20
DOCKED: ATOM     23  C   UNL     1      36.311  10.957 122.099 -0.63 -0.00    +0.000 C 
DOCKED: BRANCH  20  22
DOCKED: ATOM     24  O   UNL     1      36.796   8.858 121.064 -2.64 -0.00    +0.000 OA
DOCKED: ATOM     25  C   UNL     1      36.746   9.520 122.135 -0.69 -0.00    +0.000 C 
DOCKED: ATOM     26  N   UNL     1      37.069   8.891 123.378 -0.62 -0.00    +0.000 N 
DOCKED: ATOM     27  H   UNL     1      37.021   9.408 124.213 -0.56 -0.00    +0.000 HD
DOCKED: BRANCH  23  25
DOCKED: ATOM     28  O   UNL     1      37.439   7.589 123.415 -2.11 -0.00    +0.000 OA
DOCKED: ATOM     29  H   UNL     1      37.616   7.277 122.513 -0.23 -0.00    +0.000 HD
DOCKED: ENDBRANCH  23  25
DOCKED: ENDBRANCH  20  22
DOCKED: ENDBRANCH  19  20
DOCKED: ENDBRANCH  18  19
DOCKED: ENDBRANCH  17  18
DOCKED: ENDBRANCH  16  17
DOCKED: ENDBRANCH   1  16
DOCKED: TORSDOF 7DOCKED: TER
DOCKED: ENDMDL
________________________________________________________________________________


	BEGINNING GENETIC ALGORITHM DOCKING 55 of 100
Run: 55 Seed: 447861110 163957291 [ Run 55 of 100 GA/GALS ]
Beginning LAMARCKIAN GENETIC ALGORITHM (LGA), with a maximum of 2500000 energy evaluations.

Final-Value: -14.787


	FINAL GENETIC ALGORITHM DOCKED STATE
	_______________________________________________


Detailed state:  trans 37.221 15.175 121.088 quatxyzw 0.057050 0.817062 0.000214 0.573721 center 0.154 0.111 -0.146 ntor 7 -2.3459 170.9622 122.0108 -175.5498 -91.8910 60.8266 47.0790
State:	 37.221  15.175 121.088   0.070  0.998  0.000 109.980     -2.35  170.96  122.01 -175.55  -91.89   60.83   47.08

DOCKED: MODEL       55
DOCKED: USER    Run = 55
DOCKED: USER    DPF = ligand_dock.biased.dpf
DOCKED: USER  
DOCKED: USER    Estimated Free Energy of Binding    =  -11.16 kcal/mol  [=(1)+(2)+(3)-(4)]
DOCKED: USER    Estimated Inhibition Constant, Ki   =    6.61 nM (nanomolar)  [Temperature = 298.15 K]
DOCKED: USER    
DOCKED: USER    (1) Final Intermolecular Energy     =  -13.25 kcal/mol
DOCKED: USER        vdW + Hbond + desolv Energy     =  -13.25 kcal/mol
DOCKED: USER        Electrostatic Energy            =   +0.00 kcal/mol
DOCKED: USER    (2) Final Total Internal Energy     =   -1.54 kcal/mol
DOCKED: USER    (3) Torsional Free Energy           =   +2.09 kcal/mol
DOCKED: USER    (4) Unbound System's Energy  [=(2)] =   -1.54 kcal/mol
DOCKED: USER    
DOCKED: USER    
DOCKED: USER    NEWDPF move ligand.dum.pdbqt
DOCKED: USER    NEWDPF about 0.154000 0.111000 -0.146000
DOCKED: USER    NEWDPF tran0 37.221005 15.175329 121.088489
DOCKED: USER    NEWDPF quaternion0 0.057050 0.817062 0.000214 0.573721
DOCKED: USER    NEWDPF axisangle0 0.069654 0.997571 0.000261 109.979821
DOCKED: USER    NEWDPF quat0 0.069654 0.997571 0.000261 109.979821
DOCKED: USER    NEWDPF dihe0 -2.35 170.96 122.01 -175.55 -91.89 60.83 47.08 
DOCKED: USER  keepresnum = 1 
DOCKED: USER  
DOCKED: REMARK  Name = 
DOCKED: REMARK  7 active torsions:
DOCKED: REMARK  status: ('A' for Active; 'I' for Inactive)
DOCKED: REMARK    1  A    between atoms: C_2  and  C_5
DOCKED: REMARK    2  A    between atoms: N_3  and  O_4
DOCKED: REMARK    3  A    between atoms: C_5  and  C_6
DOCKED: REMARK    4  A    between atoms: C_6  and  C_7
DOCKED: REMARK    5  A    between atoms: C_7  and  C_8
DOCKED: REMARK    6  A    between atoms: C_8  and  C_9
DOCKED: REMARK    7  A    between atoms: C_9  and  N_10
DOCKED: REMARK                            x       y       z     vdW  Elec       q    Type
DOCKED: REMARK                         _______ _______ _______ _____ _____    ______ ____
DOCKED: USER                              x       y       z     vdW  Elec       q    Type
DOCKED: USER                           _______ _______ _______ _____ _____    ______ ____
DOCKED: ROOT
DOCKED: ATOM      1  N   UNL     1      38.448  14.325 120.954 -0.32 -0.00    +0.000 N 
DOCKED: ATOM      2  C   UNL     1      39.405  15.274 120.445 -0.24 -0.00    +0.000 C 
DOCKED: ATOM      3  C   UNL     1      39.439  15.591 118.999 -0.12 -0.00    +0.000 A 
DOCKED: ATOM      4  C   UNL     1      40.353  16.534 118.496 -0.11 -0.00    +0.000 A 
DOCKED: ATOM      5  C   UNL     1      40.384  16.835 117.133 -0.10 -0.00    +0.000 A 
DOCKED: ATOM      6  C   UNL     1      39.508  16.201 116.253 -0.14 -0.00    +0.000 A 
DOCKED: ATOM      7  C   UNL     1      38.588  15.257 116.730 -0.18 -0.00    +0.000 A 
DOCKED: ATOM      8  C   UNL     1      37.708  14.620 115.844 -0.25 -0.00    +0.000 A 
DOCKED: ATOM      9  C   UNL     1      36.795  13.679 116.318 -0.33 -0.00    +0.000 A 
DOCKED: ATOM     10  C   UNL     1      36.748  13.364 117.676 -0.34 -0.00    +0.000 A 
DOCKED: ATOM     11  C   UNL     1      37.620  13.989 118.585 -0.30 -0.00    +0.000 A 
DOCKED: ATOM     12  C   UNL     1      38.548  14.944 118.113 -0.14 -0.00    +0.000 A 
DOCKED: ATOM     13  O   UNL     1      40.217  15.836 121.231 -0.26 -0.00    +0.000 OA
DOCKED: ATOM     14  C   UNL     1      37.569  13.656 120.027 -0.41 -0.00    +0.000 C 
DOCKED: ATOM     15  O   UNL     1      36.756  12.784 120.440 -0.48 -0.00    +0.000 OA
DOCKED: ATOM     16  CM  UNL     1      38.503  14.621 119.559 +0.00 -0.00    +0.000 AC
DOCKED: ATOM     17  CM  UNL     1      39.470  15.894 117.621 +0.00 -0.00    +0.000 AC
DOCKED: ATOM     18  CM  UNL     1      37.668  14.308 117.211 +0.00 -0.00    +0.000 AC
DOCKED: ENDROOT
DOCKED: BRANCH   1  16
DOCKED: ATOM     19  C   UNL     1      38.351  14.077 122.403 -0.46 -0.00    +0.000 C 
DOCKED: BRANCH  16  17
DOCKED: ATOM     20  C   UNL     1      36.930  14.340 122.928 -0.48 -0.00    +0.000 C 
DOCKED: BRANCH  17  18
DOCKED: ATOM     21  C   UNL     1      36.301  13.146 123.673 -0.61 -0.00    +0.000 C 
DOCKED: BRANCH  18  19
DOCKED: ATOM     22  C   UNL     1      36.902  11.772 123.312 -0.68 -0.00    +0.000 C 
DOCKED: BRANCH  19  20
DOCKED: ATOM     23  C   UNL     1      35.971  10.862 122.495 -0.67 -0.00    +0.000 C 
DOCKED: BRANCH  20  22
DOCKED: ATOM     24  O   UNL     1      36.927   9.178 121.095 -2.69 -0.00    +0.000 OA
DOCKED: ATOM     25  C   UNL     1      36.573   9.507 122.258 -0.71 -0.00    +0.000 C 
DOCKED: ATOM     26  N   UNL     1      36.714   8.579 123.337 -0.66 -0.00    +0.000 N 
DOCKED: ATOM     27  H   UNL     1      36.428   8.835 124.242 -0.35 -0.00    +0.000 HD
DOCKED: BRANCH  23  25
DOCKED: ATOM     28  O   UNL     1      37.235   7.347 123.121 -2.06 -0.00    +0.000 OA
DOCKED: ATOM     29  H   UNL     1      37.430   7.239 122.176 -0.16 -0.00    +0.000 HD
DOCKED: ENDBRANCH  23  25
DOCKED: ENDBRANCH  20  22
DOCKED: ENDBRANCH  19  20
DOCKED: ENDBRANCH  18  19
DOCKED: ENDBRANCH  17  18
DOCKED: ENDBRANCH  16  17
DOCKED: ENDBRANCH   1  16
DOCKED: TORSDOF 7DOCKED: TER
DOCKED: ENDMDL
________________________________________________________________________________


	BEGINNING GENETIC ALGORITHM DOCKING 56 of 100
Run: 56 Seed: 688827305 211260168 [ Run 56 of 100 GA/GALS ]
Beginning LAMARCKIAN GENETIC ALGORITHM (LGA), with a maximum of 2500000 energy evaluations.

Final-Value: -15.118


	FINAL GENETIC ALGORITHM DOCKED STATE
	_______________________________________________


Detailed state:  trans 38.083 15.850 121.209 quatxyzw 0.134164 -0.932007 0.120696 0.314316 center 0.154 0.111 -0.146 ntor 7 -171.5452 174.6988 165.9296 163.2165 -65.4964 -177.7354 -145.5390
State:	 38.083  15.850 121.209   0.141 -0.982  0.127 143.361   -171.55  174.70  165.93  163.22  -65.50 -177.74 -145.54

DOCKED: MODEL       56
DOCKED: USER    Run = 56
DOCKED: USER    DPF = ligand_dock.biased.dpf
DOCKED: USER  
DOCKED: USER    Estimated Free Energy of Binding    =  -12.14 kcal/mol  [=(1)+(2)+(3)-(4)]
DOCKED: USER    Estimated Inhibition Constant, Ki   =    1.25 nM (nanomolar)  [Temperature = 298.15 K]
DOCKED: USER    
DOCKED: USER    (1) Final Intermolecular Energy     =  -14.23 kcal/mol
DOCKED: USER        vdW + Hbond + desolv Energy     =  -14.23 kcal/mol
DOCKED: USER        Electrostatic Energy            =   +0.00 kcal/mol
DOCKED: USER    (2) Final Total Internal Energy     =   -0.89 kcal/mol
DOCKED: USER    (3) Torsional Free Energy           =   +2.09 kcal/mol
DOCKED: USER    (4) Unbound System's Energy  [=(2)] =   -0.89 kcal/mol
DOCKED: USER    
DOCKED: USER    
DOCKED: USER    NEWDPF move ligand.dum.pdbqt
DOCKED: USER    NEWDPF about 0.154000 0.111000 -0.146000
DOCKED: USER    NEWDPF tran0 38.083413 15.849667 121.209430
DOCKED: USER    NEWDPF quaternion0 0.134164 -0.932007 0.120696 0.314316
DOCKED: USER    NEWDPF axisangle0 0.141327 -0.981765 0.127139 143.360889
DOCKED: USER    NEWDPF quat0 0.141327 -0.981765 0.127139 143.360889
DOCKED: USER    NEWDPF dihe0 -171.55 174.70 165.93 163.22 -65.50 -177.74 -145.54 
DOCKED: USER  keepresnum = 1 
DOCKED: USER  
DOCKED: REMARK  Name = 
DOCKED: REMARK  7 active torsions:
DOCKED: REMARK  status: ('A' for Active; 'I' for Inactive)
DOCKED: REMARK    1  A    between atoms: C_2  and  C_5
DOCKED: REMARK    2  A    between atoms: N_3  and  O_4
DOCKED: REMARK    3  A    between atoms: C_5  and  C_6
DOCKED: REMARK    4  A    between atoms: C_6  and  C_7
DOCKED: REMARK    5  A    between atoms: C_7  and  C_8
DOCKED: REMARK    6  A    between atoms: C_8  and  C_9
DOCKED: REMARK    7  A    between atoms: C_9  and  N_10
DOCKED: REMARK                            x       y       z     vdW  Elec       q    Type
DOCKED: REMARK                         _______ _______ _______ _____ _____    ______ ____
DOCKED: USER                              x       y       z     vdW  Elec       q    Type
DOCKED: USER                           _______ _______ _______ _____ _____    ______ ____
DOCKED: ROOT
DOCKED: ATOM      1  N   UNL     1      37.964  15.540 122.670 -0.30 -0.00    +0.000 N 
DOCKED: ATOM      2  C   UNL     1      37.914  16.860 123.245 -0.25 -0.00    +0.000 C 
DOCKED: ATOM      3  C   UNL     1      39.166  17.613 123.485 -0.20 -0.00    +0.000 A 
DOCKED: ATOM      4  C   UNL     1      39.126  18.912 124.022 -0.12 -0.00    +0.000 A 
DOCKED: ATOM      5  C   UNL     1      40.306  19.624 124.246 -0.10 -0.00    +0.000 A 
DOCKED: ATOM      6  C   UNL     1      41.541  19.053 123.939 -0.17 -0.00    +0.000 A 
DOCKED: ATOM      7  C   UNL     1      41.606  17.759 123.403 -0.27 -0.00    +0.000 A 
DOCKED: ATOM      8  C   UNL     1      42.849  17.186 123.097 -0.33 -0.00    +0.000 A 
DOCKED: ATOM      9  C   UNL     1      42.914  15.898 122.566 -0.32 -0.00    +0.000 A 
DOCKED: ATOM     10  C   UNL     1      41.747  15.170 122.335 -0.47 -0.00    +0.000 A 
DOCKED: ATOM     11  C   UNL     1      40.489  15.723 122.634 -0.35 -0.00    +0.000 A 
DOCKED: ATOM     12  C   UNL     1      40.413  17.027 123.172 -0.25 -0.00    +0.000 A 
DOCKED: ATOM     13  O   UNL     1      36.802  17.376 123.546 -0.25 -0.00    +0.000 OA
DOCKED: ATOM     14  C   UNL     1      39.249  14.951 122.388 -0.41 -0.00    +0.000 C 
DOCKED: ATOM     15  O   UNL     1      39.324  13.777 121.932 -0.69 -0.00    +0.000 OA
DOCKED: ATOM     16  CM  UNL     1      39.166  16.265 122.925 +0.00 -0.00    +0.000 AC
DOCKED: ATOM     17  CM  UNL     1      40.360  18.332 123.711 +0.00 -0.00    +0.000 AC
DOCKED: ATOM     18  CM  UNL     1      41.670  16.460 122.868 +0.00 -0.00    +0.000 AC
DOCKED: ENDROOT
DOCKED: BRANCH   1  16
DOCKED: ATOM     19  C   UNL     1      36.717  14.826 122.348 -0.37 -0.00    +0.000 C 
DOCKED: BRANCH  16  17
DOCKED: ATOM     20  C   UNL     1      35.962  14.404 123.620 -0.54 -0.00    +0.000 C 
DOCKED: BRANCH  17  18
DOCKED: ATOM     21  C   UNL     1      35.880  12.879 123.829 -0.57 -0.00    +0.000 C 
DOCKED: BRANCH  18  19
DOCKED: ATOM     22  C   UNL     1      36.638  12.042 122.778 -0.65 -0.00    +0.000 C 
DOCKED: BRANCH  19  20
DOCKED: ATOM     23  C   UNL     1      35.819  10.896 122.163 -0.57 -0.00    +0.000 C 
DOCKED: BRANCH  20  22
DOCKED: ATOM     24  O   UNL     1      37.026   9.149 121.066 -2.72 -0.00    +0.000 OA
DOCKED: ATOM     25  C   UNL     1      36.581   9.601 122.154 -0.69 -0.00    +0.000 C 
DOCKED: ATOM     26  N   UNL     1      36.774   8.866 123.365 -0.61 -0.00    +0.000 N 
DOCKED: ATOM     27  H   UNL     1      36.418   9.218 124.212 -0.38 -0.00    +0.000 HD
DOCKED: BRANCH  23  25
DOCKED: ATOM     28  O   UNL     1      37.441   7.687 123.355 -2.16 -0.00    +0.000 OA
DOCKED: ATOM     29  H   UNL     1      37.363   7.264 124.225 -0.49 -0.00    +0.000 HD
DOCKED: ENDBRANCH  23  25
DOCKED: ENDBRANCH  20  22
DOCKED: ENDBRANCH  19  20
DOCKED: ENDBRANCH  18  19
DOCKED: ENDBRANCH  17  18
DOCKED: ENDBRANCH  16  17
DOCKED: ENDBRANCH   1  16
DOCKED: TORSDOF 7DOCKED: TER
DOCKED: ENDMDL
________________________________________________________________________________


	BEGINNING GENETIC ALGORITHM DOCKING 57 of 100
Run: 57 Seed: 569618320 313562916 [ Run 57 of 100 GA/GALS ]
Beginning LAMARCKIAN GENETIC ALGORITHM (LGA), with a maximum of 2500000 energy evaluations.

Final-Value: -14.858


	FINAL GENETIC ALGORITHM DOCKED STATE
	_______________________________________________


Detailed state:  trans 36.185 15.078 124.805 quatxyzw -0.285436 0.001732 0.600088 0.747274 center 0.154 0.111 -0.146 ntor 7 1.9032 -156.3713 179.9226 -105.2714 -158.4228 163.7444 20.0848
State:	 36.185  15.078 124.805  -0.430  0.003  0.903 83.290      1.90 -156.37  179.92 -105.27 -158.42  163.74   20.08

DOCKED: MODEL       57
DOCKED: USER    Run = 57
DOCKED: USER    DPF = ligand_dock.biased.dpf
DOCKED: USER  
DOCKED: USER    Estimated Free Energy of Binding    =  -11.53 kcal/mol  [=(1)+(2)+(3)-(4)]
DOCKED: USER    Estimated Inhibition Constant, Ki   =    3.55 nM (nanomolar)  [Temperature = 298.15 K]
DOCKED: USER    
DOCKED: USER    (1) Final Intermolecular Energy     =  -13.62 kcal/mol
DOCKED: USER        vdW + Hbond + desolv Energy     =  -13.62 kcal/mol
DOCKED: USER        Electrostatic Energy            =   +0.00 kcal/mol
DOCKED: USER    (2) Final Total Internal Energy     =   -1.24 kcal/mol
DOCKED: USER    (3) Torsional Free Energy           =   +2.09 kcal/mol
DOCKED: USER    (4) Unbound System's Energy  [=(2)] =   -1.24 kcal/mol
DOCKED: USER    
DOCKED: USER    
DOCKED: USER    NEWDPF move ligand.dum.pdbqt
DOCKED: USER    NEWDPF about 0.154000 0.111000 -0.146000
DOCKED: USER    NEWDPF tran0 36.184820 15.077690 124.804605
DOCKED: USER    NEWDPF quaternion0 -0.285436 0.001732 0.600088 0.747274
DOCKED: USER    NEWDPF axisangle0 -0.429540 0.002607 0.903044 83.290467
DOCKED: USER    NEWDPF quat0 -0.429540 0.002607 0.903044 83.290467
DOCKED: USER    NEWDPF dihe0 1.90 -156.37 179.92 -105.27 -158.42 163.74 20.08 
DOCKED: USER  keepresnum = 1 
DOCKED: USER  
DOCKED: REMARK  Name = 
DOCKED: REMARK  7 active torsions:
DOCKED: REMARK  status: ('A' for Active; 'I' for Inactive)
DOCKED: REMARK    1  A    between atoms: C_2  and  C_5
DOCKED: REMARK    2  A    between atoms: N_3  and  O_4
DOCKED: REMARK    3  A    between atoms: C_5  and  C_6
DOCKED: REMARK    4  A    between atoms: C_6  and  C_7
DOCKED: REMARK    5  A    between atoms: C_7  and  C_8
DOCKED: REMARK    6  A    between atoms: C_8  and  C_9
DOCKED: REMARK    7  A    between atoms: C_9  and  N_10
DOCKED: REMARK                            x       y       z     vdW  Elec       q    Type
DOCKED: REMARK                         _______ _______ _______ _____ _____    ______ ____
DOCKED: USER                              x       y       z     vdW  Elec       q    Type
DOCKED: USER                           _______ _______ _______ _____ _____    ______ ____
DOCKED: ROOT
DOCKED: ATOM      1  N   UNL     1      35.767  16.039 123.734 -0.39 -0.00    +0.000 N 
DOCKED: ATOM      2  C   UNL     1      36.751  17.081 123.879 -0.28 -0.00    +0.000 C 
DOCKED: ATOM      3  C   UNL     1      36.579  18.126 124.914 -0.18 -0.00    +0.000 A 
DOCKED: ATOM      4  C   UNL     1      37.546  19.133 125.080 -0.14 -0.00    +0.000 A 
DOCKED: ATOM      5  C   UNL     1      37.386  20.117 126.057 -0.09 -0.00    +0.000 A 
DOCKED: ATOM      6  C   UNL     1      36.262  20.112 126.883 -0.09 -0.00    +0.000 A 
DOCKED: ATOM      7  C   UNL     1      35.284  19.118 126.737 -0.16 -0.00    +0.000 A 
DOCKED: ATOM      8  C   UNL     1      34.153  19.115 127.566 -0.14 -0.00    +0.000 A 
DOCKED: ATOM      9  C   UNL     1      33.179  18.128 127.419 -0.25 -0.00    +0.000 A 
DOCKED: ATOM     10  C   UNL     1      33.320  17.137 126.448 -0.29 -0.00    +0.000 A 
DOCKED: ATOM     11  C   UNL     1      34.445  17.119 125.604 -0.36 -0.00    +0.000 A 
DOCKED: ATOM     12  C   UNL     1      35.437  18.115 125.746 -0.21 -0.00    +0.000 A 
DOCKED: ATOM     13  O   UNL     1      37.760  17.107 123.122 -0.23 -0.00    +0.000 OA
DOCKED: ATOM     14  C   UNL     1      34.595  16.065 124.573 -0.55 -0.00    +0.000 C 
DOCKED: ATOM     15  O   UNL     1      33.694  15.194 124.434 -0.67 -0.00    +0.000 OA
DOCKED: ATOM     16  CM  UNL     1      35.600  17.062 124.714 -0.23 -0.00    +0.000 AC
DOCKED: ATOM     17  CM  UNL     1      36.416  19.120 125.903 -0.02 -0.00    +0.000 AC
DOCKED: ATOM     18  CM  UNL     1      34.302  18.122 126.587 -0.07 -0.00    +0.000 AC
DOCKED: ENDROOT
DOCKED: BRANCH   1  16
DOCKED: ATOM     19  C   UNL     1      35.981  14.949 122.767 -0.28 -0.00    +0.000 C 
DOCKED: BRANCH  16  17
DOCKED: ATOM     20  C   UNL     1      36.593  13.709 123.440 -0.57 -0.00    +0.000 C 
DOCKED: BRANCH  17  18
DOCKED: ATOM     21  C   UNL     1      37.795  13.109 122.685 -0.49 -0.00    +0.000 C 
DOCKED: BRANCH  18  19
DOCKED: ATOM     22  C   UNL     1      37.429  12.045 121.630 -0.48 -0.00    +0.000 C 
DOCKED: BRANCH  19  20
DOCKED: ATOM     23  C   UNL     1      36.297  11.093 122.049 -0.62 -0.00    +0.000 C 
DOCKED: BRANCH  20  22
DOCKED: ATOM     24  O   UNL     1      36.882   9.001 121.051 -2.67 -0.00    +0.000 OA
DOCKED: ATOM     25  C   UNL     1      36.758   9.665 122.115 -0.67 -0.00    +0.000 C 
DOCKED: ATOM     26  N   UNL     1      37.022   9.047 123.377 -0.60 -0.00    +0.000 N 
DOCKED: ATOM     27  H   UNL     1      36.916   9.565 124.206 -0.54 -0.00    +0.000 HD
DOCKED: BRANCH  23  25
DOCKED: ATOM     28  O   UNL     1      37.415   7.753 123.440 -2.18 -0.00    +0.000 OA
DOCKED: ATOM     29  H   UNL     1      37.500   7.395 122.542 -0.17 -0.00    +0.000 HD
DOCKED: ENDBRANCH  23  25
DOCKED: ENDBRANCH  20  22
DOCKED: ENDBRANCH  19  20
DOCKED: ENDBRANCH  18  19
DOCKED: ENDBRANCH  17  18
DOCKED: ENDBRANCH  16  17
DOCKED: ENDBRANCH   1  16
DOCKED: TORSDOF 7DOCKED: TER
DOCKED: ENDMDL
________________________________________________________________________________


	BEGINNING GENETIC ALGORITHM DOCKING 58 of 100
Run: 58 Seed: 1927594683 1679301097 [ Run 58 of 100 GA/GALS ]
Beginning LAMARCKIAN GENETIC ALGORITHM (LGA), with a maximum of 2500000 energy evaluations.

Final-Value: -15.608


	FINAL GENETIC ALGORITHM DOCKED STATE
	_______________________________________________


Detailed state:  trans 37.741 16.079 121.543 quatxyzw 0.106393 -0.958284 -0.009934 0.265092 center 0.154 0.111 -0.146 ntor 7 20.5130 93.6517 175.1337 -179.8974 4.1821 169.8566 -146.1965
State:	 37.741  16.079 121.543   0.110 -0.994 -0.010 149.255     20.51   93.65  175.13 -179.90    4.18  169.86 -146.20

DOCKED: MODEL       58
DOCKED: USER    Run = 58
DOCKED: USER    DPF = ligand_dock.biased.dpf
DOCKED: USER  
DOCKED: USER    Estimated Free Energy of Binding    =  -12.15 kcal/mol  [=(1)+(2)+(3)-(4)]
DOCKED: USER    Estimated Inhibition Constant, Ki   =    1.25 nM (nanomolar)  [Temperature = 298.15 K]
DOCKED: USER    
DOCKED: USER    (1) Final Intermolecular Energy     =  -14.24 kcal/mol
DOCKED: USER        vdW + Hbond + desolv Energy     =  -14.24 kcal/mol
DOCKED: USER        Electrostatic Energy            =   +0.00 kcal/mol
DOCKED: USER    (2) Final Total Internal Energy     =   -1.37 kcal/mol
DOCKED: USER    (3) Torsional Free Energy           =   +2.09 kcal/mol
DOCKED: USER    (4) Unbound System's Energy  [=(2)] =   -1.37 kcal/mol
DOCKED: USER    
DOCKED: USER    
DOCKED: USER    NEWDPF move ligand.dum.pdbqt
DOCKED: USER    NEWDPF about 0.154000 0.111000 -0.146000
DOCKED: USER    NEWDPF tran0 37.740967 16.078925 121.542524
DOCKED: USER    NEWDPF quaternion0 0.106393 -0.958284 -0.009934 0.265092
DOCKED: USER    NEWDPF axisangle0 0.110340 -0.993840 -0.010303 149.255137
DOCKED: USER    NEWDPF quat0 0.110340 -0.993840 -0.010303 149.255137
DOCKED: USER    NEWDPF dihe0 20.51 93.65 175.13 -179.90 4.18 169.86 -146.20 
DOCKED: USER  keepresnum = 1 
DOCKED: USER  
DOCKED: REMARK  Name = 
DOCKED: REMARK  7 active torsions:
DOCKED: REMARK  status: ('A' for Active; 'I' for Inactive)
DOCKED: REMARK    1  A    between atoms: C_2  and  C_5
DOCKED: REMARK    2  A    between atoms: N_3  and  O_4
DOCKED: REMARK    3  A    between atoms: C_5  and  C_6
DOCKED: REMARK    4  A    between atoms: C_6  and  C_7
DOCKED: REMARK    5  A    between atoms: C_7  and  C_8
DOCKED: REMARK    6  A    between atoms: C_8  and  C_9
DOCKED: REMARK    7  A    between atoms: C_9  and  N_10
DOCKED: REMARK                            x       y       z     vdW  Elec       q    Type
DOCKED: REMARK                         _______ _______ _______ _____ _____    ______ ____
DOCKED: USER                              x       y       z     vdW  Elec       q    Type
DOCKED: USER                           _______ _______ _______ _____ _____    ______ ____
DOCKED: ROOT
DOCKED: ATOM      1  N   UNL     1      37.820  15.409 122.880 -0.33 -0.00    +0.000 N 
DOCKED: ATOM      2  C   UNL     1      37.857  16.541 123.771 -0.22 -0.00    +0.000 C 
DOCKED: ATOM      3  C   UNL     1      39.135  17.246 124.023 -0.14 -0.00    +0.000 A 
DOCKED: ATOM      4  C   UNL     1      39.177  18.367 124.871 -0.20 -0.00    +0.000 A 
DOCKED: ATOM      5  C   UNL     1      40.380  19.034 125.107 -0.20 -0.00    +0.000 A 
DOCKED: ATOM      6  C   UNL     1      41.558  18.594 124.504 -0.17 -0.00    +0.000 A 
DOCKED: ATOM      7  C   UNL     1      41.542  17.478 123.656 -0.31 -0.00    +0.000 A 
DOCKED: ATOM      8  C   UNL     1      42.727  17.035 123.051 -0.36 -0.00    +0.000 A 
DOCKED: ATOM      9  C   UNL     1      42.712  15.924 122.209 -0.37 -0.00    +0.000 A 
DOCKED: ATOM     10  C   UNL     1      41.519  15.244 121.960 -0.39 -0.00    +0.000 A 
DOCKED: ATOM     11  C   UNL     1      40.318  15.668 122.555 -0.34 -0.00    +0.000 A 
DOCKED: ATOM     12  C   UNL     1      40.324  16.793 123.409 -0.22 -0.00    +0.000 A 
DOCKED: ATOM     13  O   UNL     1      36.800  16.933 124.339 -0.29 -0.00    +0.000 OA
DOCKED: ATOM     14  C   UNL     1      39.052  14.947 122.289 -0.41 -0.00    +0.000 C 
DOCKED: ATOM     15  O   UNL     1      39.056  13.928 121.546 -0.68 -0.00    +0.000 OA
DOCKED: ATOM     16  CM  UNL     1      39.050  16.082 123.147 +0.00 -0.00    +0.000 AC
DOCKED: ATOM     17  CM  UNL     1      40.353  17.919 124.261 +0.00 -0.00    +0.000 AC
DOCKED: ATOM     18  CM  UNL     1      41.524  16.357 122.807 +0.00 -0.00    +0.000 AC
DOCKED: ENDROOT
DOCKED: BRANCH   1  16
DOCKED: ATOM     19  C   UNL     1      36.537  14.764 122.558 -0.37 -0.00    +0.000 C 
DOCKED: BRANCH  16  17
DOCKED: ATOM     20  C   UNL     1      35.968  14.001 123.767 -0.56 -0.00    +0.000 C 
DOCKED: BRANCH  17  18
DOCKED: ATOM     21  C   UNL     1      35.627  12.526 123.479 -0.51 -0.00    +0.000 C 
DOCKED: BRANCH  18  19
DOCKED: ATOM     22  C   UNL     1      36.850  11.597 123.335 -0.69 -0.00    +0.000 C 
DOCKED: BRANCH  19  20
DOCKED: ATOM     23  C   UNL     1      37.045  11.013 121.927 -0.54 -0.00    +0.000 C 
DOCKED: BRANCH  20  22
DOCKED: ATOM     24  O   UNL     1      37.061   8.881 120.847 -2.72 -0.00    +0.000 OA
DOCKED: ATOM     25  C   UNL     1      37.068   9.512 121.938 -0.61 -0.00    +0.000 C 
DOCKED: ATOM     26  N   UNL     1      37.064   8.796 123.176 -0.68 -0.00    +0.000 N 
DOCKED: ATOM     27  H   UNL     1      37.061   9.291 124.026 -0.53 -0.00    +0.000 HD
DOCKED: BRANCH  23  25
DOCKED: ATOM     28  O   UNL     1      37.062   7.442 123.188 -2.20 -0.00    +0.000 OA
DOCKED: ATOM     29  H   UNL     1      37.385   7.110 122.336 -0.19 -0.00    +0.000 HD
DOCKED: ENDBRANCH  23  25
DOCKED: ENDBRANCH  20  22
DOCKED: ENDBRANCH  19  20
DOCKED: ENDBRANCH  18  19
DOCKED: ENDBRANCH  17  18
DOCKED: ENDBRANCH  16  17
DOCKED: ENDBRANCH   1  16
DOCKED: TORSDOF 7DOCKED: TER
DOCKED: ENDMDL
________________________________________________________________________________


	BEGINNING GENETIC ALGORITHM DOCKING 59 of 100
Run: 59 Seed: 48919447 1755090281 [ Run 59 of 100 GA/GALS ]
Beginning LAMARCKIAN GENETIC ALGORITHM (LGA), with a maximum of 2500000 energy evaluations.

Final-Value: -14.274


	FINAL GENETIC ALGORITHM DOCKED STATE
	_______________________________________________


Detailed state:  trans 38.387 16.060 120.471 quatxyzw -0.731925 -0.317092 -0.295847 -0.525560 center 0.154 0.111 -0.146 ntor 7 -13.9585 -140.1846 168.5499 165.2100 -125.5134 40.2143 179.9152
State:	 38.387  16.060 120.471  -0.860 -0.373 -0.348 -116.588    -13.96 -140.18  168.55  165.21 -125.51   40.21  179.92

DOCKED: MODEL       59
DOCKED: USER    Run = 59
DOCKED: USER    DPF = ligand_dock.biased.dpf
DOCKED: USER  
DOCKED: USER    Estimated Free Energy of Binding    =  -10.71 kcal/mol  [=(1)+(2)+(3)-(4)]
DOCKED: USER    Estimated Inhibition Constant, Ki   =   14.04 nM (nanomolar)  [Temperature = 298.15 K]
DOCKED: USER    
DOCKED: USER    (1) Final Intermolecular Energy     =  -12.80 kcal/mol
DOCKED: USER        vdW + Hbond + desolv Energy     =  -12.80 kcal/mol
DOCKED: USER        Electrostatic Energy            =   +0.00 kcal/mol
DOCKED: USER    (2) Final Total Internal Energy     =   -1.47 kcal/mol
DOCKED: USER    (3) Torsional Free Energy           =   +2.09 kcal/mol
DOCKED: USER    (4) Unbound System's Energy  [=(2)] =   -1.47 kcal/mol
DOCKED: USER    
DOCKED: USER    
DOCKED: USER    NEWDPF move ligand.dum.pdbqt
DOCKED: USER    NEWDPF about 0.154000 0.111000 -0.146000
DOCKED: USER    NEWDPF tran0 38.386757 16.059845 120.470737
DOCKED: USER    NEWDPF quaternion0 -0.731925 -0.317092 -0.295847 -0.525560
DOCKED: USER    NEWDPF axisangle0 -0.860322 -0.372717 -0.347746 -116.588063
DOCKED: USER    NEWDPF quat0 -0.860322 -0.372717 -0.347746 -116.588063
DOCKED: USER    NEWDPF dihe0 -13.96 -140.18 168.55 165.21 -125.51 40.21 179.92 
DOCKED: USER  keepresnum = 1 
DOCKED: USER  
DOCKED: REMARK  Name = 
DOCKED: REMARK  7 active torsions:
DOCKED: REMARK  status: ('A' for Active; 'I' for Inactive)
DOCKED: REMARK    1  A    between atoms: C_2  and  C_5
DOCKED: REMARK    2  A    between atoms: N_3  and  O_4
DOCKED: REMARK    3  A    between atoms: C_5  and  C_6
DOCKED: REMARK    4  A    between atoms: C_6  and  C_7
DOCKED: REMARK    5  A    between atoms: C_7  and  C_8
DOCKED: REMARK    6  A    between atoms: C_8  and  C_9
DOCKED: REMARK    7  A    between atoms: C_9  and  N_10
DOCKED: REMARK                            x       y       z     vdW  Elec       q    Type
DOCKED: REMARK                         _______ _______ _______ _____ _____    ______ ____
DOCKED: USER                              x       y       z     vdW  Elec       q    Type
DOCKED: USER                           _______ _______ _______ _____ _____    ______ ____
DOCKED: ROOT
DOCKED: ATOM      1  N   UNL     1      37.328  15.033 120.734 -0.24 -0.00    +0.000 N 
DOCKED: ATOM      2  C   UNL     1      37.644  14.029 119.751 -0.36 -0.00    +0.000 C 
DOCKED: ATOM      3  C   UNL     1      37.177  14.185 118.354 -0.32 -0.00    +0.000 A 
DOCKED: ATOM      4  C   UNL     1      37.502  13.223 117.381 -0.34 -0.00    +0.000 A 
DOCKED: ATOM      5  C   UNL     1      37.065  13.370 116.064 -0.33 -0.00    +0.000 A 
DOCKED: ATOM      6  C   UNL     1      36.297  14.475 115.697 -0.25 -0.00    +0.000 A 
DOCKED: ATOM      7  C   UNL     1      35.960  15.447 116.649 -0.18 -0.00    +0.000 A 
DOCKED: ATOM      8  C   UNL     1      35.187  16.557 116.280 -0.10 -0.00    +0.000 A 
DOCKED: ATOM      9  C   UNL     1      34.849  17.523 117.227 -0.10 -0.00    +0.000 A 
DOCKED: ATOM     10  C   UNL     1      35.276  17.394 118.549 -0.13 -0.00    +0.000 A 
DOCKED: ATOM     11  C   UNL     1      36.052  16.290 118.944 -0.12 -0.00    +0.000 A 
DOCKED: ATOM     12  C   UNL     1      36.399  15.307 117.990 -0.21 -0.00    +0.000 A 
DOCKED: ATOM     13  O   UNL     1      38.320  13.015 120.078 -0.41 -0.00    +0.000 OA
DOCKED: ATOM     14  C   UNL     1      36.507  16.154 120.347 -0.16 -0.00    +0.000 C 
DOCKED: ATOM     15  O   UNL     1      36.173  17.021 121.200 -0.22 -0.00    +0.000 OA
DOCKED: ATOM     16  CM  UNL     1      36.864  15.163 119.391 +0.00 -0.00    +0.000 AC
DOCKED: ATOM     17  CM  UNL     1      36.734  14.335 117.022 +0.00 -0.00    +0.000 AC
DOCKED: ATOM     18  CM  UNL     1      35.620  16.420 117.606 +0.00 -0.00    +0.000 AC
DOCKED: ENDROOT
DOCKED: BRANCH   1  16
DOCKED: ATOM     19  C   UNL     1      37.867  14.926 122.100 -0.37 -0.00    +0.000 C 
DOCKED: BRANCH  16  17
DOCKED: ATOM     20  C   UNL     1      36.794  14.454 123.096 -0.49 -0.00    +0.000 C 
DOCKED: BRANCH  17  18
DOCKED: ATOM     21  C   UNL     1      36.930  12.978 123.518 -0.60 -0.00    +0.000 C 
DOCKED: BRANCH  18  19
DOCKED: ATOM     22  C   UNL     1      36.922  11.969 122.351 -0.61 -0.00    +0.000 C 
DOCKED: BRANCH  19  20
DOCKED: ATOM     23  C   UNL     1      35.919  10.816 122.510 -0.67 -0.00    +0.000 C 
DOCKED: BRANCH  20  22
DOCKED: ATOM     24  O   UNL     1      37.064   9.204 121.167 -2.74 -0.00    +0.000 OA
DOCKED: ATOM     25  C   UNL     1      36.562   9.476 122.290 -0.71 -0.00    +0.000 C 
DOCKED: ATOM     26  N   UNL     1      36.577   8.499 123.334 -0.66 -0.00    +0.000 N 
DOCKED: ATOM     27  H   UNL     1      36.177   8.712 124.207 -0.27 -0.00    +0.000 HD
DOCKED: BRANCH  23  25
DOCKED: ATOM     28  O   UNL     1      37.136   7.283 123.130 -2.05 -0.00    +0.000 OA
DOCKED: ATOM     29  H   UNL     1      37.282   7.149 122.180 -0.15 -0.00    +0.000 HD
DOCKED: ENDBRANCH  23  25
DOCKED: ENDBRANCH  20  22
DOCKED: ENDBRANCH  19  20
DOCKED: ENDBRANCH  18  19
DOCKED: ENDBRANCH  17  18
DOCKED: ENDBRANCH  16  17
DOCKED: ENDBRANCH   1  16
DOCKED: TORSDOF 7DOCKED: TER
DOCKED: ENDMDL
________________________________________________________________________________


	BEGINNING GENETIC ALGORITHM DOCKING 60 of 100
Run: 60 Seed: 1065036265 1826670848 [ Run 60 of 100 GA/GALS ]
Beginning LAMARCKIAN GENETIC ALGORITHM (LGA), with a maximum of 2500000 energy evaluations.

Final-Value: -14.598


	FINAL GENETIC ALGORITHM DOCKED STATE
	_______________________________________________


Detailed state:  trans 38.889 15.203 121.363 quatxyzw -0.708634 -0.226247 -0.321999 -0.585634 center 0.154 0.111 -0.146 ntor 7 -3.8330 -130.8540 -176.9212 35.5810 22.4262 -75.9028 -155.5343
State:	 38.889  15.203 121.363  -0.874 -0.279 -0.397 -108.304     -3.83 -130.85 -176.92   35.58   22.43  -75.90 -155.53

DOCKED: MODEL       60
DOCKED: USER    Run = 60
DOCKED: USER    DPF = ligand_dock.biased.dpf
DOCKED: USER  
DOCKED: USER    Estimated Free Energy of Binding    =  -10.81 kcal/mol  [=(1)+(2)+(3)-(4)]
DOCKED: USER    Estimated Inhibition Constant, Ki   =   11.88 nM (nanomolar)  [Temperature = 298.15 K]
DOCKED: USER    
DOCKED: USER    (1) Final Intermolecular Energy     =  -12.90 kcal/mol
DOCKED: USER        vdW + Hbond + desolv Energy     =  -12.90 kcal/mol
DOCKED: USER        Electrostatic Energy            =   +0.00 kcal/mol
DOCKED: USER    (2) Final Total Internal Energy     =   -1.70 kcal/mol
DOCKED: USER    (3) Torsional Free Energy           =   +2.09 kcal/mol
DOCKED: USER    (4) Unbound System's Energy  [=(2)] =   -1.70 kcal/mol
DOCKED: USER    
DOCKED: USER    
DOCKED: USER    NEWDPF move ligand.dum.pdbqt
DOCKED: USER    NEWDPF about 0.154000 0.111000 -0.146000
DOCKED: USER    NEWDPF tran0 38.888828 15.203454 121.362661
DOCKED: USER    NEWDPF quaternion0 -0.708634 -0.226247 -0.321999 -0.585634
DOCKED: USER    NEWDPF axisangle0 -0.874235 -0.279119 -0.397247 -108.304451
DOCKED: USER    NEWDPF quat0 -0.874235 -0.279119 -0.397247 -108.304451
DOCKED: USER    NEWDPF dihe0 -3.83 -130.85 -176.92 35.58 22.43 -75.90 -155.53 
DOCKED: USER  keepresnum = 1 
DOCKED: USER  
DOCKED: REMARK  Name = 
DOCKED: REMARK  7 active torsions:
DOCKED: REMARK  status: ('A' for Active; 'I' for Inactive)
DOCKED: REMARK    1  A    between atoms: C_2  and  C_5
DOCKED: REMARK    2  A    between atoms: N_3  and  O_4
DOCKED: REMARK    3  A    between atoms: C_5  and  C_6
DOCKED: REMARK    4  A    between atoms: C_6  and  C_7
DOCKED: REMARK    5  A    between atoms: C_7  and  C_8
DOCKED: REMARK    6  A    between atoms: C_8  and  C_9
DOCKED: REMARK    7  A    between atoms: C_9  and  N_10
DOCKED: REMARK                            x       y       z     vdW  Elec       q    Type
DOCKED: REMARK                         _______ _______ _______ _____ _____    ______ ____
DOCKED: USER                              x       y       z     vdW  Elec       q    Type
DOCKED: USER                           _______ _______ _______ _____ _____    ______ ____
DOCKED: ROOT
DOCKED: ATOM      1  N   UNL     1      37.739  14.259 121.535 -0.34 -0.00    +0.000 N 
DOCKED: ATOM      2  C   UNL     1      37.865  13.429 120.365 -0.43 -0.00    +0.000 C 
DOCKED: ATOM      3  C   UNL     1      37.321  13.888 119.066 -0.34 -0.00    +0.000 A 
DOCKED: ATOM      4  C   UNL     1      37.462  13.096 117.913 -0.32 -0.00    +0.000 A 
DOCKED: ATOM      5  C   UNL     1      36.953  13.530 116.688 -0.34 -0.00    +0.000 A 
DOCKED: ATOM      6  C   UNL     1      36.295  14.756 116.594 -0.25 -0.00    +0.000 A 
DOCKED: ATOM      7  C   UNL     1      36.142  15.563 117.730 -0.19 -0.00    +0.000 A 
DOCKED: ATOM      8  C   UNL     1      35.480  16.796 117.635 -0.13 -0.00    +0.000 A 
DOCKED: ATOM      9  C   UNL     1      35.325  17.597 118.765 -0.14 -0.00    +0.000 A 
DOCKED: ATOM     10  C   UNL     1      35.827  17.182 119.999 -0.15 -0.00    +0.000 A 
DOCKED: ATOM     11  C   UNL     1      36.495  15.950 120.120 -0.11 -0.00    +0.000 A 
DOCKED: ATOM     12  C   UNL     1      36.656  15.132 118.980 -0.21 -0.00    +0.000 A 
DOCKED: ATOM     13  O   UNL     1      38.439  12.307 120.445 -0.47 -0.00    +0.000 OA
DOCKED: ATOM     14  C   UNL     1      37.029  15.510 121.429 -0.26 -0.00    +0.000 C 
DOCKED: ATOM     15  O   UNL     1      36.860  16.233 122.449 -0.27 -0.00    +0.000 OA
DOCKED: ATOM     16  CM  UNL     1      37.199  14.683 120.284 +0.00 -0.00    +0.000 AC
DOCKED: ATOM     17  CM  UNL     1      36.805  14.328 117.828 +0.00 -0.00    +0.000 AC
DOCKED: ATOM     18  CM  UNL     1      35.987  16.370 118.871 +0.00 -0.00    +0.000 AC
DOCKED: ENDROOT
DOCKED: BRANCH   1  16
DOCKED: ATOM     19  C   UNL     1      38.357  13.845 122.806 -0.44 -0.00    +0.000 C 
DOCKED: BRANCH  16  17
DOCKED: ATOM     20  C   UNL     1      37.503  12.794 123.535 -0.49 -0.00    +0.000 C 
DOCKED: BRANCH  17  18
DOCKED: ATOM     21  C   UNL     1      36.085  12.621 122.956 -0.56 -0.00    +0.000 C 
DOCKED: BRANCH  18  19
DOCKED: ATOM     22  C   UNL     1      35.960  11.535 121.868 -0.45 -0.00    +0.000 C 
DOCKED: BRANCH  19  20
DOCKED: ATOM     23  C   UNL     1      35.351  10.210 122.354 -0.63 -0.00    +0.000 C 
DOCKED: BRANCH  20  22
DOCKED: ATOM     24  O   UNL     1      36.936   8.845 121.199 -2.66 -0.00    +0.000 OA
DOCKED: ATOM     25  C   UNL     1      36.336   9.079 122.282 -0.72 -0.00    +0.000 C 
DOCKED: ATOM     26  N   UNL     1      36.568   8.246 123.421 -0.68 -0.00    +0.000 N 
DOCKED: ATOM     27  H   UNL     1      36.091   8.426 124.262 -0.20 -0.00    +0.000 HD
DOCKED: BRANCH  23  25
DOCKED: ATOM     28  O   UNL     1      37.439   7.211 123.350 -1.80 -0.00    +0.000 OA
DOCKED: ATOM     29  H   UNL     1      37.776   7.133 122.444 -0.32 -0.00    +0.000 HD
DOCKED: ENDBRANCH  23  25
DOCKED: ENDBRANCH  20  22
DOCKED: ENDBRANCH  19  20
DOCKED: ENDBRANCH  18  19
DOCKED: ENDBRANCH  17  18
DOCKED: ENDBRANCH  16  17
DOCKED: ENDBRANCH   1  16
DOCKED: TORSDOF 7DOCKED: TER
DOCKED: ENDMDL
________________________________________________________________________________


	BEGINNING GENETIC ALGORITHM DOCKING 61 of 100
Run: 61 Seed: 815595601 1032757058 [ Run 61 of 100 GA/GALS ]
Beginning LAMARCKIAN GENETIC ALGORITHM (LGA), with a maximum of 2500000 energy evaluations.

Final-Value: -15.363


	FINAL GENETIC ALGORITHM DOCKED STATE
	_______________________________________________


Detailed state:  trans 34.123 16.710 123.246 quatxyzw 0.531317 -0.787696 -0.232918 0.207329 center 0.154 0.111 -0.146 ntor 7 2.7408 170.2915 111.1956 34.1244 154.5021 178.4410 168.4830
State:	 34.123  16.710 123.246   0.543 -0.805 -0.238 156.068      2.74  170.29  111.20   34.12  154.50  178.44  168.48

DOCKED: MODEL       61
DOCKED: USER    Run = 61
DOCKED: USER    DPF = ligand_dock.biased.dpf
DOCKED: USER  
DOCKED: USER    Estimated Free Energy of Binding    =  -12.13 kcal/mol  [=(1)+(2)+(3)-(4)]
DOCKED: USER    Estimated Inhibition Constant, Ki   =    1.28 nM (nanomolar)  [Temperature = 298.15 K]
DOCKED: USER    
DOCKED: USER    (1) Final Intermolecular Energy     =  -14.22 kcal/mol
DOCKED: USER        vdW + Hbond + desolv Energy     =  -14.22 kcal/mol
DOCKED: USER        Electrostatic Energy            =   +0.00 kcal/mol
DOCKED: USER    (2) Final Total Internal Energy     =   -1.15 kcal/mol
DOCKED: USER    (3) Torsional Free Energy           =   +2.09 kcal/mol
DOCKED: USER    (4) Unbound System's Energy  [=(2)] =   -1.15 kcal/mol
DOCKED: USER    
DOCKED: USER    
DOCKED: USER    NEWDPF move ligand.dum.pdbqt
DOCKED: USER    NEWDPF about 0.154000 0.111000 -0.146000
DOCKED: USER    NEWDPF tran0 34.123043 16.709763 123.246296
DOCKED: USER    NEWDPF quaternion0 0.531317 -0.787696 -0.232918 0.207329
DOCKED: USER    NEWDPF axisangle0 0.543119 -0.805192 -0.238092 156.068295
DOCKED: USER    NEWDPF quat0 0.543119 -0.805192 -0.238092 156.068295
DOCKED: USER    NEWDPF dihe0 2.74 170.29 111.20 34.12 154.50 178.44 168.48 
DOCKED: USER  keepresnum = 1 
DOCKED: USER  
DOCKED: REMARK  Name = 
DOCKED: REMARK  7 active torsions:
DOCKED: REMARK  status: ('A' for Active; 'I' for Inactive)
DOCKED: REMARK    1  A    between atoms: C_2  and  C_5
DOCKED: REMARK    2  A    between atoms: N_3  and  O_4
DOCKED: REMARK    3  A    between atoms: C_5  and  C_6
DOCKED: REMARK    4  A    between atoms: C_6  and  C_7
DOCKED: REMARK    5  A    between atoms: C_7  and  C_8
DOCKED: REMARK    6  A    between atoms: C_8  and  C_9
DOCKED: REMARK    7  A    between atoms: C_9  and  N_10
DOCKED: REMARK                            x       y       z     vdW  Elec       q    Type
DOCKED: REMARK                         _______ _______ _______ _____ _____    ______ ____
DOCKED: USER                              x       y       z     vdW  Elec       q    Type
DOCKED: USER                           _______ _______ _______ _____ _____    ______ ____
DOCKED: ROOT
DOCKED: ATOM      1  N   UNL     1      34.920  16.249 124.429 -0.46 -0.00    +0.000 N 
DOCKED: ATOM      2  C   UNL     1      34.121  16.735 125.525 -0.46 -0.00    +0.000 C 
DOCKED: ATOM      3  C   UNL     1      34.242  18.144 125.964 -0.30 -0.00    +0.000 A 
DOCKED: ATOM      4  C   UNL     1      33.449  18.634 127.017 -0.24 -0.00    +0.000 A 
DOCKED: ATOM      5  C   UNL     1      33.560  19.962 127.431 -0.13 -0.00    +0.000 A 
DOCKED: ATOM      6  C   UNL     1      34.463  20.821 126.803 -0.11 -0.00    +0.000 A 
DOCKED: ATOM      7  C   UNL     1      35.265  20.355 125.752 -0.14 -0.00    +0.000 A 
DOCKED: ATOM      8  C   UNL     1      36.173  21.219 125.122 -0.11 -0.00    +0.000 A 
DOCKED: ATOM      9  C   UNL     1      36.973  20.755 124.078 -0.11 -0.00    +0.000 A 
DOCKED: ATOM     10  C   UNL     1      36.877  19.431 123.651 -0.14 -0.00    +0.000 A 
DOCKED: ATOM     11  C   UNL     1      35.973  18.545 124.266 -0.21 -0.00    +0.000 A 
DOCKED: ATOM     12  C   UNL     1      35.159  19.007 125.324 -0.22 -0.00    +0.000 A 
DOCKED: ATOM     13  O   UNL     1      33.318  15.959 126.113 -0.96 -0.00    +0.000 OA
DOCKED: ATOM     14  C   UNL     1      35.870  17.140 123.811 -0.33 -0.00    +0.000 C 
DOCKED: ATOM     15  O   UNL     1      36.618  16.726 122.883 -0.26 -0.00    +0.000 OA
DOCKED: ATOM     16  CM  UNL     1      35.045  17.599 124.874 -0.45 -0.00    +0.000 AC
DOCKED: ATOM     17  CM  UNL     1      34.356  19.487 126.381 -0.01 -0.00    +0.000 AC
DOCKED: ATOM     18  CM  UNL     1      36.070  19.886 124.699 -0.01 -0.00    +0.000 AC
DOCKED: ENDROOT
DOCKED: BRANCH   1  16
DOCKED: ATOM     19  C   UNL     1      34.735  14.875 123.932 -0.54 -0.00    +0.000 C 
DOCKED: BRANCH  16  17
DOCKED: ATOM     20  C   UNL     1      35.995  14.021 124.152 -0.47 -0.00    +0.000 C 
DOCKED: BRANCH  17  18
DOCKED: ATOM     21  C   UNL     1      36.642  13.503 122.853 -0.55 -0.00    +0.000 C 
DOCKED: BRANCH  18  19
DOCKED: ATOM     22  C   UNL     1      37.088  12.026 122.898 -0.63 -0.00    +0.000 C 
DOCKED: BRANCH  19  20
DOCKED: ATOM     23  C   UNL     1      36.118  11.045 122.221 -0.63 -0.00    +0.000 C 
DOCKED: BRANCH  20  22
DOCKED: ATOM     24  O   UNL     1      36.991   9.164 121.034 -2.71 -0.00    +0.000 OA
DOCKED: ATOM     25  C   UNL     1      36.680   9.655 122.152 -0.69 -0.00    +0.000 C 
DOCKED: ATOM     26  N   UNL     1      36.832   8.875 123.341 -0.62 -0.00    +0.000 N 
DOCKED: ATOM     27  H   UNL     1      36.581   9.258 124.211 -0.44 -0.00    +0.000 HD
DOCKED: BRANCH  23  25
DOCKED: ATOM     28  O   UNL     1      37.318   7.612 123.278 -2.16 -0.00    +0.000 OA
DOCKED: ATOM     29  H   UNL     1      37.556   7.402 122.361 -0.12 -0.00    +0.000 HD
DOCKED: ENDBRANCH  23  25
DOCKED: ENDBRANCH  20  22
DOCKED: ENDBRANCH  19  20
DOCKED: ENDBRANCH  18  19
DOCKED: ENDBRANCH  17  18
DOCKED: ENDBRANCH  16  17
DOCKED: ENDBRANCH   1  16
DOCKED: TORSDOF 7DOCKED: TER
DOCKED: ENDMDL
________________________________________________________________________________


	BEGINNING GENETIC ALGORITHM DOCKING 62 of 100
Run: 62 Seed: 1758934690 1438079167 [ Run 62 of 100 GA/GALS ]
Beginning LAMARCKIAN GENETIC ALGORITHM (LGA), with a maximum of 2500000 energy evaluations.

Final-Value: -15.317


	FINAL GENETIC ALGORITHM DOCKED STATE
	_______________________________________________


Detailed state:  trans 38.210 15.948 121.307 quatxyzw 0.171051 -0.939936 0.016310 0.294951 center 0.154 0.111 -0.146 ntor 7 -25.2953 -161.4851 -177.2690 152.8497 -94.1588 179.9449 -134.6860
State:	 38.210  15.948 121.307   0.179 -0.984  0.017 145.691    -25.30 -161.49 -177.27  152.85  -94.16  179.94 -134.69

DOCKED: MODEL       62
DOCKED: USER    Run = 62
DOCKED: USER    DPF = ligand_dock.biased.dpf
DOCKED: USER  
DOCKED: USER    Estimated Free Energy of Binding    =  -12.07 kcal/mol  [=(1)+(2)+(3)-(4)]
DOCKED: USER    Estimated Inhibition Constant, Ki   =    1.43 nM (nanomolar)  [Temperature = 298.15 K]
DOCKED: USER    
DOCKED: USER    (1) Final Intermolecular Energy     =  -14.16 kcal/mol
DOCKED: USER        vdW + Hbond + desolv Energy     =  -14.16 kcal/mol
DOCKED: USER        Electrostatic Energy            =   +0.00 kcal/mol
DOCKED: USER    (2) Final Total Internal Energy     =   -1.16 kcal/mol
DOCKED: USER    (3) Torsional Free Energy           =   +2.09 kcal/mol
DOCKED: USER    (4) Unbound System's Energy  [=(2)] =   -1.16 kcal/mol
DOCKED: USER    
DOCKED: USER    
DOCKED: USER    NEWDPF move ligand.dum.pdbqt
DOCKED: USER    NEWDPF about 0.154000 0.111000 -0.146000
DOCKED: USER    NEWDPF tran0 38.210279 15.948212 121.306605
DOCKED: USER    NEWDPF quaternion0 0.171051 -0.939936 0.016310 0.294951
DOCKED: USER    NEWDPF axisangle0 0.179015 -0.983698 0.017070 145.690774
DOCKED: USER    NEWDPF quat0 0.179015 -0.983698 0.017070 145.690774
DOCKED: USER    NEWDPF dihe0 -25.30 -161.49 -177.27 152.85 -94.16 179.94 -134.69 
DOCKED: USER  keepresnum = 1 
DOCKED: USER  
DOCKED: REMARK  Name = 
DOCKED: REMARK  7 active torsions:
DOCKED: REMARK  status: ('A' for Active; 'I' for Inactive)
DOCKED: REMARK    1  A    between atoms: C_2  and  C_5
DOCKED: REMARK    2  A    between atoms: N_3  and  O_4
DOCKED: REMARK    3  A    between atoms: C_5  and  C_6
DOCKED: REMARK    4  A    between atoms: C_6  and  C_7
DOCKED: REMARK    5  A    between atoms: C_7  and  C_8
DOCKED: REMARK    6  A    between atoms: C_8  and  C_9
DOCKED: REMARK    7  A    between atoms: C_9  and  N_10
DOCKED: REMARK                            x       y       z     vdW  Elec       q    Type
DOCKED: REMARK                         _______ _______ _______ _____ _____    ______ ____
DOCKED: USER                              x       y       z     vdW  Elec       q    Type
DOCKED: USER                           _______ _______ _______ _____ _____    ______ ____
DOCKED: ROOT
DOCKED: ATOM      1  N   UNL     1      38.258  15.392 122.697 -0.32 -0.00    +0.000 N 
DOCKED: ATOM      2  C   UNL     1      38.101  16.583 123.492 -0.27 -0.00    +0.000 C 
DOCKED: ATOM      3  C   UNL     1      39.270  17.448 123.774 -0.21 -0.00    +0.000 A 
DOCKED: ATOM      4  C   UNL     1      39.121  18.625 124.528 -0.17 -0.00    +0.000 A 
DOCKED: ATOM      5  C   UNL     1      40.222  19.443 124.792 -0.14 -0.00    +0.000 A 
DOCKED: ATOM      6  C   UNL     1      41.485  19.099 124.310 -0.17 -0.00    +0.000 A 
DOCKED: ATOM      7  C   UNL     1      41.658  17.930 123.556 -0.26 -0.00    +0.000 A 
DOCKED: ATOM      8  C   UNL     1      42.928  17.584 123.073 -0.27 -0.00    +0.000 A 
DOCKED: ATOM      9  C   UNL     1      43.101  16.420 122.326 -0.36 -0.00    +0.000 A 
DOCKED: ATOM     10  C   UNL     1      42.014  15.589 122.051 -0.40 -0.00    +0.000 A 
DOCKED: ATOM     11  C   UNL     1      40.730  15.914 122.525 -0.35 -0.00    +0.000 A 
DOCKED: ATOM     12  C   UNL     1      40.546  17.092 123.283 -0.26 -0.00    +0.000 A 
DOCKED: ATOM     13  O   UNL     1      36.966  16.891 123.952 -0.31 -0.00    +0.000 OA
DOCKED: ATOM     14  C   UNL     1      39.575  15.034 122.232 -0.41 -0.00    +0.000 C 
DOCKED: ATOM     15  O   UNL     1      39.750  13.970 121.577 -0.84 -0.00    +0.000 OA
DOCKED: ATOM     16  CM  UNL     1      39.382  16.221 122.992 +0.00 -0.00    +0.000 AC
DOCKED: ATOM     17  CM  UNL     1      40.383  18.273 124.040 +0.00 -0.00    +0.000 AC
DOCKED: ATOM     18  CM  UNL     1      41.830  16.755 122.802 +0.00 -0.00    +0.000 AC
DOCKED: ENDROOT
DOCKED: BRANCH   1  16
DOCKED: ATOM     19  C   UNL     1      37.083  14.581 122.340 -0.41 -0.00    +0.000 C 
DOCKED: BRANCH  16  17
DOCKED: ATOM     20  C   UNL     1      36.341  14.080 123.592 -0.54 -0.00    +0.000 C 
DOCKED: BRANCH  17  18
DOCKED: ATOM     21  C   UNL     1      36.336  12.547 123.751 -0.66 -0.00    +0.000 C 
DOCKED: BRANCH  18  19
DOCKED: ATOM     22  C   UNL     1      36.496  11.760 122.434 -0.64 -0.00    +0.000 C 
DOCKED: BRANCH  19  20
DOCKED: ATOM     23  C   UNL     1      35.632  10.493 122.338 -0.64 -0.00    +0.000 C 
DOCKED: BRANCH  20  22
DOCKED: ATOM     24  O   UNL     1      36.936   8.865 121.171 -2.67 -0.00    +0.000 OA
DOCKED: ATOM     25  C   UNL     1      36.467   9.246 122.277 -0.72 -0.00    +0.000 C 
DOCKED: ATOM     26  N   UNL     1      36.703   8.473 123.456 -0.65 -0.00    +0.000 N 
DOCKED: ATOM     27  H   UNL     1      36.328   8.768 124.316 -0.28 -0.00    +0.000 HD
DOCKED: BRANCH  23  25
DOCKED: ATOM     28  O   UNL     1      37.437   7.336 123.398 -1.96 -0.00    +0.000 OA
DOCKED: ATOM     29  H   UNL     1      37.394   6.968 122.501 -0.24 -0.00    +0.000 HD
DOCKED: ENDBRANCH  23  25
DOCKED: ENDBRANCH  20  22
DOCKED: ENDBRANCH  19  20
DOCKED: ENDBRANCH  18  19
DOCKED: ENDBRANCH  17  18
DOCKED: ENDBRANCH  16  17
DOCKED: ENDBRANCH   1  16
DOCKED: TORSDOF 7DOCKED: TER
DOCKED: ENDMDL
________________________________________________________________________________


	BEGINNING GENETIC ALGORITHM DOCKING 63 of 100
Run: 63 Seed: 1707686025 201323973 [ Run 63 of 100 GA/GALS ]
Beginning LAMARCKIAN GENETIC ALGORITHM (LGA), with a maximum of 2500000 energy evaluations.

Final-Value: -13.568


	FINAL GENETIC ALGORITHM DOCKED STATE
	_______________________________________________


Detailed state:  trans 36.743 14.286 125.152 quatxyzw 0.057436 0.280583 0.695388 0.659097 center 0.154 0.111 -0.146 ntor 7 -180.0000 -97.6805 -154.1531 132.8112 157.7392 120.4115 -131.2843
State:	 36.743  14.286 125.152   0.076  0.373  0.925 97.538   -180.00  -97.68 -154.15  132.81  157.74  120.41 -131.28

DOCKED: MODEL       63
DOCKED: USER    Run = 63
DOCKED: USER    DPF = ligand_dock.biased.dpf
DOCKED: USER  
DOCKED: USER    Estimated Free Energy of Binding    =  -10.91 kcal/mol  [=(1)+(2)+(3)-(4)]
DOCKED: USER    Estimated Inhibition Constant, Ki   =   10.02 nM (nanomolar)  [Temperature = 298.15 K]
DOCKED: USER    
DOCKED: USER    (1) Final Intermolecular Energy     =  -13.00 kcal/mol
DOCKED: USER        vdW + Hbond + desolv Energy     =  -13.00 kcal/mol
DOCKED: USER        Electrostatic Energy            =   +0.00 kcal/mol
DOCKED: USER    (2) Final Total Internal Energy     =   -0.57 kcal/mol
DOCKED: USER    (3) Torsional Free Energy           =   +2.09 kcal/mol
DOCKED: USER    (4) Unbound System's Energy  [=(2)] =   -0.57 kcal/mol
DOCKED: USER    
DOCKED: USER    
DOCKED: USER    NEWDPF move ligand.dum.pdbqt
DOCKED: USER    NEWDPF about 0.154000 0.111000 -0.146000
DOCKED: USER    NEWDPF tran0 36.743030 14.285791 125.151803
DOCKED: USER    NEWDPF quaternion0 0.057436 0.280583 0.695388 0.659097
DOCKED: USER    NEWDPF axisangle0 0.076372 0.373087 0.924648 97.537843
DOCKED: USER    NEWDPF quat0 0.076372 0.373087 0.924648 97.537843
DOCKED: USER    NEWDPF dihe0 -180.00 -97.68 -154.15 132.81 157.74 120.41 -131.28 
DOCKED: USER  keepresnum = 1 
DOCKED: USER  
DOCKED: REMARK  Name = 
DOCKED: REMARK  7 active torsions:
DOCKED: REMARK  status: ('A' for Active; 'I' for Inactive)
DOCKED: REMARK    1  A    between atoms: C_2  and  C_5
DOCKED: REMARK    2  A    between atoms: N_3  and  O_4
DOCKED: REMARK    3  A    between atoms: C_5  and  C_6
DOCKED: REMARK    4  A    between atoms: C_6  and  C_7
DOCKED: REMARK    5  A    between atoms: C_7  and  C_8
DOCKED: REMARK    6  A    between atoms: C_8  and  C_9
DOCKED: REMARK    7  A    between atoms: C_9  and  N_10
DOCKED: REMARK                            x       y       z     vdW  Elec       q    Type
DOCKED: REMARK                         _______ _______ _______ _____ _____    ______ ____
DOCKED: USER                              x       y       z     vdW  Elec       q    Type
DOCKED: USER                           _______ _______ _______ _____ _____    ______ ____
DOCKED: ROOT
DOCKED: ATOM      1  N   UNL     1      36.472  14.271 123.678 -0.49 -0.00    +0.000 N 
DOCKED: ATOM      2  C   UNL     1      37.763  14.619 123.141 -0.43 -0.00    +0.000 C 
DOCKED: ATOM      3  C   UNL     1      38.180  16.038 123.073 -0.27 -0.00    +0.000 A 
DOCKED: ATOM      4  C   UNL     1      39.448  16.386 122.574 -0.24 -0.00    +0.000 A 
DOCKED: ATOM      5  C   UNL     1      39.844  17.723 122.511 -0.14 -0.00    +0.000 A 
DOCKED: ATOM      6  C   UNL     1      38.983  18.732 122.943 -0.09 -0.00    +0.000 A 
DOCKED: ATOM      7  C   UNL     1      37.714  18.411 123.444 -0.14 -0.00    +0.000 A 
DOCKED: ATOM      8  C   UNL     1      36.849  19.426 123.878 -0.14 -0.00    +0.000 A 
DOCKED: ATOM      9  C   UNL     1      35.586  19.106 124.374 -0.21 -0.00    +0.000 A 
DOCKED: ATOM     10  C   UNL     1      35.172  17.776 124.444 -0.30 -0.00    +0.000 A 
DOCKED: ATOM     11  C   UNL     1      36.021  16.739 124.016 -0.31 -0.00    +0.000 A 
DOCKED: ATOM     12  C   UNL     1      37.303  17.055 123.512 -0.22 -0.00    +0.000 A 
DOCKED: ATOM     13  O   UNL     1      38.539  13.714 122.727 -0.59 -0.00    +0.000 OA
DOCKED: ATOM     14  C   UNL     1      35.582  15.327 124.092 -0.51 -0.00    +0.000 C 
DOCKED: ATOM     15  O   UNL     1      34.427  15.053 124.519 -0.65 -0.00    +0.000 OA
DOCKED: ATOM     16  CM  UNL     1      36.875  15.637 123.588 +0.00 -0.00    +0.000 AC
DOCKED: ATOM     17  CM  UNL     1      38.579  17.391 123.010 +0.00 -0.00    +0.000 AC
DOCKED: ATOM     18  CM  UNL     1      36.440  18.086 123.944 -0.04 -0.00    +0.000 AC
DOCKED: ENDROOT
DOCKED: BRANCH   1  16
DOCKED: ATOM     19  C   UNL     1      36.092  12.857 123.831 -0.62 -0.00    +0.000 C 
DOCKED: BRANCH  16  17
DOCKED: ATOM     20  C   UNL     1      36.213  12.092 122.502 -0.57 -0.00    +0.000 C 
DOCKED: BRANCH  17  18
DOCKED: ATOM     21  C   UNL     1      35.732  10.630 122.568 -0.66 -0.00    +0.000 C 
DOCKED: BRANCH  18  19
DOCKED: ATOM     22  C   UNL     1      36.689   9.605 121.925 -0.66 -0.00    +0.000 C 
DOCKED: BRANCH  19  20
DOCKED: ATOM     23  C   UNL     1      36.041   8.256 121.578 -0.64 -0.00    +0.000 C 
DOCKED: BRANCH  20  22
DOCKED: ATOM     24  O   UNL     1      37.065   7.432 123.573 -2.03 -0.00    +0.000 OA
DOCKED: ATOM     25  C   UNL     1      36.179   7.260 122.693 -0.78 -0.00    +0.000 C 
DOCKED: ATOM     26  N   UNL     1      35.338   6.106 122.743 -0.66 -0.00    +0.000 N 
DOCKED: ATOM     27  H   UNL     1      34.653   5.971 122.050 -0.03 -0.00    +0.000 HD
DOCKED: BRANCH  23  25
DOCKED: ATOM     28  O   UNL     1      35.476   5.196 123.737 -0.97 -0.00    +0.000 OA
DOCKED: ATOM     29  H   UNL     1      34.830   4.482 123.615 -0.61 -0.00    +0.000 HD
DOCKED: ENDBRANCH  23  25
DOCKED: ENDBRANCH  20  22
DOCKED: ENDBRANCH  19  20
DOCKED: ENDBRANCH  18  19
DOCKED: ENDBRANCH  17  18
DOCKED: ENDBRANCH  16  17
DOCKED: ENDBRANCH   1  16
DOCKED: TORSDOF 7DOCKED: TER
DOCKED: ENDMDL
________________________________________________________________________________


	BEGINNING GENETIC ALGORITHM DOCKING 64 of 100
Run: 64 Seed: 1701225107 483416314 [ Run 64 of 100 GA/GALS ]
Beginning LAMARCKIAN GENETIC ALGORITHM (LGA), with a maximum of 2500000 energy evaluations.

Final-Value: -14.679


	FINAL GENETIC ALGORITHM DOCKED STATE
	_______________________________________________


Detailed state:  trans 35.910 17.195 122.106 quatxyzw 0.571284 -0.553082 -0.398399 0.457179 center 0.154 0.111 -0.146 ntor 7 11.8682 -110.7804 152.2902 -97.0360 162.7984 122.2057 -137.0784
State:	 35.910  17.195 122.106   0.642 -0.622 -0.448 125.590     11.87 -110.78  152.29  -97.04  162.80  122.21 -137.08

DOCKED: MODEL       64
DOCKED: USER    Run = 64
DOCKED: USER    DPF = ligand_dock.biased.dpf
DOCKED: USER  
DOCKED: USER    Estimated Free Energy of Binding    =  -11.43 kcal/mol  [=(1)+(2)+(3)-(4)]
DOCKED: USER    Estimated Inhibition Constant, Ki   =    4.20 nM (nanomolar)  [Temperature = 298.15 K]
DOCKED: USER    
DOCKED: USER    (1) Final Intermolecular Energy     =  -13.52 kcal/mol
DOCKED: USER        vdW + Hbond + desolv Energy     =  -13.52 kcal/mol
DOCKED: USER        Electrostatic Energy            =   +0.00 kcal/mol
DOCKED: USER    (2) Final Total Internal Energy     =   -1.16 kcal/mol
DOCKED: USER    (3) Torsional Free Energy           =   +2.09 kcal/mol
DOCKED: USER    (4) Unbound System's Energy  [=(2)] =   -1.16 kcal/mol
DOCKED: USER    
DOCKED: USER    
DOCKED: USER    NEWDPF move ligand.dum.pdbqt
DOCKED: USER    NEWDPF about 0.154000 0.111000 -0.146000
DOCKED: USER    NEWDPF tran0 35.910144 17.194572 122.105692
DOCKED: USER    NEWDPF quaternion0 0.571284 -0.553082 -0.398399 0.457179
DOCKED: USER    NEWDPF axisangle0 0.642344 -0.621877 -0.447954 125.589524
DOCKED: USER    NEWDPF quat0 0.642344 -0.621877 -0.447954 125.589524
DOCKED: USER    NEWDPF dihe0 11.87 -110.78 152.29 -97.04 162.80 122.21 -137.08 
DOCKED: USER  keepresnum = 1 
DOCKED: USER  
DOCKED: REMARK  Name = 
DOCKED: REMARK  7 active torsions:
DOCKED: REMARK  status: ('A' for Active; 'I' for Inactive)
DOCKED: REMARK    1  A    between atoms: C_2  and  C_5
DOCKED: REMARK    2  A    between atoms: N_3  and  O_4
DOCKED: REMARK    3  A    between atoms: C_5  and  C_6
DOCKED: REMARK    4  A    between atoms: C_6  and  C_7
DOCKED: REMARK    5  A    between atoms: C_7  and  C_8
DOCKED: REMARK    6  A    between atoms: C_8  and  C_9
DOCKED: REMARK    7  A    between atoms: C_9  and  N_10
DOCKED: REMARK                            x       y       z     vdW  Elec       q    Type
DOCKED: REMARK                         _______ _______ _______ _____ _____    ______ ____
DOCKED: USER                              x       y       z     vdW  Elec       q    Type
DOCKED: USER                           _______ _______ _______ _____ _____    ______ ____
DOCKED: ROOT
DOCKED: ATOM      1  N   UNL     1      36.526  16.221 123.063 -0.30 -0.00    +0.000 N 
DOCKED: ATOM      2  C   UNL     1      35.382  15.806 123.833 -0.50 -0.00    +0.000 C 
DOCKED: ATOM      3  C   UNL     1      34.901  16.642 124.958 -0.37 -0.00    +0.000 A 
DOCKED: ATOM      4  C   UNL     1      33.770  16.258 125.699 -0.32 -0.00    +0.000 A 
DOCKED: ATOM      5  C   UNL     1      33.314  17.046 126.758 -0.35 -0.00    +0.000 A 
DOCKED: ATOM      6  C   UNL     1      33.978  18.226 127.093 -0.24 -0.00    +0.000 A 
DOCKED: ATOM      7  C   UNL     1      35.109  18.629 126.369 -0.20 -0.00    +0.000 A 
DOCKED: ATOM      8  C   UNL     1      35.777  19.814 126.707 -0.12 -0.00    +0.000 A 
DOCKED: ATOM      9  C   UNL     1      36.903  20.214 125.989 -0.09 -0.00    +0.000 A 
DOCKED: ATOM     10  C   UNL     1      37.374  19.440 124.928 -0.12 -0.00    +0.000 A 
DOCKED: ATOM     11  C   UNL     1      36.721  18.247 124.569 -0.19 -0.00    +0.000 A 
DOCKED: ATOM     12  C   UNL     1      35.580  17.835 125.292 -0.23 -0.00    +0.000 A 
DOCKED: ATOM     13  O   UNL     1      34.787  14.729 123.552 -0.59 -0.00    +0.000 OA
DOCKED: ATOM     14  C   UNL     1      37.221  17.426 123.442 -0.24 -0.00    +0.000 C 
DOCKED: ATOM     15  O   UNL     1      38.256  17.786 122.816 -0.15 -0.00    +0.000 OA
DOCKED: ATOM     16  CM  UNL     1      36.068  17.008 124.162 -0.08 -0.00    +0.000 AC
DOCKED: ATOM     17  CM  UNL     1      34.442  17.439 126.028 -0.20 -0.00    +0.000 AC
DOCKED: ATOM     18  CM  UNL     1      36.244  19.030 125.642 -0.04 -0.00    +0.000 AC
DOCKED: ENDROOT
DOCKED: BRANCH   1  16
DOCKED: ATOM     19  C   UNL     1      36.950  15.439 121.890 -0.29 -0.00    +0.000 C 
DOCKED: BRANCH  16  17
DOCKED: ATOM     20  C   UNL     1      37.339  14.002 122.278 -0.47 -0.00    +0.000 C 
DOCKED: BRANCH  17  18
DOCKED: ATOM     21  C   UNL     1      37.930  13.173 121.122 -0.46 -0.00    +0.000 C 
DOCKED: BRANCH  18  19
DOCKED: ATOM     22  C   UNL     1      37.259  11.803 120.900 -0.51 -0.00    +0.000 C 
DOCKED: BRANCH  19  20
DOCKED: ATOM     23  C   UNL     1      36.698  11.152 122.175 -0.64 -0.00    +0.000 C 
DOCKED: BRANCH  20  22
DOCKED: ATOM     24  O   UNL     1      36.730   9.046 121.045 -2.62 -0.00    +0.000 OA
DOCKED: ATOM     25  C   UNL     1      36.821   9.656 122.144 -0.66 -0.00    +0.000 C 
DOCKED: ATOM     26  N   UNL     1      37.007   8.920 123.356 -0.62 -0.00    +0.000 N 
DOCKED: ATOM     27  H   UNL     1      37.070   9.398 124.213 -0.58 -0.00    +0.000 HD
DOCKED: BRANCH  23  25
DOCKED: ATOM     28  O   UNL     1      37.096   7.568 123.333 -2.22 -0.00    +0.000 OA
DOCKED: ATOM     29  H   UNL     1      37.204   7.266 122.417 -0.12 -0.00    +0.000 HD
DOCKED: ENDBRANCH  23  25
DOCKED: ENDBRANCH  20  22
DOCKED: ENDBRANCH  19  20
DOCKED: ENDBRANCH  18  19
DOCKED: ENDBRANCH  17  18
DOCKED: ENDBRANCH  16  17
DOCKED: ENDBRANCH   1  16
DOCKED: TORSDOF 7DOCKED: TER
DOCKED: ENDMDL
________________________________________________________________________________


	BEGINNING GENETIC ALGORITHM DOCKING 65 of 100
Run: 65 Seed: 745861369 1238094000 [ Run 65 of 100 GA/GALS ]
Beginning LAMARCKIAN GENETIC ALGORITHM (LGA), with a maximum of 2500000 energy evaluations.

Final-Value: -14.827


	FINAL GENETIC ALGORITHM DOCKED STATE
	_______________________________________________


Detailed state:  trans 36.317 13.800 121.475 quatxyzw 0.468436 -0.676778 0.234237 -0.517371 center 0.154 0.111 -0.146 ntor 7 -18.9435 168.0089 138.8775 165.9483 -60.0437 31.9670 -15.2233
State:	 36.317  13.800 121.475   0.547 -0.791  0.274 -117.688    -18.94  168.01  138.88  165.95  -60.04   31.97  -15.22

DOCKED: MODEL       65
DOCKED: USER    Run = 65
DOCKED: USER    DPF = ligand_dock.biased.dpf
DOCKED: USER  
DOCKED: USER    Estimated Free Energy of Binding    =  -11.08 kcal/mol  [=(1)+(2)+(3)-(4)]
DOCKED: USER    Estimated Inhibition Constant, Ki   =    7.53 nM (nanomolar)  [Temperature = 298.15 K]
DOCKED: USER    
DOCKED: USER    (1) Final Intermolecular Energy     =  -13.17 kcal/mol
DOCKED: USER        vdW + Hbond + desolv Energy     =  -13.17 kcal/mol
DOCKED: USER        Electrostatic Energy            =   +0.00 kcal/mol
DOCKED: USER    (2) Final Total Internal Energy     =   -1.66 kcal/mol
DOCKED: USER    (3) Torsional Free Energy           =   +2.09 kcal/mol
DOCKED: USER    (4) Unbound System's Energy  [=(2)] =   -1.66 kcal/mol
DOCKED: USER    
DOCKED: USER    
DOCKED: USER    NEWDPF move ligand.dum.pdbqt
DOCKED: USER    NEWDPF about 0.154000 0.111000 -0.146000
DOCKED: USER    NEWDPF tran0 36.316517 13.800436 121.475037
DOCKED: USER    NEWDPF quaternion0 0.468436 -0.676778 0.234237 -0.517371
DOCKED: USER    NEWDPF axisangle0 0.547391 -0.790849 0.273718 -117.687843
DOCKED: USER    NEWDPF quat0 0.547391 -0.790849 0.273718 -117.687843
DOCKED: USER    NEWDPF dihe0 -18.94 168.01 138.88 165.95 -60.04 31.97 -15.22 
DOCKED: USER  keepresnum = 1 
DOCKED: USER  
DOCKED: REMARK  Name = 
DOCKED: REMARK  7 active torsions:
DOCKED: REMARK  status: ('A' for Active; 'I' for Inactive)
DOCKED: REMARK    1  A    between atoms: C_2  and  C_5
DOCKED: REMARK    2  A    between atoms: N_3  and  O_4
DOCKED: REMARK    3  A    between atoms: C_5  and  C_6
DOCKED: REMARK    4  A    between atoms: C_6  and  C_7
DOCKED: REMARK    5  A    between atoms: C_7  and  C_8
DOCKED: REMARK    6  A    between atoms: C_8  and  C_9
DOCKED: REMARK    7  A    between atoms: C_9  and  N_10
DOCKED: REMARK                            x       y       z     vdW  Elec       q    Type
DOCKED: REMARK                         _______ _______ _______ _____ _____    ______ ____
DOCKED: USER                              x       y       z     vdW  Elec       q    Type
DOCKED: USER                           _______ _______ _______ _____ _____    ______ ____
DOCKED: ROOT
DOCKED: ATOM      1  N   UNL     1      37.522  14.646 121.199 -0.29 -0.00    +0.000 N 
DOCKED: ATOM      2  C   UNL     1      36.925  15.935 120.959 -0.21 -0.00    +0.000 C 
DOCKED: ATOM      3  C   UNL     1      36.366  16.258 119.626 -0.14 -0.00    +0.000 A 
DOCKED: ATOM      4  C   UNL     1      35.759  17.504 119.390 -0.14 -0.00    +0.000 A 
DOCKED: ATOM      5  C   UNL     1      35.229  17.808 118.135 -0.12 -0.00    +0.000 A 
DOCKED: ATOM      6  C   UNL     1      35.298  16.878 117.098 -0.11 -0.00    +0.000 A 
DOCKED: ATOM      7  C   UNL     1      35.899  15.629 117.309 -0.18 -0.00    +0.000 A 
DOCKED: ATOM      8  C   UNL     1      35.969  14.695 116.266 -0.25 -0.00    +0.000 A 
DOCKED: ATOM      9  C   UNL     1      36.569  13.454 116.475 -0.27 -0.00    +0.000 A 
DOCKED: ATOM     10  C   UNL     1      37.104  13.131 117.723 -0.28 -0.00    +0.000 A 
DOCKED: ATOM     11  C   UNL     1      37.047  14.051 118.785 -0.33 -0.00    +0.000 A 
DOCKED: ATOM     12  C   UNL     1      36.440  15.310 118.581 -0.20 -0.00    +0.000 A 
DOCKED: ATOM     13  O   UNL     1      36.878  16.792 121.885 -0.20 -0.00    +0.000 OA
DOCKED: ATOM     14  C   UNL     1      37.614  13.707 120.109 -0.41 -0.00    +0.000 C 
DOCKED: ATOM     15  O   UNL     1      38.177  12.591 120.278 -0.50 -0.00    +0.000 OA
DOCKED: ATOM     16  CM  UNL     1      37.000  14.975 119.912 +0.00 -0.00    +0.000 AC
DOCKED: ATOM     17  CM  UNL     1      35.831  16.564 118.357 +0.00 -0.00    +0.000 AC
DOCKED: ATOM     18  CM  UNL     1      36.505  14.378 117.523 +0.00 -0.00    +0.000 AC
DOCKED: ENDROOT
DOCKED: BRANCH   1  16
DOCKED: ATOM     19  C   UNL     1      37.996  14.290 122.547 -0.46 -0.00    +0.000 C 
DOCKED: BRANCH  16  17
DOCKED: ATOM     20  C   UNL     1      36.850  14.310 123.573 -0.46 -0.00    +0.000 C 
DOCKED: BRANCH  17  18
DOCKED: ATOM     21  C   UNL     1      36.210  12.932 123.831 -0.62 -0.00    +0.000 C 
DOCKED: BRANCH  18  19
DOCKED: ATOM     22  C   UNL     1      36.957  11.744 123.193 -0.67 -0.00    +0.000 C 
DOCKED: BRANCH  19  20
DOCKED: ATOM     23  C   UNL     1      36.076  10.821 122.336 -0.67 -0.00    +0.000 C 
DOCKED: BRANCH  20  22
DOCKED: ATOM     24  O   UNL     1      37.061   9.089 121.015 -2.73 -0.00    +0.000 OA
DOCKED: ATOM     25  C   UNL     1      36.688   9.461 122.160 -0.71 -0.00    +0.000 C 
DOCKED: ATOM     26  N   UNL     1      36.818   8.575 123.275 -0.67 -0.00    +0.000 N 
DOCKED: ATOM     27  H   UNL     1      36.518   8.865 124.166 -0.38 -0.00    +0.000 HD
DOCKED: BRANCH  23  25
DOCKED: ATOM     28  O   UNL     1      37.349   7.340 123.115 -1.99 -0.00    +0.000 OA
DOCKED: ATOM     29  H   UNL     1      37.315   7.092 122.177 -0.17 -0.00    +0.000 HD
DOCKED: ENDBRANCH  23  25
DOCKED: ENDBRANCH  20  22
DOCKED: ENDBRANCH  19  20
DOCKED: ENDBRANCH  18  19
DOCKED: ENDBRANCH  17  18
DOCKED: ENDBRANCH  16  17
DOCKED: ENDBRANCH   1  16
DOCKED: TORSDOF 7DOCKED: TER
DOCKED: ENDMDL
________________________________________________________________________________


	BEGINNING GENETIC ALGORITHM DOCKING 66 of 100
Run: 66 Seed: 1028598828 523223255 [ Run 66 of 100 GA/GALS ]
Beginning LAMARCKIAN GENETIC ALGORITHM (LGA), with a maximum of 2500000 energy evaluations.

Final-Value: -14.669


	FINAL GENETIC ALGORITHM DOCKED STATE
	_______________________________________________


Detailed state:  trans 38.265 14.811 124.121 quatxyzw -0.030597 -0.162581 -0.902116 -0.398520 center 0.154 0.111 -0.146 ntor 7 -38.7655 177.2385 175.4359 135.3327 -64.6425 154.4781 44.2987
State:	 38.265  14.811 124.121  -0.033 -0.177 -0.984 -133.029    -38.77  177.24  175.44  135.33  -64.64  154.48   44.30

DOCKED: MODEL       66
DOCKED: USER    Run = 66
DOCKED: USER    DPF = ligand_dock.biased.dpf
DOCKED: USER  
DOCKED: USER    Estimated Free Energy of Binding    =  -11.53 kcal/mol  [=(1)+(2)+(3)-(4)]
DOCKED: USER    Estimated Inhibition Constant, Ki   =    3.53 nM (nanomolar)  [Temperature = 298.15 K]
DOCKED: USER    
DOCKED: USER    (1) Final Intermolecular Energy     =  -13.62 kcal/mol
DOCKED: USER        vdW + Hbond + desolv Energy     =  -13.62 kcal/mol
DOCKED: USER        Electrostatic Energy            =   +0.00 kcal/mol
DOCKED: USER    (2) Final Total Internal Energy     =   -1.05 kcal/mol
DOCKED: USER    (3) Torsional Free Energy           =   +2.09 kcal/mol
DOCKED: USER    (4) Unbound System's Energy  [=(2)] =   -1.05 kcal/mol
DOCKED: USER    
DOCKED: USER    
DOCKED: USER    NEWDPF move ligand.dum.pdbqt
DOCKED: USER    NEWDPF about 0.154000 0.111000 -0.146000
DOCKED: USER    NEWDPF tran0 38.264634 14.811310 124.121396
DOCKED: USER    NEWDPF quaternion0 -0.030597 -0.162581 -0.902116 -0.398520
DOCKED: USER    NEWDPF axisangle0 -0.033360 -0.177266 -0.983597 -133.028666
DOCKED: USER    NEWDPF quat0 -0.033360 -0.177266 -0.983597 -133.028666
DOCKED: USER    NEWDPF dihe0 -38.77 177.24 175.44 135.33 -64.64 154.48 44.30 
DOCKED: USER  keepresnum = 1 
DOCKED: USER  
DOCKED: REMARK  Name = 
DOCKED: REMARK  7 active torsions:
DOCKED: REMARK  status: ('A' for Active; 'I' for Inactive)
DOCKED: REMARK    1  A    between atoms: C_2  and  C_5
DOCKED: REMARK    2  A    between atoms: N_3  and  O_4
DOCKED: REMARK    3  A    between atoms: C_5  and  C_6
DOCKED: REMARK    4  A    between atoms: C_6  and  C_7
DOCKED: REMARK    5  A    between atoms: C_7  and  C_8
DOCKED: REMARK    6  A    between atoms: C_8  and  C_9
DOCKED: REMARK    7  A    between atoms: C_9  and  N_10
DOCKED: REMARK                            x       y       z     vdW  Elec       q    Type
DOCKED: REMARK                         _______ _______ _______ _____ _____    ______ ____
DOCKED: USER                              x       y       z     vdW  Elec       q    Type
DOCKED: USER                           _______ _______ _______ _____ _____    ______ ____
DOCKED: ROOT
DOCKED: ATOM      1  N   UNL     1      38.245  15.333 122.717 -0.33 -0.00    +0.000 N 
DOCKED: ATOM      2  C   UNL     1      39.553  14.956 122.248 -0.42 -0.00    +0.000 C 
DOCKED: ATOM      3  C   UNL     1      40.728  15.799 122.568 -0.36 -0.00    +0.000 A 
DOCKED: ATOM      4  C   UNL     1      42.013  15.426 122.135 -0.41 -0.00    +0.000 A 
DOCKED: ATOM      5  C   UNL     1      43.122  16.219 122.438 -0.34 -0.00    +0.000 A 
DOCKED: ATOM      6  C   UNL     1      42.967  17.393 123.175 -0.25 -0.00    +0.000 A 
DOCKED: ATOM      7  C   UNL     1      41.696  17.786 123.617 -0.28 -0.00    +0.000 A 
DOCKED: ATOM      8  C   UNL     1      41.540  18.967 124.357 -0.17 -0.00    +0.000 A 
DOCKED: ATOM      9  C   UNL     1      40.276  19.359 124.794 -0.15 -0.00    +0.000 A 
DOCKED: ATOM     10  C   UNL     1      39.155  18.581 124.501 -0.17 -0.00    +0.000 A 
DOCKED: ATOM     11  C   UNL     1      39.285  17.392 123.761 -0.21 -0.00    +0.000 A 
DOCKED: ATOM     12  C   UNL     1      40.563  16.987 123.314 -0.26 -0.00    +0.000 A 
DOCKED: ATOM     13  O   UNL     1      39.700  13.907 121.561 -0.82 -0.00    +0.000 OA
DOCKED: ATOM     14  C   UNL     1      38.096  16.566 123.451 -0.28 -0.00    +0.000 C 
DOCKED: ATOM     15  O   UNL     1      36.954  16.945 123.830 -0.30 -0.00    +0.000 OA
DOCKED: ATOM     16  CM  UNL     1      39.380  16.150 123.002 +0.00 -0.00    +0.000 AC
DOCKED: ATOM     17  CM  UNL     1      41.848  16.601 122.875 +0.00 -0.00    +0.000 AC
DOCKED: ATOM     18  CM  UNL     1      40.419  18.179 124.057 +0.00 -0.00    +0.000 AC
DOCKED: ENDROOT
DOCKED: BRANCH   1  16
DOCKED: ATOM     19  C   UNL     1      37.090  14.451 122.478 -0.44 -0.00    +0.000 C 
DOCKED: BRANCH  16  17
DOCKED: ATOM     20  C   UNL     1      36.437  14.004 123.797 -0.51 -0.00    +0.000 C 
DOCKED: BRANCH  17  18
DOCKED: ATOM     21  C   UNL     1      35.950  12.542 123.797 -0.62 -0.00    +0.000 C 
DOCKED: BRANCH  18  19
DOCKED: ATOM     22  C   UNL     1      36.293  11.747 122.519 -0.64 -0.00    +0.000 C 
DOCKED: BRANCH  19  20
DOCKED: ATOM     23  C   UNL     1      35.406  10.516 122.276 -0.58 -0.00    +0.000 C 
DOCKED: BRANCH  20  22
DOCKED: ATOM     24  O   UNL     1      36.399   8.726 121.042 -2.18 -0.00    +0.000 OA
DOCKED: ATOM     25  C   UNL     1      36.212   9.253 122.172 -0.69 -0.00    +0.000 C 
DOCKED: ATOM     26  N   UNL     1      36.738   8.630 123.346 -0.65 -0.00    +0.000 N 
DOCKED: ATOM     27  H   UNL     1      36.583   9.039 124.227 -0.41 -0.00    +0.000 HD
DOCKED: BRANCH  23  25
DOCKED: ATOM     28  O   UNL     1      37.446   7.479 123.255 -2.02 -0.00    +0.000 OA
DOCKED: ATOM     29  H   UNL     1      37.048   6.905 122.581 -0.12 -0.00    +0.000 HD
DOCKED: ENDBRANCH  23  25
DOCKED: ENDBRANCH  20  22
DOCKED: ENDBRANCH  19  20
DOCKED: ENDBRANCH  18  19
DOCKED: ENDBRANCH  17  18
DOCKED: ENDBRANCH  16  17
DOCKED: ENDBRANCH   1  16
DOCKED: TORSDOF 7DOCKED: TER
DOCKED: ENDMDL
________________________________________________________________________________


	BEGINNING GENETIC ALGORITHM DOCKING 67 of 100
Run: 67 Seed: 1699883327 655149420 [ Run 67 of 100 GA/GALS ]
Beginning LAMARCKIAN GENETIC ALGORITHM (LGA), with a maximum of 2500000 energy evaluations.

Final-Value: -14.441


	FINAL GENETIC ALGORITHM DOCKED STATE
	_______________________________________________


Detailed state:  trans 38.302 11.460 123.207 quatxyzw 0.482018 0.053936 0.559661 0.671959 center 0.154 0.111 -0.146 ntor 7 -6.5401 3.1320 17.5868 -143.2514 128.7596 -52.3098 -149.6511
State:	 38.302  11.460 123.207   0.651  0.073  0.756 95.563     -6.54    3.13   17.59 -143.25  128.76  -52.31 -149.65

DOCKED: MODEL       67
DOCKED: USER    Run = 67
DOCKED: USER    DPF = ligand_dock.biased.dpf
DOCKED: USER  
DOCKED: USER    Estimated Free Energy of Binding    =  -11.00 kcal/mol  [=(1)+(2)+(3)-(4)]
DOCKED: USER    Estimated Inhibition Constant, Ki   =    8.66 nM (nanomolar)  [Temperature = 298.15 K]
DOCKED: USER    
DOCKED: USER    (1) Final Intermolecular Energy     =  -13.09 kcal/mol
DOCKED: USER        vdW + Hbond + desolv Energy     =  -13.09 kcal/mol
DOCKED: USER        Electrostatic Energy            =   +0.00 kcal/mol
DOCKED: USER    (2) Final Total Internal Energy     =   -1.35 kcal/mol
DOCKED: USER    (3) Torsional Free Energy           =   +2.09 kcal/mol
DOCKED: USER    (4) Unbound System's Energy  [=(2)] =   -1.35 kcal/mol
DOCKED: USER    
DOCKED: USER    
DOCKED: USER    NEWDPF move ligand.dum.pdbqt
DOCKED: USER    NEWDPF about 0.154000 0.111000 -0.146000
DOCKED: USER    NEWDPF tran0 38.301772 11.460409 123.207326
DOCKED: USER    NEWDPF quaternion0 0.482018 0.053936 0.559661 0.671959
DOCKED: USER    NEWDPF axisangle0 0.650858 0.072828 0.755698 95.563074
DOCKED: USER    NEWDPF quat0 0.650858 0.072828 0.755698 95.563074
DOCKED: USER    NEWDPF dihe0 -6.54 3.13 17.59 -143.25 128.76 -52.31 -149.65 
DOCKED: USER  keepresnum = 1 
DOCKED: USER  
DOCKED: REMARK  Name = 
DOCKED: REMARK  7 active torsions:
DOCKED: REMARK  status: ('A' for Active; 'I' for Inactive)
DOCKED: REMARK    1  A    between atoms: C_2  and  C_5
DOCKED: REMARK    2  A    between atoms: N_3  and  O_4
DOCKED: REMARK    3  A    between atoms: C_5  and  C_6
DOCKED: REMARK    4  A    between atoms: C_6  and  C_7
DOCKED: REMARK    5  A    between atoms: C_7  and  C_8
DOCKED: REMARK    6  A    between atoms: C_8  and  C_9
DOCKED: REMARK    7  A    between atoms: C_9  and  N_10
DOCKED: REMARK                            x       y       z     vdW  Elec       q    Type
DOCKED: REMARK                         _______ _______ _______ _____ _____    ______ ____
DOCKED: USER                              x       y       z     vdW  Elec       q    Type
DOCKED: USER                           _______ _______ _______ _____ _____    ______ ____
DOCKED: ROOT
DOCKED: ATOM      1  N   UNL     1      36.954  11.136 122.640 -0.59 -0.00    +0.000 N 
DOCKED: ATOM      2  C   UNL     1      37.240  11.068 121.229 -0.36 -0.00    +0.000 C 
DOCKED: ATOM      3  C   UNL     1      37.305  12.309 120.424 -0.46 -0.00    +0.000 A 
DOCKED: ATOM      4  C   UNL     1      37.609  12.255 119.052 +0.05 -0.00    +0.000 A 
DOCKED: ATOM      5  C   UNL     1      37.673  13.424 118.293 -0.29 -0.00    +0.000 A 
DOCKED: ATOM      6  C   UNL     1      37.434  14.663 118.888 -0.25 -0.00    +0.000 A 
DOCKED: ATOM      7  C   UNL     1      37.129  14.743 120.254 -0.23 -0.00    +0.000 A 
DOCKED: ATOM      8  C   UNL     1      36.889  15.988 120.851 -0.17 -0.00    +0.000 A 
DOCKED: ATOM      9  C   UNL     1      36.582  16.068 122.209 -0.24 -0.00    +0.000 A 
DOCKED: ATOM     10  C   UNL     1      36.513  14.910 122.985 -0.38 -0.00    +0.000 A 
DOCKED: ATOM     11  C   UNL     1      36.751  13.649 122.409 -0.42 -0.00    +0.000 A 
DOCKED: ATOM     12  C   UNL     1      37.062  13.560 121.034 -0.34 -0.00    +0.000 A 
DOCKED: ATOM     13  O   UNL     1      37.435   9.950 120.678 -1.64 -0.00    +0.000 OA
DOCKED: ATOM     14  C   UNL     1      36.679  12.421 123.234 -0.66 -0.00    +0.000 C 
DOCKED: ATOM     15  O   UNL     1      36.376  12.504 124.455 -0.56 -0.00    +0.000 OA
DOCKED: ATOM     16  CM  UNL     1      36.997  12.324 121.851 +0.00 -0.00    +0.000 AC
DOCKED: ATOM     17  CM  UNL     1      37.369  13.492 119.658 +0.00 -0.00    +0.000 AC
DOCKED: ATOM     18  CM  UNL     1      36.821  14.820 121.624 +0.00 -0.00    +0.000 AC
DOCKED: ENDROOT
DOCKED: BRANCH   1  16
DOCKED: ATOM     19  C   UNL     1      36.978   9.913 123.459 -0.33 -0.00    +0.000 C 
DOCKED: BRANCH  16  17
DOCKED: ATOM     20  C   UNL     1      35.750   9.026 123.188 -0.58 -0.00    +0.000 C 
DOCKED: BRANCH  17  18
DOCKED: ATOM     21  C   UNL     1      34.928   9.447 121.955 -0.53 -0.00    +0.000 C 
DOCKED: BRANCH  18  19
DOCKED: ATOM     22  C   UNL     1      33.497   8.872 121.906 -0.69 -0.00    +0.000 C 
DOCKED: BRANCH  19  20
DOCKED: ATOM     23  C   UNL     1      33.415   7.398 121.479 -0.57 -0.00    +0.000 C 
DOCKED: BRANCH  20  22
DOCKED: ATOM     24  O   UNL     1      32.865   6.186 123.464 -0.81 -0.00    +0.000 OA
DOCKED: ATOM     25  C   UNL     1      33.747   6.465 122.608 -0.76 -0.00    +0.000 C 
DOCKED: ATOM     26  N   UNL     1      35.062   5.919 122.735 -0.66 -0.00    +0.000 N 
DOCKED: ATOM     27  H   UNL     1      35.751   6.145 122.069 -0.03 -0.00    +0.000 HD
DOCKED: BRANCH  23  25
DOCKED: ATOM     28  O   UNL     1      35.369   5.095 123.765 -0.97 -0.00    +0.000 OA
DOCKED: ATOM     29  H   UNL     1      34.621   5.056 124.382 -0.61 -0.00    +0.000 HD
DOCKED: ENDBRANCH  23  25
DOCKED: ENDBRANCH  20  22
DOCKED: ENDBRANCH  19  20
DOCKED: ENDBRANCH  18  19
DOCKED: ENDBRANCH  17  18
DOCKED: ENDBRANCH  16  17
DOCKED: ENDBRANCH   1  16
DOCKED: TORSDOF 7DOCKED: TER
DOCKED: ENDMDL
________________________________________________________________________________


	BEGINNING GENETIC ALGORITHM DOCKING 68 of 100
Run: 68 Seed: 593014613 1727998961 [ Run 68 of 100 GA/GALS ]
Beginning LAMARCKIAN GENETIC ALGORITHM (LGA), with a maximum of 2500000 energy evaluations.

Final-Value: -13.980


	FINAL GENETIC ALGORITHM DOCKED STATE
	_______________________________________________


Detailed state:  trans 38.914 16.106 121.231 quatxyzw 0.030736 0.866424 0.459402 0.193170 center 0.154 0.111 -0.146 ntor 7 -10.2180 -141.3393 12.5550 148.6003 -120.8066 125.8946 164.4667
State:	 38.914  16.106 121.231   0.031  0.883  0.468 157.724    -10.22 -141.34   12.56  148.60 -120.81  125.89  164.47

DOCKED: MODEL       68
DOCKED: USER    Run = 68
DOCKED: USER    DPF = ligand_dock.biased.dpf
DOCKED: USER  
DOCKED: USER    Estimated Free Energy of Binding    =  -10.70 kcal/mol  [=(1)+(2)+(3)-(4)]
DOCKED: USER    Estimated Inhibition Constant, Ki   =   14.40 nM (nanomolar)  [Temperature = 298.15 K]
DOCKED: USER    
DOCKED: USER    (1) Final Intermolecular Energy     =  -12.79 kcal/mol
DOCKED: USER        vdW + Hbond + desolv Energy     =  -12.79 kcal/mol
DOCKED: USER        Electrostatic Energy            =   +0.00 kcal/mol
DOCKED: USER    (2) Final Total Internal Energy     =   -1.19 kcal/mol
DOCKED: USER    (3) Torsional Free Energy           =   +2.09 kcal/mol
DOCKED: USER    (4) Unbound System's Energy  [=(2)] =   -1.19 kcal/mol
DOCKED: USER    
DOCKED: USER    
DOCKED: USER    NEWDPF move ligand.dum.pdbqt
DOCKED: USER    NEWDPF about 0.154000 0.111000 -0.146000
DOCKED: USER    NEWDPF tran0 38.913574 16.105735 121.231142
DOCKED: USER    NEWDPF quaternion0 0.030736 0.866424 0.459402 0.193170
DOCKED: USER    NEWDPF axisangle0 0.031327 0.883056 0.468221 157.724343
DOCKED: USER    NEWDPF quat0 0.031327 0.883056 0.468221 157.724343
DOCKED: USER    NEWDPF dihe0 -10.22 -141.34 12.56 148.60 -120.81 125.89 164.47 
DOCKED: USER  keepresnum = 1 
DOCKED: USER  
DOCKED: REMARK  Name = 
DOCKED: REMARK  7 active torsions:
DOCKED: REMARK  status: ('A' for Active; 'I' for Inactive)
DOCKED: REMARK    1  A    between atoms: C_2  and  C_5
DOCKED: REMARK    2  A    between atoms: N_3  and  O_4
DOCKED: REMARK    3  A    between atoms: C_5  and  C_6
DOCKED: REMARK    4  A    between atoms: C_6  and  C_7
DOCKED: REMARK    5  A    between atoms: C_7  and  C_8
DOCKED: REMARK    6  A    between atoms: C_8  and  C_9
DOCKED: REMARK    7  A    between atoms: C_9  and  N_10
DOCKED: REMARK                            x       y       z     vdW  Elec       q    Type
DOCKED: REMARK                         _______ _______ _______ _____ _____    ______ ____
DOCKED: USER                              x       y       z     vdW  Elec       q    Type
DOCKED: USER                           _______ _______ _______ _____ _____    ______ ____
DOCKED: ROOT
DOCKED: ATOM      1  N   UNL     1      39.672  14.830 121.026 -0.29 -0.00    +0.000 N 
DOCKED: ATOM      2  C   UNL     1      40.776  14.997 121.936 -0.42 -0.00    +0.000 C 
DOCKED: ATOM      3  C   UNL     1      41.958  15.791 121.530 -0.30 -0.00    +0.000 A 
DOCKED: ATOM      4  C   UNL     1      43.030  15.981 122.421 -0.33 -0.00    +0.000 A 
DOCKED: ATOM      5  C   UNL     1      44.144  16.731 122.041 -0.29 -0.00    +0.000 A 
DOCKED: ATOM      6  C   UNL     1      44.207  17.301 120.769 -0.14 -0.00    +0.000 A 
DOCKED: ATOM      7  C   UNL     1      43.152  17.125 119.864 -0.12 -0.00    +0.000 A 
DOCKED: ATOM      8  C   UNL     1      43.217  17.698 118.585 -0.06 -0.00    +0.000 A 
DOCKED: ATOM      9  C   UNL     1      42.168  17.521 117.684 -0.07 -0.00    +0.000 A 
DOCKED: ATOM     10  C   UNL     1      41.046  16.774 118.045 -0.11 -0.00    +0.000 A 
DOCKED: ATOM     11  C   UNL     1      40.957  16.190 119.321 -0.12 -0.00    +0.000 A 
DOCKED: ATOM     12  C   UNL     1      42.015  16.365 120.241 -0.17 -0.00    +0.000 A 
DOCKED: ATOM     13  O   UNL     1      40.737  14.467 123.081 -0.98 -0.00    +0.000 OA
DOCKED: ATOM     14  C   UNL     1      39.765  15.399 119.704 -0.11 -0.00    +0.000 C 
DOCKED: ATOM     15  O   UNL     1      38.835  15.224 118.870 -0.21 -0.00    +0.000 OA
DOCKED: ATOM     16  CM  UNL     1      40.825  15.574 120.637 +0.00 -0.00    +0.000 AC
DOCKED: ATOM     17  CM  UNL     1      43.084  16.550 121.144 +0.00 -0.00    +0.000 AC
DOCKED: ATOM     18  CM  UNL     1      42.093  16.945 118.956 +0.00 -0.00    +0.000 AC
DOCKED: ENDROOT
DOCKED: BRANCH   1  16
DOCKED: ATOM     19  C   UNL     1      38.457  14.118 121.460 -0.41 -0.00    +0.000 C 
DOCKED: BRANCH  16  17
DOCKED: ATOM     20  C   UNL     1      38.192  12.875 120.594 -0.44 -0.00    +0.000 C 
DOCKED: BRANCH  17  18
DOCKED: ATOM     21  C   UNL     1      36.819  12.218 120.837 -0.49 -0.00    +0.000 C 
DOCKED: BRANCH  18  19
DOCKED: ATOM     22  C   UNL     1      36.505  11.907 122.315 -0.62 -0.00    +0.000 C 
DOCKED: BRANCH  19  20
DOCKED: ATOM     23  C   UNL     1      35.686  10.625 122.537 -0.66 -0.00    +0.000 C 
DOCKED: BRANCH  20  22
DOCKED: ATOM     24  O   UNL     1      37.009   9.140 121.212 -2.71 -0.00    +0.000 OA
DOCKED: ATOM     25  C   UNL     1      36.514   9.387 122.345 -0.72 -0.00    +0.000 C 
DOCKED: ATOM     26  N   UNL     1      36.714   8.474 123.426 -0.66 -0.00    +0.000 N 
DOCKED: ATOM     27  H   UNL     1      36.320   8.665 124.307 -0.28 -0.00    +0.000 HD
DOCKED: BRANCH  23  25
DOCKED: ATOM     28  O   UNL     1      37.442   7.345 123.248 -1.95 -0.00    +0.000 OA
DOCKED: ATOM     29  H   UNL     1      37.621   7.221 122.302 -0.16 -0.00    +0.000 HD
DOCKED: ENDBRANCH  23  25
DOCKED: ENDBRANCH  20  22
DOCKED: ENDBRANCH  19  20
DOCKED: ENDBRANCH  18  19
DOCKED: ENDBRANCH  17  18
DOCKED: ENDBRANCH  16  17
DOCKED: ENDBRANCH   1  16
DOCKED: TORSDOF 7DOCKED: TER
DOCKED: ENDMDL
________________________________________________________________________________


	BEGINNING GENETIC ALGORITHM DOCKING 69 of 100
Run: 69 Seed: 1812457559 279003872 [ Run 69 of 100 GA/GALS ]
Beginning LAMARCKIAN GENETIC ALGORITHM (LGA), with a maximum of 2500000 energy evaluations.

Final-Value: -15.060


	FINAL GENETIC ALGORITHM DOCKED STATE
	_______________________________________________


Detailed state:  trans 34.083 16.022 122.794 quatxyzw -0.534163 0.801580 0.257378 -0.076788 center 0.154 0.111 -0.146 ntor 7 11.1798 -166.2365 149.6293 -50.4562 -178.0962 -149.3526 -177.2423
State:	 34.083  16.022 122.794  -0.536  0.804  0.258 -171.192     11.18 -166.24  149.63  -50.46 -178.10 -149.35 -177.24

DOCKED: MODEL       69
DOCKED: USER    Run = 69
DOCKED: USER    DPF = ligand_dock.biased.dpf
DOCKED: USER  
DOCKED: USER    Estimated Free Energy of Binding    =  -11.71 kcal/mol  [=(1)+(2)+(3)-(4)]
DOCKED: USER    Estimated Inhibition Constant, Ki   =    2.60 nM (nanomolar)  [Temperature = 298.15 K]
DOCKED: USER    
DOCKED: USER    (1) Final Intermolecular Energy     =  -13.80 kcal/mol
DOCKED: USER        vdW + Hbond + desolv Energy     =  -13.80 kcal/mol
DOCKED: USER        Electrostatic Energy            =   +0.00 kcal/mol
DOCKED: USER    (2) Final Total Internal Energy     =   -1.26 kcal/mol
DOCKED: USER    (3) Torsional Free Energy           =   +2.09 kcal/mol
DOCKED: USER    (4) Unbound System's Energy  [=(2)] =   -1.26 kcal/mol
DOCKED: USER    
DOCKED: USER    
DOCKED: USER    NEWDPF move ligand.dum.pdbqt
DOCKED: USER    NEWDPF about 0.154000 0.111000 -0.146000
DOCKED: USER    NEWDPF tran0 34.083459 16.021983 122.794403
DOCKED: USER    NEWDPF quaternion0 -0.534163 0.801580 0.257378 -0.076788
DOCKED: USER    NEWDPF axisangle0 -0.535745 0.803953 0.258140 -171.192036
DOCKED: USER    NEWDPF quat0 -0.535745 0.803953 0.258140 -171.192036
DOCKED: USER    NEWDPF dihe0 11.18 -166.24 149.63 -50.46 -178.10 -149.35 -177.24 
DOCKED: USER  keepresnum = 1 
DOCKED: USER  
DOCKED: REMARK  Name = 
DOCKED: REMARK  7 active torsions:
DOCKED: REMARK  status: ('A' for Active; 'I' for Inactive)
DOCKED: REMARK    1  A    between atoms: C_2  and  C_5
DOCKED: REMARK    2  A    between atoms: N_3  and  O_4
DOCKED: REMARK    3  A    between atoms: C_5  and  C_6
DOCKED: REMARK    4  A    between atoms: C_6  and  C_7
DOCKED: REMARK    5  A    between atoms: C_7  and  C_8
DOCKED: REMARK    6  A    between atoms: C_8  and  C_9
DOCKED: REMARK    7  A    between atoms: C_9  and  N_10
DOCKED: REMARK                            x       y       z     vdW  Elec       q    Type
DOCKED: REMARK                         _______ _______ _______ _____ _____    ______ ____
DOCKED: USER                              x       y       z     vdW  Elec       q    Type
DOCKED: USER                           _______ _______ _______ _____ _____    ______ ____
DOCKED: ROOT
DOCKED: ATOM      1  N   UNL     1      35.163  15.737 123.794 -0.48 -0.00    +0.000 N 
DOCKED: ATOM      2  C   UNL     1      34.605  16.306 124.994 -0.48 -0.00    +0.000 C 
DOCKED: ATOM      3  C   UNL     1      34.722  17.761 125.250 -0.33 -0.00    +0.000 A 
DOCKED: ATOM      4  C   UNL     1      34.159  18.329 126.406 -0.27 -0.00    +0.000 A 
DOCKED: ATOM      5  C   UNL     1      34.266  19.700 126.647 -0.16 -0.00    +0.000 A 
DOCKED: ATOM      6  C   UNL     1      34.934  20.523 125.741 -0.15 -0.00    +0.000 A 
DOCKED: ATOM      7  C   UNL     1      35.504  19.980 124.581 -0.16 -0.00    +0.000 A 
DOCKED: ATOM      8  C   UNL     1      36.177  20.807 123.671 -0.14 -0.00    +0.000 A 
DOCKED: ATOM      9  C   UNL     1      36.746  20.267 122.519 -0.13 -0.00    +0.000 A 
DOCKED: ATOM     10  C   UNL     1      36.650  18.899 122.261 -0.15 -0.00    +0.000 A 
DOCKED: ATOM     11  C   UNL     1      35.980  18.047 123.158 -0.22 -0.00    +0.000 A 
DOCKED: ATOM     12  C   UNL     1      35.401  18.587 124.328 -0.24 -0.00    +0.000 A 
DOCKED: ATOM     13  O   UNL     1      34.018  15.566 125.831 -0.81 -0.00    +0.000 OA
DOCKED: ATOM     14  C   UNL     1      35.878  16.596 122.882 -0.34 -0.00    +0.000 C 
DOCKED: ATOM     15  O   UNL     1      36.419  16.115 121.849 -0.27 -0.00    +0.000 OA
DOCKED: ATOM     16  CM  UNL     1      35.288  17.134 124.060 -0.17 -0.00    +0.000 AC
DOCKED: ATOM     17  CM  UNL     1      34.831  19.147 125.492 -0.12 -0.00    +0.000 AC
DOCKED: ATOM     18  CM  UNL     1      36.077  19.431 123.419 +0.00 -0.00    +0.000 AC
DOCKED: ENDROOT
DOCKED: BRANCH   1  16
DOCKED: ATOM     19  C   UNL     1      34.969  14.309 123.494 -0.17 -0.00    +0.000 C 
DOCKED: BRANCH  16  17
DOCKED: ATOM     20  C   UNL     1      36.223  13.485 123.835 -0.57 -0.00    +0.000 C 
DOCKED: BRANCH  17  18
DOCKED: ATOM     21  C   UNL     1      37.276  13.444 122.710 -0.54 -0.00    +0.000 C 
DOCKED: BRANCH  18  19
DOCKED: ATOM     22  C   UNL     1      37.410  12.080 122.001 -0.48 -0.00    +0.000 C 
DOCKED: BRANCH  19  20
DOCKED: ATOM     23  C   UNL     1      36.244  11.112 122.254 -0.65 -0.00    +0.000 C 
DOCKED: BRANCH  20  22
DOCKED: ATOM     24  O   UNL     1      36.714   9.044 121.152 -2.63 -0.00    +0.000 OA
DOCKED: ATOM     25  C   UNL     1      36.690   9.678 122.240 -0.70 -0.00    +0.000 C 
DOCKED: ATOM     26  N   UNL     1      37.055   9.021 123.457 -0.58 -0.00    +0.000 N 
DOCKED: ATOM     27  H   UNL     1      37.028   9.516 124.306 -0.52 -0.00    +0.000 HD
DOCKED: BRANCH  23  25
DOCKED: ATOM     28  O   UNL     1      37.436   7.721 123.450 -2.18 -0.00    +0.000 OA
DOCKED: ATOM     29  H   UNL     1      37.580   7.431 122.535 -0.18 -0.00    +0.000 HD
DOCKED: ENDBRANCH  23  25
DOCKED: ENDBRANCH  20  22
DOCKED: ENDBRANCH  19  20
DOCKED: ENDBRANCH  18  19
DOCKED: ENDBRANCH  17  18
DOCKED: ENDBRANCH  16  17
DOCKED: ENDBRANCH   1  16
DOCKED: TORSDOF 7DOCKED: TER
DOCKED: ENDMDL
________________________________________________________________________________


	BEGINNING GENETIC ALGORITHM DOCKING 70 of 100
Run: 70 Seed: 567972226 1976928182 [ Run 70 of 100 GA/GALS ]
Beginning LAMARCKIAN GENETIC ALGORITHM (LGA), with a maximum of 2500000 energy evaluations.

Final-Value: -13.459


	FINAL GENETIC ALGORITHM DOCKED STATE
	_______________________________________________


Detailed state:  trans 36.068 13.996 122.221 quatxyzw -0.548005 0.821172 -0.045812 -0.152542 center 0.154 0.111 -0.146 ntor 7 -2.5659 -40.0196 161.7767 -96.5594 54.4142 40.1268 36.6473
State:	 36.068  13.996 122.221  -0.554  0.831 -0.046 -162.451     -2.57  -40.02  161.78  -96.56   54.41   40.13   36.65

DOCKED: MODEL       70
DOCKED: USER    Run = 70
DOCKED: USER    DPF = ligand_dock.biased.dpf
DOCKED: USER  
DOCKED: USER    Estimated Free Energy of Binding    =  -10.13 kcal/mol  [=(1)+(2)+(3)-(4)]
DOCKED: USER    Estimated Inhibition Constant, Ki   =   37.34 nM (nanomolar)  [Temperature = 298.15 K]
DOCKED: USER    
DOCKED: USER    (1) Final Intermolecular Energy     =  -12.22 kcal/mol
DOCKED: USER        vdW + Hbond + desolv Energy     =  -12.22 kcal/mol
DOCKED: USER        Electrostatic Energy            =   +0.00 kcal/mol
DOCKED: USER    (2) Final Total Internal Energy     =   -1.24 kcal/mol
DOCKED: USER    (3) Torsional Free Energy           =   +2.09 kcal/mol
DOCKED: USER    (4) Unbound System's Energy  [=(2)] =   -1.24 kcal/mol
DOCKED: USER    
DOCKED: USER    
DOCKED: USER    NEWDPF move ligand.dum.pdbqt
DOCKED: USER    NEWDPF about 0.154000 0.111000 -0.146000
DOCKED: USER    NEWDPF tran0 36.068324 13.995578 122.221164
DOCKED: USER    NEWDPF quaternion0 -0.548005 0.821172 -0.045812 -0.152542
DOCKED: USER    NEWDPF axisangle0 -0.554494 0.830896 -0.046354 -162.451408
DOCKED: USER    NEWDPF quat0 -0.554494 0.830896 -0.046354 -162.451408
DOCKED: USER    NEWDPF dihe0 -2.57 -40.02 161.78 -96.56 54.41 40.13 36.65 
DOCKED: USER  keepresnum = 1 
DOCKED: USER  
DOCKED: REMARK  Name = 
DOCKED: REMARK  7 active torsions:
DOCKED: REMARK  status: ('A' for Active; 'I' for Inactive)
DOCKED: REMARK    1  A    between atoms: C_2  and  C_5
DOCKED: REMARK    2  A    between atoms: N_3  and  O_4
DOCKED: REMARK    3  A    between atoms: C_5  and  C_6
DOCKED: REMARK    4  A    between atoms: C_6  and  C_7
DOCKED: REMARK    5  A    between atoms: C_7  and  C_8
DOCKED: REMARK    6  A    between atoms: C_8  and  C_9
DOCKED: REMARK    7  A    between atoms: C_9  and  N_10
DOCKED: REMARK                            x       y       z     vdW  Elec       q    Type
DOCKED: REMARK                         _______ _______ _______ _____ _____    ______ ____
DOCKED: USER                              x       y       z     vdW  Elec       q    Type
DOCKED: USER                           _______ _______ _______ _____ _____    ______ ____
DOCKED: ROOT
DOCKED: ATOM      1  N   UNL     1      36.576  14.167 123.620 -0.49 -0.00    +0.000 N 
DOCKED: ATOM      2  C   UNL     1      35.684  15.176 124.132 -0.50 -0.00    +0.000 C 
DOCKED: ATOM      3  C   UNL     1      35.936  16.606 123.842 -0.33 -0.00    +0.000 A 
DOCKED: ATOM      4  C   UNL     1      35.057  17.596 124.316 -0.33 -0.00    +0.000 A 
DOCKED: ATOM      5  C   UNL     1      35.293  18.945 124.040 -0.20 -0.00    +0.000 A 
DOCKED: ATOM      6  C   UNL     1      36.406  19.326 123.291 -0.16 -0.00    +0.000 A 
DOCKED: ATOM      7  C   UNL     1      37.296  18.357 122.808 -0.13 -0.00    +0.000 A 
DOCKED: ATOM      8  C   UNL     1      38.416  18.740 122.056 -0.06 -0.00    +0.000 A 
DOCKED: ATOM      9  C   UNL     1      39.303  17.777 121.578 -0.08 -0.00    +0.000 A 
DOCKED: ATOM     10  C   UNL     1      39.086  16.425 121.843 -0.18 -0.00    +0.000 A 
DOCKED: ATOM     11  C   UNL     1      37.970  16.014 122.595 -0.25 -0.00    +0.000 A 
DOCKED: ATOM     12  C   UNL     1      37.066  16.984 123.083 -0.22 -0.00    +0.000 A 
DOCKED: ATOM     13  O   UNL     1      34.686  14.843 124.830 -0.57 -0.00    +0.000 OA
DOCKED: ATOM     14  C   UNL     1      37.739  14.579 122.874 -0.45 -0.00    +0.000 C 
DOCKED: ATOM     15  O   UNL     1      38.563  13.719 122.458 -0.60 -0.00    +0.000 OA
DOCKED: ATOM     16  CM  UNL     1      36.822  15.549 123.365 +0.00 -0.00    +0.000 AC
DOCKED: ATOM     17  CM  UNL     1      36.175  17.969 123.563 -0.04 -0.00    +0.000 AC
DOCKED: ATOM     18  CM  UNL     1      38.190  17.383 122.327 +0.00 -0.00    +0.000 AC
DOCKED: ENDROOT
DOCKED: BRANCH   1  16
DOCKED: ATOM     19  C   UNL     1      36.277  12.741 123.831 -0.64 -0.00    +0.000 C 
DOCKED: BRANCH  16  17
DOCKED: ATOM     20  C   UNL     1      35.941  12.032 122.508 -0.49 -0.00    +0.000 C 
DOCKED: BRANCH  17  18
DOCKED: ATOM     21  C   UNL     1      37.078  11.148 121.958 -0.53 -0.00    +0.000 C 
DOCKED: BRANCH  18  19
DOCKED: ATOM     22  C   UNL     1      36.692   9.674 121.720 -0.53 -0.00    +0.000 C 
DOCKED: BRANCH  19  20
DOCKED: ATOM     23  C   UNL     1      35.610   9.136 122.670 -0.69 -0.00    +0.000 C 
DOCKED: BRANCH  20  22
DOCKED: ATOM     24  O   UNL     1      37.138   7.477 123.462 -2.14 -0.00    +0.000 OA
DOCKED: ATOM     25  C   UNL     1      35.943   7.764 123.183 -0.75 -0.00    +0.000 C 
DOCKED: ATOM     26  N   UNL     1      34.920   6.775 123.323 -0.70 -0.00    +0.000 N 
DOCKED: ATOM     27  H   UNL     1      33.990   6.999 123.097 -0.03 -0.00    +0.000 HD
DOCKED: BRANCH  23  25
DOCKED: ATOM     28  O   UNL     1      35.222   5.530 123.764 -1.05 -0.00    +0.000 OA
DOCKED: ATOM     29  H   UNL     1      36.180   5.460 123.903 -0.07 -0.00    +0.000 HD
DOCKED: ENDBRANCH  23  25
DOCKED: ENDBRANCH  20  22
DOCKED: ENDBRANCH  19  20
DOCKED: ENDBRANCH  18  19
DOCKED: ENDBRANCH  17  18
DOCKED: ENDBRANCH  16  17
DOCKED: ENDBRANCH   1  16
DOCKED: TORSDOF 7DOCKED: TER
DOCKED: ENDMDL
________________________________________________________________________________


	BEGINNING GENETIC ALGORITHM DOCKING 71 of 100
Run: 71 Seed: 922233062 2048312358 [ Run 71 of 100 GA/GALS ]
Beginning LAMARCKIAN GENETIC ALGORITHM (LGA), with a maximum of 2500000 energy evaluations.

Final-Value: -14.370


	FINAL GENETIC ALGORITHM DOCKED STATE
	_______________________________________________


Detailed state:  trans 36.096 15.442 124.949 quatxyzw -0.290108 -0.049662 0.612273 0.733820 center 0.154 0.111 -0.146 ntor 7 19.4857 -179.8571 89.4045 56.8180 143.5284 117.4961 6.4725
State:	 36.096  15.442 124.949  -0.427 -0.073  0.901 85.585     19.49 -179.86   89.40   56.82  143.53  117.50    6.47

DOCKED: MODEL       71
DOCKED: USER    Run = 71
DOCKED: USER    DPF = ligand_dock.biased.dpf
DOCKED: USER  
DOCKED: USER    Estimated Free Energy of Binding    =  -11.24 kcal/mol  [=(1)+(2)+(3)-(4)]
DOCKED: USER    Estimated Inhibition Constant, Ki   =    5.78 nM (nanomolar)  [Temperature = 298.15 K]
DOCKED: USER    
DOCKED: USER    (1) Final Intermolecular Energy     =  -13.33 kcal/mol
DOCKED: USER        vdW + Hbond + desolv Energy     =  -13.33 kcal/mol
DOCKED: USER        Electrostatic Energy            =   +0.00 kcal/mol
DOCKED: USER    (2) Final Total Internal Energy     =   -1.04 kcal/mol
DOCKED: USER    (3) Torsional Free Energy           =   +2.09 kcal/mol
DOCKED: USER    (4) Unbound System's Energy  [=(2)] =   -1.04 kcal/mol
DOCKED: USER    
DOCKED: USER    
DOCKED: USER    NEWDPF move ligand.dum.pdbqt
DOCKED: USER    NEWDPF about 0.154000 0.111000 -0.146000
DOCKED: USER    NEWDPF tran0 36.096031 15.442279 124.949286
DOCKED: USER    NEWDPF quaternion0 -0.290108 -0.049662 0.612273 0.733820
DOCKED: USER    NEWDPF axisangle0 -0.427042 -0.073103 0.901272 85.584715
DOCKED: USER    NEWDPF quat0 -0.427042 -0.073103 0.901272 85.584715
DOCKED: USER    NEWDPF dihe0 19.49 -179.86 89.40 56.82 143.53 117.50 6.47 
DOCKED: USER  keepresnum = 1 
DOCKED: USER  
DOCKED: REMARK  Name = 
DOCKED: REMARK  7 active torsions:
DOCKED: REMARK  status: ('A' for Active; 'I' for Inactive)
DOCKED: REMARK    1  A    between atoms: C_2  and  C_5
DOCKED: REMARK    2  A    between atoms: N_3  and  O_4
DOCKED: REMARK    3  A    between atoms: C_5  and  C_6
DOCKED: REMARK    4  A    between atoms: C_6  and  C_7
DOCKED: REMARK    5  A    between atoms: C_7  and  C_8
DOCKED: REMARK    6  A    between atoms: C_8  and  C_9
DOCKED: REMARK    7  A    between atoms: C_9  and  N_10
DOCKED: REMARK                            x       y       z     vdW  Elec       q    Type
DOCKED: REMARK                         _______ _______ _______ _____ _____    ______ ____
DOCKED: USER                              x       y       z     vdW  Elec       q    Type
DOCKED: USER                           _______ _______ _______ _____ _____    ______ ____
DOCKED: ROOT
DOCKED: ATOM      1  N   UNL     1      35.604  16.483 123.991 -0.37 -0.00    +0.000 N 
DOCKED: ATOM      2  C   UNL     1      36.604  17.510 124.137 -0.26 -0.00    +0.000 C 
DOCKED: ATOM      3  C   UNL     1      36.521  18.472 125.260 -0.17 -0.00    +0.000 A 
DOCKED: ATOM      4  C   UNL     1      37.507  19.462 125.425 -0.12 -0.00    +0.000 A 
DOCKED: ATOM      5  C   UNL     1      37.431  20.368 126.484 -0.07 -0.00    +0.000 A 
DOCKED: ATOM      6  C   UNL     1      36.375  20.303 127.392 -0.07 -0.00    +0.000 A 
DOCKED: ATOM      7  C   UNL     1      35.380  19.325 127.248 -0.13 -0.00    +0.000 A 
DOCKED: ATOM      8  C   UNL     1      34.317  19.260 128.160 -0.10 -0.00    +0.000 A 
DOCKED: ATOM      9  C   UNL     1      33.327  18.290 128.015 -0.20 -0.00    +0.000 A 
DOCKED: ATOM     10  C   UNL     1      33.384  17.376 126.963 -0.34 -0.00    +0.000 A 
DOCKED: ATOM     11  C   UNL     1      34.440  17.420 126.035 -0.30 -0.00    +0.000 A 
DOCKED: ATOM     12  C   UNL     1      35.448  18.400 126.175 -0.18 -0.00    +0.000 A 
DOCKED: ATOM     13  O   UNL     1      37.552  17.591 123.308 -0.20 -0.00    +0.000 OA
DOCKED: ATOM     14  C   UNL     1      34.501  16.448 124.919 -0.51 -0.00    +0.000 C 
DOCKED: ATOM     15  O   UNL     1      33.585  15.591 124.784 -0.53 -0.00    +0.000 OA
DOCKED: ATOM     16  CM  UNL     1      35.521  17.429 125.056 -0.34 -0.00    +0.000 AC
DOCKED: ATOM     17  CM  UNL     1      36.444  19.388 126.331 -0.00 -0.00    +0.000 AC
DOCKED: ATOM     18  CM  UNL     1      34.382  18.345 127.099 -0.02 -0.00    +0.000 AC
DOCKED: ENDROOT
DOCKED: BRANCH   1  16
DOCKED: ATOM     19  C   UNL     1      35.733  15.471 122.930 -0.33 -0.00    +0.000 C 
DOCKED: BRANCH  16  17
DOCKED: ATOM     20  C   UNL     1      36.673  14.328 123.351 -0.50 -0.00    +0.000 C 
DOCKED: BRANCH  17  18
DOCKED: ATOM     21  C   UNL     1      36.877  13.247 122.271 -0.51 -0.00    +0.000 C 
DOCKED: BRANCH  18  19
DOCKED: ATOM     22  C   UNL     1      37.094  11.821 122.818 -0.62 -0.00    +0.000 C 
DOCKED: BRANCH  19  20
DOCKED: ATOM     23  C   UNL     1      36.088  10.780 122.302 -0.66 -0.00    +0.000 C 
DOCKED: BRANCH  20  22
DOCKED: ATOM     24  O   UNL     1      37.062   8.918 121.164 -2.70 -0.00    +0.000 OA
DOCKED: ATOM     25  C   UNL     1      36.677   9.399 122.263 -0.72 -0.00    +0.000 C 
DOCKED: ATOM     26  N   UNL     1      36.772   8.618 123.457 -0.63 -0.00    +0.000 N 
DOCKED: ATOM     27  H   UNL     1      36.463   8.993 124.312 -0.32 -0.00    +0.000 HD
DOCKED: BRANCH  23  25
DOCKED: ATOM     28  O   UNL     1      37.282   7.363 123.419 -2.04 -0.00    +0.000 OA
DOCKED: ATOM     29  H   UNL     1      37.810   7.252 122.612 -0.36 -0.00    +0.000 HD
DOCKED: ENDBRANCH  23  25
DOCKED: ENDBRANCH  20  22
DOCKED: ENDBRANCH  19  20
DOCKED: ENDBRANCH  18  19
DOCKED: ENDBRANCH  17  18
DOCKED: ENDBRANCH  16  17
DOCKED: ENDBRANCH   1  16
DOCKED: TORSDOF 7DOCKED: TER
DOCKED: ENDMDL
________________________________________________________________________________


	BEGINNING GENETIC ALGORITHM DOCKING 72 of 100
Run: 72 Seed: 1717548047 1093879742 [ Run 72 of 100 GA/GALS ]
Beginning LAMARCKIAN GENETIC ALGORITHM (LGA), with a maximum of 2500000 energy evaluations.

Final-Value: -14.608


	FINAL GENETIC ALGORITHM DOCKED STATE
	_______________________________________________


Detailed state:  trans 38.139 16.147 121.207 quatxyzw -0.134903 0.938317 0.073362 -0.309807 center 0.154 0.111 -0.146 ntor 7 6.4753 -109.9034 156.1257 176.6518 -149.4931 -140.9403 -140.9001
State:	 38.139  16.147 121.207  -0.142  0.987  0.077 -143.905      6.48 -109.90  156.13  176.65 -149.49 -140.94 -140.90

DOCKED: MODEL       72
DOCKED: USER    Run = 72
DOCKED: USER    DPF = ligand_dock.biased.dpf
DOCKED: USER  
DOCKED: USER    Estimated Free Energy of Binding    =  -11.27 kcal/mol  [=(1)+(2)+(3)-(4)]
DOCKED: USER    Estimated Inhibition Constant, Ki   =    5.50 nM (nanomolar)  [Temperature = 298.15 K]
DOCKED: USER    
DOCKED: USER    (1) Final Intermolecular Energy     =  -13.36 kcal/mol
DOCKED: USER        vdW + Hbond + desolv Energy     =  -13.36 kcal/mol
DOCKED: USER        Electrostatic Energy            =   +0.00 kcal/mol
DOCKED: USER    (2) Final Total Internal Energy     =   -1.25 kcal/mol
DOCKED: USER    (3) Torsional Free Energy           =   +2.09 kcal/mol
DOCKED: USER    (4) Unbound System's Energy  [=(2)] =   -1.25 kcal/mol
DOCKED: USER    
DOCKED: USER    
DOCKED: USER    NEWDPF move ligand.dum.pdbqt
DOCKED: USER    NEWDPF about 0.154000 0.111000 -0.146000
DOCKED: USER    NEWDPF tran0 38.138576 16.147222 121.207268
DOCKED: USER    NEWDPF quaternion0 -0.134903 0.938317 0.073362 -0.309807
DOCKED: USER    NEWDPF axisangle0 -0.141884 0.986872 0.077158 -143.904791
DOCKED: USER    NEWDPF quat0 -0.141884 0.986872 0.077158 -143.904791
DOCKED: USER    NEWDPF dihe0 6.48 -109.90 156.13 176.65 -149.49 -140.94 -140.90 
DOCKED: USER  keepresnum = 1 
DOCKED: USER  
DOCKED: REMARK  Name = 
DOCKED: REMARK  7 active torsions:
DOCKED: REMARK  status: ('A' for Active; 'I' for Inactive)
DOCKED: REMARK    1  A    between atoms: C_2  and  C_5
DOCKED: REMARK    2  A    between atoms: N_3  and  O_4
DOCKED: REMARK    3  A    between atoms: C_5  and  C_6
DOCKED: REMARK    4  A    between atoms: C_6  and  C_7
DOCKED: REMARK    5  A    between atoms: C_7  and  C_8
DOCKED: REMARK    6  A    between atoms: C_8  and  C_9
DOCKED: REMARK    7  A    between atoms: C_9  and  N_10
DOCKED: REMARK                            x       y       z     vdW  Elec       q    Type
DOCKED: REMARK                         _______ _______ _______ _____ _____    ______ ____
DOCKED: USER                              x       y       z     vdW  Elec       q    Type
DOCKED: USER                           _______ _______ _______ _____ _____    ______ ____
DOCKED: ROOT
DOCKED: ATOM      1  N   UNL     1      38.178  15.332 122.463 -0.31 -0.00    +0.000 N 
DOCKED: ATOM      2  C   UNL     1      38.036  16.348 123.475 -0.28 -0.00    +0.000 C 
DOCKED: ATOM      3  C   UNL     1      39.217  17.125 123.916 -0.14 -0.00    +0.000 A 
DOCKED: ATOM      4  C   UNL     1      39.085  18.136 124.885 -0.19 -0.00    +0.000 A 
DOCKED: ATOM      5  C   UNL     1      40.196  18.871 125.300 -0.22 -0.00    +0.000 A 
DOCKED: ATOM      6  C   UNL     1      41.455  18.610 124.758 -0.15 -0.00    +0.000 A 
DOCKED: ATOM      7  C   UNL     1      41.612  17.606 123.792 -0.31 -0.00    +0.000 A 
DOCKED: ATOM      8  C   UNL     1      42.877  17.343 123.248 -0.25 -0.00    +0.000 A 
DOCKED: ATOM      9  C   UNL     1      43.035  16.344 122.289 -0.36 -0.00    +0.000 A 
DOCKED: ATOM     10  C   UNL     1      41.936  15.598 121.861 -0.37 -0.00    +0.000 A 
DOCKED: ATOM     11  C   UNL     1      40.656  15.843 122.391 -0.35 -0.00    +0.000 A 
DOCKED: ATOM     12  C   UNL     1      40.488  16.854 123.363 -0.24 -0.00    +0.000 A 
DOCKED: ATOM     13  O   UNL     1      36.906  16.576 123.987 -0.33 -0.00    +0.000 OA
DOCKED: ATOM     14  C   UNL     1      39.490  15.052 121.935 -0.38 -0.00    +0.000 C 
DOCKED: ATOM     15  O   UNL     1      39.650  14.133 121.086 -0.71 -0.00    +0.000 OA
DOCKED: ATOM     16  CM  UNL     1      39.313  16.071 122.911 +0.00 -0.00    +0.000 AC
DOCKED: ATOM     17  CM  UNL     1      40.342  17.867 124.335 +0.00 -0.00    +0.000 AC
DOCKED: ATOM     18  CM  UNL     1      41.768  16.598 122.824 +0.00 -0.00    +0.000 AC
DOCKED: ENDROOT
DOCKED: BRANCH   1  16
DOCKED: ATOM     19  C   UNL     1      36.991  14.621 121.958 -0.35 -0.00    +0.000 C 
DOCKED: BRANCH  16  17
DOCKED: ATOM     20  C   UNL     1      36.329  13.773 123.058 -0.53 -0.00    +0.000 C 
DOCKED: BRANCH  17  18
DOCKED: ATOM     21  C   UNL     1      37.062  12.453 123.365 -0.65 -0.00    +0.000 C 
DOCKED: BRANCH  18  19
DOCKED: ATOM     22  C   UNL     1      36.766  11.306 122.377 -0.63 -0.00    +0.000 C 
DOCKED: BRANCH  19  20
DOCKED: ATOM     23  C   UNL     1      36.082  10.082 123.006 -0.68 -0.00    +0.000 C 
DOCKED: BRANCH  20  22
DOCKED: ATOM     24  O   UNL     1      36.966   8.754 121.227 -2.54 -0.00    +0.000 OA
DOCKED: ATOM     25  C   UNL     1      36.592   8.793 122.430 -0.75 -0.00    +0.000 C 
DOCKED: ATOM     26  N   UNL     1      36.622   7.605 123.225 -0.75 -0.00    +0.000 N 
DOCKED: ATOM     27  H   UNL     1      36.321   7.636 124.161 -0.24 -0.00    +0.000 HD
DOCKED: BRANCH  23  25
DOCKED: ATOM     28  O   UNL     1      37.061   6.436 122.700 -1.11 -0.00    +0.000 OA
DOCKED: ATOM     29  H   UNL     1      37.414   6.593 121.809 -0.51 -0.00    +0.000 HD
DOCKED: ENDBRANCH  23  25
DOCKED: ENDBRANCH  20  22
DOCKED: ENDBRANCH  19  20
DOCKED: ENDBRANCH  18  19
DOCKED: ENDBRANCH  17  18
DOCKED: ENDBRANCH  16  17
DOCKED: ENDBRANCH   1  16
DOCKED: TORSDOF 7DOCKED: TER
DOCKED: ENDMDL
________________________________________________________________________________


	BEGINNING GENETIC ALGORITHM DOCKING 73 of 100
Run: 73 Seed: 1622833862 372603180 [ Run 73 of 100 GA/GALS ]
Beginning LAMARCKIAN GENETIC ALGORITHM (LGA), with a maximum of 2500000 energy evaluations.

Final-Value: -15.392


	FINAL GENETIC ALGORITHM DOCKED STATE
	_______________________________________________


Detailed state:  trans 38.091 15.043 123.967 quatxyzw 0.191401 -0.030237 -0.375402 -0.906380 center 0.154 0.111 -0.146 ntor 7 15.5045 -53.0226 -154.1558 -171.3831 -11.2660 173.1360 -170.9151
State:	 38.091  15.043 123.967   0.453 -0.072 -0.889 -49.980     15.50  -53.02 -154.16 -171.38  -11.27  173.14 -170.92

DOCKED: MODEL       73
DOCKED: USER    Run = 73
DOCKED: USER    DPF = ligand_dock.biased.dpf
DOCKED: USER  
DOCKED: USER    Estimated Free Energy of Binding    =  -11.93 kcal/mol  [=(1)+(2)+(3)-(4)]
DOCKED: USER    Estimated Inhibition Constant, Ki   =    1.79 nM (nanomolar)  [Temperature = 298.15 K]
DOCKED: USER    
DOCKED: USER    (1) Final Intermolecular Energy     =  -14.02 kcal/mol
DOCKED: USER        vdW + Hbond + desolv Energy     =  -14.02 kcal/mol
DOCKED: USER        Electrostatic Energy            =   +0.00 kcal/mol
DOCKED: USER    (2) Final Total Internal Energy     =   -1.37 kcal/mol
DOCKED: USER    (3) Torsional Free Energy           =   +2.09 kcal/mol
DOCKED: USER    (4) Unbound System's Energy  [=(2)] =   -1.37 kcal/mol
DOCKED: USER    
DOCKED: USER    
DOCKED: USER    NEWDPF move ligand.dum.pdbqt
DOCKED: USER    NEWDPF about 0.154000 0.111000 -0.146000
DOCKED: USER    NEWDPF tran0 38.091155 15.042923 123.966873
DOCKED: USER    NEWDPF quaternion0 0.191401 -0.030237 -0.375402 -0.906380
DOCKED: USER    NEWDPF axisangle0 0.453060 -0.071573 -0.888602 -49.980375
DOCKED: USER    NEWDPF quat0 0.453060 -0.071573 -0.888602 -49.980375
DOCKED: USER    NEWDPF dihe0 15.50 -53.02 -154.16 -171.38 -11.27 173.14 -170.92 
DOCKED: USER  keepresnum = 1 
DOCKED: USER  
DOCKED: REMARK  Name = 
DOCKED: REMARK  7 active torsions:
DOCKED: REMARK  status: ('A' for Active; 'I' for Inactive)
DOCKED: REMARK    1  A    between atoms: C_2  and  C_5
DOCKED: REMARK    2  A    between atoms: N_3  and  O_4
DOCKED: REMARK    3  A    between atoms: C_5  and  C_6
DOCKED: REMARK    4  A    between atoms: C_6  and  C_7
DOCKED: REMARK    5  A    between atoms: C_7  and  C_8
DOCKED: REMARK    6  A    between atoms: C_8  and  C_9
DOCKED: REMARK    7  A    between atoms: C_9  and  N_10
DOCKED: REMARK                            x       y       z     vdW  Elec       q    Type
DOCKED: REMARK                         _______ _______ _______ _____ _____    ______ ____
DOCKED: USER                              x       y       z     vdW  Elec       q    Type
DOCKED: USER                           _______ _______ _______ _____ _____    ______ ____
DOCKED: ROOT
DOCKED: ATOM      1  N   UNL     1      37.398  15.380 122.682 -0.32 -0.00    +0.000 N 
DOCKED: ATOM      2  C   UNL     1      37.733  16.773 122.528 -0.22 -0.00    +0.000 C 
DOCKED: ATOM      3  C   UNL     1      36.954  17.808 123.246 -0.18 -0.00    +0.000 A 
DOCKED: ATOM      4  C   UNL     1      37.289  19.168 123.121 -0.11 -0.00    +0.000 A 
DOCKED: ATOM      5  C   UNL     1      36.558  20.144 123.799 -0.14 -0.00    +0.000 A 
DOCKED: ATOM      6  C   UNL     1      35.482  19.781 124.610 -0.17 -0.00    +0.000 A 
DOCKED: ATOM      7  C   UNL     1      35.129  18.432 124.749 -0.26 -0.00    +0.000 A 
DOCKED: ATOM      8  C   UNL     1      34.047  18.067 125.564 -0.33 -0.00    +0.000 A 
DOCKED: ATOM      9  C   UNL     1      33.693  16.726 125.701 -0.32 -0.00    +0.000 A 
DOCKED: ATOM     10  C   UNL     1      34.412  15.735 125.031 -0.45 -0.00    +0.000 A 
DOCKED: ATOM     11  C   UNL     1      35.501  16.075 124.208 -0.40 -0.00    +0.000 A 
DOCKED: ATOM     12  C   UNL     1      35.866  17.432 124.064 -0.27 -0.00    +0.000 A 
DOCKED: ATOM     13  O   UNL     1      38.690  17.113 121.779 -0.14 -0.00    +0.000 OA
DOCKED: ATOM     14  C   UNL     1      36.264  15.023 123.499 -0.47 -0.00    +0.000 C 
DOCKED: ATOM     15  O   UNL     1      35.918  13.815 123.611 -0.61 -0.00    +0.000 OA
DOCKED: ATOM     16  CM  UNL     1      36.640  16.387 123.353 +0.00 -0.00    +0.000 AC
DOCKED: ATOM     17  CM  UNL     1      36.213  18.794 123.932 -0.03 -0.00    +0.000 AC
DOCKED: ATOM     18  CM  UNL     1      34.774  17.078 124.886 -0.34 -0.00    +0.000 AC
DOCKED: ENDROOT
DOCKED: BRANCH   1  16
DOCKED: ATOM     19  C   UNL     1      38.227  14.345 122.042 -0.43 -0.00    +0.000 C 
DOCKED: BRANCH  16  17
DOCKED: ATOM     20  C   UNL     1      37.653  13.926 120.677 -0.39 -0.00    +0.000 C 
DOCKED: BRANCH  17  18
DOCKED: ATOM     21  C   UNL     1      37.355  12.420 120.553 -0.52 -0.00    +0.000 C 
DOCKED: BRANCH  18  19
DOCKED: ATOM     22  C   UNL     1      36.372  11.867 121.607 -0.52 -0.00    +0.000 C 
DOCKED: BRANCH  19  20
DOCKED: ATOM     23  C   UNL     1      37.029  11.031 122.716 -0.61 -0.00    +0.000 C 
DOCKED: BRANCH  20  22
DOCKED: ATOM     24  O   UNL     1      37.017   9.205 121.175 -2.73 -0.00    +0.000 OA
DOCKED: ATOM     25  C   UNL     1      37.050   9.568 122.381 -0.61 -0.00    +0.000 C 
DOCKED: ATOM     26  N   UNL     1      37.072   8.587 123.421 -0.66 -0.00    +0.000 N 
DOCKED: ATOM     27  H   UNL     1      37.089   8.873 124.362 -0.53 -0.00    +0.000 HD
DOCKED: BRANCH  23  25
DOCKED: ATOM     28  O   UNL     1      37.068   7.266 123.121 -2.08 -0.00    +0.000 OA
DOCKED: ATOM     29  H   UNL     1      37.295   7.146 122.185 -0.15 -0.00    +0.000 HD
DOCKED: ENDBRANCH  23  25
DOCKED: ENDBRANCH  20  22
DOCKED: ENDBRANCH  19  20
DOCKED: ENDBRANCH  18  19
DOCKED: ENDBRANCH  17  18
DOCKED: ENDBRANCH  16  17
DOCKED: ENDBRANCH   1  16
DOCKED: TORSDOF 7DOCKED: TER
DOCKED: ENDMDL
________________________________________________________________________________


	BEGINNING GENETIC ALGORITHM DOCKING 74 of 100
Run: 74 Seed: 362632355 337495445 [ Run 74 of 100 GA/GALS ]
Beginning LAMARCKIAN GENETIC ALGORITHM (LGA), with a maximum of 2500000 energy evaluations.

Final-Value: -15.298


	FINAL GENETIC ALGORITHM DOCKED STATE
	_______________________________________________


Detailed state:  trans 37.510 16.235 121.759 quatxyzw 0.085393 -0.966354 0.073900 0.231101 center 0.154 0.111 -0.146 ntor 7 21.5843 102.4907 179.3419 151.3412 22.5914 178.1764 179.7670
State:	 37.510  16.235 121.759   0.088 -0.993  0.076 153.276     21.58  102.49  179.34  151.34   22.59  178.18  179.77

DOCKED: MODEL       74
DOCKED: USER    Run = 74
DOCKED: USER    DPF = ligand_dock.biased.dpf
DOCKED: USER  
DOCKED: USER    Estimated Free Energy of Binding    =  -11.90 kcal/mol  [=(1)+(2)+(3)-(4)]
DOCKED: USER    Estimated Inhibition Constant, Ki   =    1.90 nM (nanomolar)  [Temperature = 298.15 K]
DOCKED: USER    
DOCKED: USER    (1) Final Intermolecular Energy     =  -13.98 kcal/mol
DOCKED: USER        vdW + Hbond + desolv Energy     =  -13.98 kcal/mol
DOCKED: USER        Electrostatic Energy            =   +0.00 kcal/mol
DOCKED: USER    (2) Final Total Internal Energy     =   -1.31 kcal/mol
DOCKED: USER    (3) Torsional Free Energy           =   +2.09 kcal/mol
DOCKED: USER    (4) Unbound System's Energy  [=(2)] =   -1.31 kcal/mol
DOCKED: USER    
DOCKED: USER    
DOCKED: USER    NEWDPF move ligand.dum.pdbqt
DOCKED: USER    NEWDPF about 0.154000 0.111000 -0.146000
DOCKED: USER    NEWDPF tran0 37.509870 16.234786 121.758707
DOCKED: USER    NEWDPF quaternion0 0.085393 -0.966354 0.073900 0.231101
DOCKED: USER    NEWDPF axisangle0 0.087769 -0.993241 0.075956 153.276238
DOCKED: USER    NEWDPF quat0 0.087769 -0.993241 0.075956 153.276238
DOCKED: USER    NEWDPF dihe0 21.58 102.49 179.34 151.34 22.59 178.18 179.77 
DOCKED: USER  keepresnum = 1 
DOCKED: USER  
DOCKED: REMARK  Name = 
DOCKED: REMARK  7 active torsions:
DOCKED: REMARK  status: ('A' for Active; 'I' for Inactive)
DOCKED: REMARK    1  A    between atoms: C_2  and  C_5
DOCKED: REMARK    2  A    between atoms: N_3  and  O_4
DOCKED: REMARK    3  A    between atoms: C_5  and  C_6
DOCKED: REMARK    4  A    between atoms: C_6  and  C_7
DOCKED: REMARK    5  A    between atoms: C_7  and  C_8
DOCKED: REMARK    6  A    between atoms: C_8  and  C_9
DOCKED: REMARK    7  A    between atoms: C_9  and  N_10
DOCKED: REMARK                            x       y       z     vdW  Elec       q    Type
DOCKED: REMARK                         _______ _______ _______ _____ _____    ______ ____
DOCKED: USER                              x       y       z     vdW  Elec       q    Type
DOCKED: USER                           _______ _______ _______ _____ _____    ______ ____
DOCKED: ROOT
DOCKED: ATOM      1  N   UNL     1      37.613  15.775 123.181 -0.32 -0.00    +0.000 N 
DOCKED: ATOM      2  C   UNL     1      37.794  17.022 123.878 -0.22 -0.00    +0.000 C 
DOCKED: ATOM      3  C   UNL     1      39.137  17.640 123.958 -0.21 -0.00    +0.000 A 
DOCKED: ATOM      4  C   UNL     1      39.319  18.870 124.614 -0.16 -0.00    +0.000 A 
DOCKED: ATOM      5  C   UNL     1      40.584  19.455 124.688 -0.14 -0.00    +0.000 A 
DOCKED: ATOM      6  C   UNL     1      41.686  18.824 124.110 -0.15 -0.00    +0.000 A 
DOCKED: ATOM      7  C   UNL     1      41.529  17.597 123.450 -0.29 -0.00    +0.000 A 
DOCKED: ATOM      8  C   UNL     1      42.637  16.962 122.870 -0.35 -0.00    +0.000 A 
DOCKED: ATOM      9  C   UNL     1      42.482  15.740 122.216 -0.39 -0.00    +0.000 A 
DOCKED: ATOM     10  C   UNL     1      41.226  15.139 122.133 -0.42 -0.00    +0.000 A 
DOCKED: ATOM     11  C   UNL     1      40.099  15.756 122.706 -0.32 -0.00    +0.000 A 
DOCKED: ATOM     12  C   UNL     1      40.247  16.994 123.370 -0.24 -0.00    +0.000 A 
DOCKED: ATOM     13  O   UNL     1      36.807  17.590 124.424 -0.27 -0.00    +0.000 OA
DOCKED: ATOM     14  C   UNL     1      38.766  15.119 122.616 -0.39 -0.00    +0.000 C 
DOCKED: ATOM     15  O   UNL     1      38.644  14.001 122.044 -0.58 -0.00    +0.000 OA
DOCKED: ATOM     16  CM  UNL     1      38.907  16.368 123.282 +0.00 -0.00    +0.000 AC
DOCKED: ATOM     17  CM  UNL     1      40.417  18.230 124.031 +0.00 -0.00    +0.000 AC
DOCKED: ATOM     18  CM  UNL     1      41.371  16.365 122.791 +0.00 -0.00    +0.000 AC
DOCKED: ENDROOT
DOCKED: BRANCH   1  16
DOCKED: ATOM     19  C   UNL     1      36.264  15.205 123.023 -0.42 -0.00    +0.000 C 
DOCKED: BRANCH  16  17
DOCKED: ATOM     20  C   UNL     1      36.035  14.022 123.980 -0.51 -0.00    +0.000 C 
DOCKED: BRANCH  17  18
DOCKED: ATOM     21  C   UNL     1      35.760  12.681 123.272 -0.49 -0.00    +0.000 C 
DOCKED: BRANCH  18  19
DOCKED: ATOM     22  C   UNL     1      37.015  11.827 122.999 -0.66 -0.00    +0.000 C 
DOCKED: BRANCH  19  20
DOCKED: ATOM     23  C   UNL     1      36.996  11.073 121.660 -0.53 -0.00    +0.000 C 
DOCKED: BRANCH  20  22
DOCKED: ATOM     24  O   UNL     1      37.059   8.828 120.842 -2.71 -0.00    +0.000 OA
DOCKED: ATOM     25  C   UNL     1      37.058   9.585 121.850 -0.60 -0.00    +0.000 C 
DOCKED: ATOM     26  N   UNL     1      37.082   9.023 123.164 -0.65 -0.00    +0.000 N 
DOCKED: ATOM     27  H   UNL     1      37.073   9.616 123.949 -0.51 -0.00    +0.000 HD
DOCKED: BRANCH  23  25
DOCKED: ATOM     28  O   UNL     1      37.116   7.680 123.338 -2.27 -0.00    +0.000 OA
DOCKED: ATOM     29  H   UNL     1      37.457   7.258 122.534 -0.20 -0.00    +0.000 HD
DOCKED: ENDBRANCH  23  25
DOCKED: ENDBRANCH  20  22
DOCKED: ENDBRANCH  19  20
DOCKED: ENDBRANCH  18  19
DOCKED: ENDBRANCH  17  18
DOCKED: ENDBRANCH  16  17
DOCKED: ENDBRANCH   1  16
DOCKED: TORSDOF 7DOCKED: TER
DOCKED: ENDMDL
________________________________________________________________________________


	BEGINNING GENETIC ALGORITHM DOCKING 75 of 100
Run: 75 Seed: 1180883614 1280415838 [ Run 75 of 100 GA/GALS ]
Beginning LAMARCKIAN GENETIC ALGORITHM (LGA), with a maximum of 2500000 energy evaluations.

Final-Value: -14.421


	FINAL GENETIC ALGORITHM DOCKED STATE
	_______________________________________________


Detailed state:  trans 37.280 15.012 124.003 quatxyzw -0.027935 -0.086875 -0.947096 -0.307704 center 0.154 0.111 -0.146 ntor 7 6.8428 40.3874 113.0836 42.0303 176.0159 -109.0269 20.9441
State:	 37.280  15.012 124.003  -0.029 -0.091 -0.995 -144.158      6.84   40.39  113.08   42.03  176.02 -109.03   20.94

DOCKED: MODEL       75
DOCKED: USER    Run = 75
DOCKED: USER    DPF = ligand_dock.biased.dpf
DOCKED: USER  
DOCKED: USER    Estimated Free Energy of Binding    =  -10.81 kcal/mol  [=(1)+(2)+(3)-(4)]
DOCKED: USER    Estimated Inhibition Constant, Ki   =   11.83 nM (nanomolar)  [Temperature = 298.15 K]
DOCKED: USER    
DOCKED: USER    (1) Final Intermolecular Energy     =  -12.90 kcal/mol
DOCKED: USER        vdW + Hbond + desolv Energy     =  -12.90 kcal/mol
DOCKED: USER        Electrostatic Energy            =   +0.00 kcal/mol
DOCKED: USER    (2) Final Total Internal Energy     =   -1.52 kcal/mol
DOCKED: USER    (3) Torsional Free Energy           =   +2.09 kcal/mol
DOCKED: USER    (4) Unbound System's Energy  [=(2)] =   -1.52 kcal/mol
DOCKED: USER    
DOCKED: USER    
DOCKED: USER    NEWDPF move ligand.dum.pdbqt
DOCKED: USER    NEWDPF about 0.154000 0.111000 -0.146000
DOCKED: USER    NEWDPF tran0 37.280206 15.012289 124.002935
DOCKED: USER    NEWDPF quaternion0 -0.027935 -0.086875 -0.947096 -0.307704
DOCKED: USER    NEWDPF axisangle0 -0.029359 -0.091305 -0.995390 -144.158192
DOCKED: USER    NEWDPF quat0 -0.029359 -0.091305 -0.995390 -144.158192
DOCKED: USER    NEWDPF dihe0 6.84 40.39 113.08 42.03 176.02 -109.03 20.94 
DOCKED: USER  keepresnum = 1 
DOCKED: USER  
DOCKED: REMARK  Name = 
DOCKED: REMARK  7 active torsions:
DOCKED: REMARK  status: ('A' for Active; 'I' for Inactive)
DOCKED: REMARK    1  A    between atoms: C_2  and  C_5
DOCKED: REMARK    2  A    between atoms: N_3  and  O_4
DOCKED: REMARK    3  A    between atoms: C_5  and  C_6
DOCKED: REMARK    4  A    between atoms: C_6  and  C_7
DOCKED: REMARK    5  A    between atoms: C_7  and  C_8
DOCKED: REMARK    6  A    between atoms: C_8  and  C_9
DOCKED: REMARK    7  A    between atoms: C_9  and  N_10
DOCKED: REMARK                            x       y       z     vdW  Elec       q    Type
DOCKED: REMARK                         _______ _______ _______ _____ _____    ______ ____
DOCKED: USER                              x       y       z     vdW  Elec       q    Type
DOCKED: USER                           _______ _______ _______ _____ _____    ______ ____
DOCKED: ROOT
DOCKED: ATOM      1  N   UNL     1      37.356  15.731 122.690 -0.29 -0.00    +0.000 N 
DOCKED: ATOM      2  C   UNL     1      38.556  15.174 122.122 -0.36 -0.00    +0.000 C 
DOCKED: ATOM      3  C   UNL     1      39.881  15.707 122.515 -0.31 -0.00    +0.000 A 
DOCKED: ATOM      4  C   UNL     1      41.059  15.154 121.985 -0.39 -0.00    +0.000 A 
DOCKED: ATOM      5  C   UNL     1      42.308  15.654 122.357 -0.43 -0.00    +0.000 A 
DOCKED: ATOM      6  C   UNL     1      42.401  16.712 123.260 -0.34 -0.00    +0.000 A 
DOCKED: ATOM      7  C   UNL     1      41.241  17.281 123.802 -0.31 -0.00    +0.000 A 
DOCKED: ATOM      8  C   UNL     1      41.335  18.346 124.710 -0.22 -0.00    +0.000 A 
DOCKED: ATOM      9  C   UNL     1      40.180  18.914 125.247 -0.21 -0.00    +0.000 A 
DOCKED: ATOM     10  C   UNL     1      38.922  18.428 124.888 -0.18 -0.00    +0.000 A 
DOCKED: ATOM     11  C   UNL     1      38.802  17.361 123.979 -0.19 -0.00    +0.000 A 
DOCKED: ATOM     12  C   UNL     1      39.966  16.780 123.431 -0.19 -0.00    +0.000 A 
DOCKED: ATOM     13  O   UNL     1      38.481  14.231 121.286 -0.42 -0.00    +0.000 OA
DOCKED: ATOM     14  C   UNL     1      37.467  16.845 123.599 -0.26 -0.00    +0.000 C 
DOCKED: ATOM     15  O   UNL     1      36.429  17.384 124.073 -0.28 -0.00    +0.000 OA
DOCKED: ATOM     16  CM  UNL     1      38.635  16.252 123.046 +0.00 -0.00    +0.000 AC
DOCKED: ATOM     17  CM  UNL     1      41.143  16.214 122.892 +0.00 -0.00    +0.000 AC
DOCKED: ATOM     18  CM  UNL     1      40.074  17.852 124.343 +0.00 -0.00    +0.000 AC
DOCKED: ENDROOT
DOCKED: BRANCH   1  16
DOCKED: ATOM     19  C   UNL     1      36.044  15.143 122.370 -0.02 -0.00    +0.000 C 
DOCKED: BRANCH  16  17
DOCKED: ATOM     20  C   UNL     1      35.585  14.158 123.459 -0.50 -0.00    +0.000 C 
DOCKED: BRANCH  17  18
DOCKED: ATOM     21  C   UNL     1      36.681  13.183 123.931 -0.38 -0.00    +0.000 C 
DOCKED: BRANCH  18  19
DOCKED: ATOM     22  C   UNL     1      36.407  11.699 123.609 -0.71 -0.00    +0.000 C 
DOCKED: BRANCH  19  20
DOCKED: ATOM     23  C   UNL     1      37.293  11.111 122.500 -0.31 -0.00    +0.000 C 
DOCKED: BRANCH  20  22
DOCKED: ATOM     24  O   UNL     1      36.634   9.210 121.210 -2.56 -0.00    +0.000 OA
DOCKED: ATOM     25  C   UNL     1      37.062   9.639 122.315 -0.60 -0.00    +0.000 C 
DOCKED: ATOM     26  N   UNL     1      37.290   8.728 123.393 -0.59 -0.00    +0.000 N 
DOCKED: ATOM     27  H   UNL     1      37.616   9.067 124.257 -0.61 -0.00    +0.000 HD
DOCKED: BRANCH  23  25
DOCKED: ATOM     28  O   UNL     1      37.061   7.403 123.235 -2.17 -0.00    +0.000 OA
DOCKED: ATOM     29  H   UNL     1      36.850   7.219 122.306 -0.07 -0.00    +0.000 HD
DOCKED: ENDBRANCH  23  25
DOCKED: ENDBRANCH  20  22
DOCKED: ENDBRANCH  19  20
DOCKED: ENDBRANCH  18  19
DOCKED: ENDBRANCH  17  18
DOCKED: ENDBRANCH  16  17
DOCKED: ENDBRANCH   1  16
DOCKED: TORSDOF 7DOCKED: TER
DOCKED: ENDMDL
________________________________________________________________________________


	BEGINNING GENETIC ALGORITHM DOCKING 76 of 100
Run: 76 Seed: 1160207520 216533859 [ Run 76 of 100 GA/GALS ]
Beginning LAMARCKIAN GENETIC ALGORITHM (LGA), with a maximum of 2500000 energy evaluations.

Final-Value: -12.708


	FINAL GENETIC ALGORITHM DOCKED STATE
	_______________________________________________


Detailed state:  trans 37.744 16.289 121.846 quatxyzw 0.646641 -0.517571 -0.223473 0.513844 center 0.154 0.111 -0.146 ntor 7 8.5622 42.7646 3.6490 -0.0684 176.3510 -147.2350 0.7765
State:	 37.744  16.289 121.846   0.754 -0.603 -0.260 118.160      8.56   42.76    3.65   -0.07  176.35 -147.24    0.78

DOCKED: MODEL       76
DOCKED: USER    Run = 76
DOCKED: USER    DPF = ligand_dock.biased.dpf
DOCKED: USER  
DOCKED: USER    Estimated Free Energy of Binding    =   -8.31 kcal/mol  [=(1)+(2)+(3)-(4)]
DOCKED: USER    Estimated Inhibition Constant, Ki   =  811.04 nM (nanomolar)  [Temperature = 298.15 K]
DOCKED: USER    
DOCKED: USER    (1) Final Intermolecular Energy     =  -10.40 kcal/mol
DOCKED: USER        vdW + Hbond + desolv Energy     =  -10.40 kcal/mol
DOCKED: USER        Electrostatic Energy            =   +0.00 kcal/mol
DOCKED: USER    (2) Final Total Internal Energy     =   -2.31 kcal/mol
DOCKED: USER    (3) Torsional Free Energy           =   +2.09 kcal/mol
DOCKED: USER    (4) Unbound System's Energy  [=(2)] =   -2.31 kcal/mol
DOCKED: USER    
DOCKED: USER    
DOCKED: USER    NEWDPF move ligand.dum.pdbqt
DOCKED: USER    NEWDPF about 0.154000 0.111000 -0.146000
DOCKED: USER    NEWDPF tran0 37.743577 16.289149 121.846396
DOCKED: USER    NEWDPF quaternion0 0.646641 -0.517571 -0.223473 0.513844
DOCKED: USER    NEWDPF axisangle0 0.753763 -0.603311 -0.260494 118.159546
DOCKED: USER    NEWDPF quat0 0.753763 -0.603311 -0.260494 118.159546
DOCKED: USER    NEWDPF dihe0 8.56 42.76 3.65 -0.07 176.35 -147.24 0.78 
DOCKED: USER  keepresnum = 1 
DOCKED: USER  
DOCKED: REMARK  Name = 
DOCKED: REMARK  7 active torsions:
DOCKED: REMARK  status: ('A' for Active; 'I' for Inactive)
DOCKED: REMARK    1  A    between atoms: C_2  and  C_5
DOCKED: REMARK    2  A    between atoms: N_3  and  O_4
DOCKED: REMARK    3  A    between atoms: C_5  and  C_6
DOCKED: REMARK    4  A    between atoms: C_6  and  C_7
DOCKED: REMARK    5  A    between atoms: C_7  and  C_8
DOCKED: REMARK    6  A    between atoms: C_8  and  C_9
DOCKED: REMARK    7  A    between atoms: C_9  and  N_10
DOCKED: REMARK                            x       y       z     vdW  Elec       q    Type
DOCKED: REMARK                         _______ _______ _______ _____ _____    ______ ____
DOCKED: USER                              x       y       z     vdW  Elec       q    Type
DOCKED: USER                           _______ _______ _______ _____ _____    ______ ____
DOCKED: ROOT
DOCKED: ATOM      1  N   UNL     1      37.886  15.475 123.096 -0.34 -0.00    +0.000 N 
DOCKED: ATOM      2  C   UNL     1      36.509  15.263 123.463 -0.44 -0.00    +0.000 C 
DOCKED: ATOM      3  C   UNL     1      35.768  16.310 124.204 -0.35 -0.00    +0.000 A 
DOCKED: ATOM      4  C   UNL     1      34.417  16.123 124.545 -0.50 -0.00    +0.000 A 
DOCKED: ATOM      5  C   UNL     1      33.717  17.110 125.240 -0.27 -0.00    +0.000 A 
DOCKED: ATOM      6  C   UNL     1      34.352  18.297 125.606 -0.30 -0.00    +0.000 A 
DOCKED: ATOM      7  C   UNL     1      35.699  18.506 125.278 -0.21 -0.00    +0.000 A 
DOCKED: ATOM      8  C   UNL     1      36.338  19.699 125.648 -0.14 -0.00    +0.000 A 
DOCKED: ATOM      9  C   UNL     1      37.677  19.906 125.323 -0.10 -0.00    +0.000 A 
DOCKED: ATOM     10  C   UNL     1      38.394  18.931 124.629 -0.14 -0.00    +0.000 A 
DOCKED: ATOM     11  C   UNL     1      37.777  17.727 124.247 -0.17 -0.00    +0.000 A 
DOCKED: ATOM     12  C   UNL     1      36.419  17.509 124.572 -0.21 -0.00    +0.000 A 
DOCKED: ATOM     13  O   UNL     1      35.932  14.183 123.156 -0.53 -0.00    +0.000 OA
DOCKED: ATOM     14  C   UNL     1      38.537  16.693 123.509 -0.25 -0.00    +0.000 C 
DOCKED: ATOM     15  O   UNL     1      39.756  16.882 123.244 -0.29 -0.00    +0.000 OA
DOCKED: ATOM     16  CM  UNL     1      37.169  16.469 123.828 +0.00 -0.00    +0.000 AC
DOCKED: ATOM     17  CM  UNL     1      35.062  17.309 124.907 -0.40 -0.00    +0.000 AC
DOCKED: ATOM     18  CM  UNL     1      37.051  18.713 124.950 -0.01 -0.00    +0.000 AC
DOCKED: ENDROOT
DOCKED: BRANCH   1  16
DOCKED: ATOM     19  C   UNL     1      38.596  14.474 122.282 -0.44 -0.00    +0.000 C 
DOCKED: BRANCH  16  17
DOCKED: ATOM     20  C   UNL     1      38.187  14.556 120.801 -0.33 -0.00    +0.000 C 
DOCKED: BRANCH  17  18
DOCKED: ATOM     21  C   UNL     1      36.892  13.793 120.461 -0.20 -0.00    +0.000 C 
DOCKED: BRANCH  18  19
DOCKED: ATOM     22  C   UNL     1      37.082  12.591 119.513 -0.39 -0.00    +0.000 C 
DOCKED: BRANCH  19  20
DOCKED: ATOM     23  C   UNL     1      37.903  11.434 120.105 -0.32 -0.00    +0.000 C 
DOCKED: BRANCH  20  22
DOCKED: ATOM     24  O   UNL     1      36.923   9.554 121.207 -2.41 -0.00    +0.000 OA
DOCKED: ATOM     25  C   UNL     1      37.204  10.781 121.262 -0.29 -0.00    +0.000 C 
DOCKED: ATOM     26  N   UNL     1      36.826  11.549 122.407 -0.57 -0.00    +0.000 N 
DOCKED: ATOM     27  H   UNL     1      37.039  12.509 122.444 -0.02 -0.00    +0.000 HD
DOCKED: BRANCH  23  25
DOCKED: ATOM     28  O   UNL     1      36.174  10.966 123.442 -0.72 -0.00    +0.000 OA
DOCKED: ATOM     29  H   UNL     1      36.160  10.004 123.315 -0.06 -0.00    +0.000 HD
DOCKED: ENDBRANCH  23  25
DOCKED: ENDBRANCH  20  22
DOCKED: ENDBRANCH  19  20
DOCKED: ENDBRANCH  18  19
DOCKED: ENDBRANCH  17  18
DOCKED: ENDBRANCH  16  17
DOCKED: ENDBRANCH   1  16
DOCKED: TORSDOF 7DOCKED: TER
DOCKED: ENDMDL
________________________________________________________________________________


	BEGINNING GENETIC ALGORITHM DOCKING 77 of 100
Run: 77 Seed: 517272912 819130485 [ Run 77 of 100 GA/GALS ]
Beginning LAMARCKIAN GENETIC ALGORITHM (LGA), with a maximum of 2500000 energy evaluations.

Final-Value: -14.972


	FINAL GENETIC ALGORITHM DOCKED STATE
	_______________________________________________


Detailed state:  trans 38.289 15.043 124.020 quatxyzw -0.312874 0.029994 0.355641 0.880187 center 0.154 0.111 -0.146 ntor 7 12.1803 -86.1703 -157.1503 177.4545 43.9801 175.8946 160.6044
State:	 38.289  15.043 124.020  -0.659  0.063  0.749 56.670     12.18  -86.17 -157.15  177.45   43.98  175.89  160.60

DOCKED: MODEL       77
DOCKED: USER    Run = 77
DOCKED: USER    DPF = ligand_dock.biased.dpf
DOCKED: USER  
DOCKED: USER    Estimated Free Energy of Binding    =  -11.57 kcal/mol  [=(1)+(2)+(3)-(4)]
DOCKED: USER    Estimated Inhibition Constant, Ki   =    3.28 nM (nanomolar)  [Temperature = 298.15 K]
DOCKED: USER    
DOCKED: USER    (1) Final Intermolecular Energy     =  -13.66 kcal/mol
DOCKED: USER        vdW + Hbond + desolv Energy     =  -13.66 kcal/mol
DOCKED: USER        Electrostatic Energy            =   +0.00 kcal/mol
DOCKED: USER    (2) Final Total Internal Energy     =   -1.31 kcal/mol
DOCKED: USER    (3) Torsional Free Energy           =   +2.09 kcal/mol
DOCKED: USER    (4) Unbound System's Energy  [=(2)] =   -1.31 kcal/mol
DOCKED: USER    
DOCKED: USER    
DOCKED: USER    NEWDPF move ligand.dum.pdbqt
DOCKED: USER    NEWDPF about 0.154000 0.111000 -0.146000
DOCKED: USER    NEWDPF tran0 38.288597 15.042660 124.020183
DOCKED: USER    NEWDPF quaternion0 -0.312874 0.029994 0.355641 0.880187
DOCKED: USER    NEWDPF axisangle0 -0.659200 0.063196 0.749307 56.670145
DOCKED: USER    NEWDPF quat0 -0.659200 0.063196 0.749307 56.670145
DOCKED: USER    NEWDPF dihe0 12.18 -86.17 -157.15 177.45 43.98 175.89 160.60 
DOCKED: USER  keepresnum = 1 
DOCKED: USER  
DOCKED: REMARK  Name = 
DOCKED: REMARK  7 active torsions:
DOCKED: REMARK  status: ('A' for Active; 'I' for Inactive)
DOCKED: REMARK    1  A    between atoms: C_2  and  C_5
DOCKED: REMARK    2  A    between atoms: N_3  and  O_4
DOCKED: REMARK    3  A    between atoms: C_5  and  C_6
DOCKED: REMARK    4  A    between atoms: C_6  and  C_7
DOCKED: REMARK    5  A    between atoms: C_7  and  C_8
DOCKED: REMARK    6  A    between atoms: C_8  and  C_9
DOCKED: REMARK    7  A    between atoms: C_9  and  N_10
DOCKED: REMARK                            x       y       z     vdW  Elec       q    Type
DOCKED: REMARK                         _______ _______ _______ _____ _____    ______ ____
DOCKED: USER                              x       y       z     vdW  Elec       q    Type
DOCKED: USER                           _______ _______ _______ _____ _____    ______ ____
DOCKED: ROOT
DOCKED: ATOM      1  N   UNL     1      37.711  15.657 122.781 -0.30 -0.00    +0.000 N 
DOCKED: ATOM      2  C   UNL     1      38.011  17.051 122.981 -0.23 -0.00    +0.000 C 
DOCKED: ATOM      3  C   UNL     1      37.131  17.886 123.831 -0.19 -0.00    +0.000 A 
DOCKED: ATOM      4  C   UNL     1      37.429  19.242 124.052 -0.12 -0.00    +0.000 A 
DOCKED: ATOM      5  C   UNL     1      36.602  20.029 124.856 -0.12 -0.00    +0.000 A 
DOCKED: ATOM      6  C   UNL     1      35.466  19.477 125.449 -0.18 -0.00    +0.000 A 
DOCKED: ATOM      7  C   UNL     1      35.148  18.127 125.243 -0.27 -0.00    +0.000 A 
DOCKED: ATOM      8  C   UNL     1      34.006  17.573 125.839 -0.36 -0.00    +0.000 A 
DOCKED: ATOM      9  C   UNL     1      33.688  16.232 125.633 -0.27 -0.00    +0.000 A 
DOCKED: ATOM     10  C   UNL     1      34.502  15.429 124.833 -0.43 -0.00    +0.000 A 
DOCKED: ATOM     11  C   UNL     1      35.653  15.961 124.224 -0.38 -0.00    +0.000 A 
DOCKED: ATOM     12  C   UNL     1      35.982  17.319 124.428 -0.26 -0.00    +0.000 A 
DOCKED: ATOM     13  O   UNL     1      39.023  17.565 122.430 -0.15 -0.00    +0.000 OA
DOCKED: ATOM     14  C   UNL     1      36.517  15.108 123.376 -0.45 -0.00    +0.000 C 
DOCKED: ATOM     15  O   UNL     1      36.204  13.903 123.176 -0.55 -0.00    +0.000 OA
DOCKED: ATOM     16  CM  UNL     1      36.858  16.474 123.581 +0.00 -0.00    +0.000 AC
DOCKED: ATOM     17  CM  UNL     1      36.293  18.680 124.644 -0.06 -0.00    +0.000 AC
DOCKED: ATOM     18  CM  UNL     1      34.829  16.774 125.033 -0.25 -0.00    +0.000 AC
DOCKED: ENDROOT
DOCKED: BRANCH   1  16
DOCKED: ATOM     19  C   UNL     1      38.633  14.805 122.011 -0.39 -0.00    +0.000 C 
DOCKED: BRANCH  16  17
DOCKED: ATOM     20  C   UNL     1      37.922  14.129 120.827 -0.38 -0.00    +0.000 C 
DOCKED: BRANCH  17  18
DOCKED: ATOM     21  C   UNL     1      37.956  12.589 120.865 -0.45 -0.00    +0.000 C 
DOCKED: BRANCH  18  19
DOCKED: ATOM     22  C   UNL     1      36.583  11.918 121.080 -0.40 -0.00    +0.000 C 
DOCKED: BRANCH  19  20
DOCKED: ATOM     23  C   UNL     1      36.462  11.116 122.386 -0.66 -0.00    +0.000 C 
DOCKED: BRANCH  20  22
DOCKED: ATOM     24  O   UNL     1      36.897   9.211 121.009 -2.68 -0.00    +0.000 OA
DOCKED: ATOM     25  C   UNL     1      36.752   9.657 122.179 -0.68 -0.00    +0.000 C 
DOCKED: ATOM     26  N   UNL     1      36.829   8.768 123.296 -0.64 -0.00    +0.000 N 
DOCKED: ATOM     27  H   UNL     1      36.708   9.118 124.208 -0.47 -0.00    +0.000 HD
DOCKED: BRANCH  23  25
DOCKED: ATOM     28  O   UNL     1      37.068   7.448 123.110 -2.21 -0.00    +0.000 OA
DOCKED: ATOM     29  H   UNL     1      37.352   7.296 122.195 -0.13 -0.00    +0.000 HD
DOCKED: ENDBRANCH  23  25
DOCKED: ENDBRANCH  20  22
DOCKED: ENDBRANCH  19  20
DOCKED: ENDBRANCH  18  19
DOCKED: ENDBRANCH  17  18
DOCKED: ENDBRANCH  16  17
DOCKED: ENDBRANCH   1  16
DOCKED: TORSDOF 7DOCKED: TER
DOCKED: ENDMDL
________________________________________________________________________________


	BEGINNING GENETIC ALGORITHM DOCKING 78 of 100
Run: 78 Seed: 2136952711 1519991121 [ Run 78 of 100 GA/GALS ]
Beginning LAMARCKIAN GENETIC ALGORITHM (LGA), with a maximum of 2500000 energy evaluations.

Final-Value: -15.582


	FINAL GENETIC ALGORITHM DOCKED STATE
	_______________________________________________


Detailed state:  trans 38.075 16.101 121.438 quatxyzw 0.151133 -0.948927 -0.021932 0.276071 center 0.154 0.111 -0.146 ntor 7 5.7162 172.8497 179.3196 161.7838 -73.0004 -179.2239 -132.1836
State:	 38.075  16.101 121.438   0.157 -0.987 -0.023 147.948      5.72  172.85  179.32  161.78  -73.00 -179.22 -132.18

DOCKED: MODEL       78
DOCKED: USER    Run = 78
DOCKED: USER    DPF = ligand_dock.biased.dpf
DOCKED: USER  
DOCKED: USER    Estimated Free Energy of Binding    =  -12.20 kcal/mol  [=(1)+(2)+(3)-(4)]
DOCKED: USER    Estimated Inhibition Constant, Ki   =    1.14 nM (nanomolar)  [Temperature = 298.15 K]
DOCKED: USER    
DOCKED: USER    (1) Final Intermolecular Energy     =  -14.29 kcal/mol
DOCKED: USER        vdW + Hbond + desolv Energy     =  -14.29 kcal/mol
DOCKED: USER        Electrostatic Energy            =   +0.00 kcal/mol
DOCKED: USER    (2) Final Total Internal Energy     =   -1.30 kcal/mol
DOCKED: USER    (3) Torsional Free Energy           =   +2.09 kcal/mol
DOCKED: USER    (4) Unbound System's Energy  [=(2)] =   -1.30 kcal/mol
DOCKED: USER    
DOCKED: USER    
DOCKED: USER    NEWDPF move ligand.dum.pdbqt
DOCKED: USER    NEWDPF about 0.154000 0.111000 -0.146000
DOCKED: USER    NEWDPF tran0 38.074622 16.100716 121.437623
DOCKED: USER    NEWDPF quaternion0 0.151133 -0.948927 -0.021932 0.276071
DOCKED: USER    NEWDPF axisangle0 0.157244 -0.987296 -0.022819 147.948255
DOCKED: USER    NEWDPF quat0 0.157244 -0.987296 -0.022819 147.948255
DOCKED: USER    NEWDPF dihe0 5.72 172.85 179.32 161.78 -73.00 -179.22 -132.18 
DOCKED: USER  keepresnum = 1 
DOCKED: USER  
DOCKED: REMARK  Name = 
DOCKED: REMARK  7 active torsions:
DOCKED: REMARK  status: ('A' for Active; 'I' for Inactive)
DOCKED: REMARK    1  A    between atoms: C_2  and  C_5
DOCKED: REMARK    2  A    between atoms: N_3  and  O_4
DOCKED: REMARK    3  A    between atoms: C_5  and  C_6
DOCKED: REMARK    4  A    between atoms: C_6  and  C_7
DOCKED: REMARK    5  A    between atoms: C_7  and  C_8
DOCKED: REMARK    6  A    between atoms: C_8  and  C_9
DOCKED: REMARK    7  A    between atoms: C_9  and  N_10
DOCKED: REMARK                            x       y       z     vdW  Elec       q    Type
DOCKED: REMARK                         _______ _______ _______ _____ _____    ______ ____
DOCKED: USER                              x       y       z     vdW  Elec       q    Type
DOCKED: USER                           _______ _______ _______ _____ _____    ______ ____
DOCKED: ROOT
DOCKED: ATOM      1  N   UNL     1      38.184  15.437 122.777 -0.32 -0.00    +0.000 N 
DOCKED: ATOM      2  C   UNL     1      38.093  16.565 123.668 -0.22 -0.00    +0.000 C 
DOCKED: ATOM      3  C   UNL     1      39.293  17.386 123.952 -0.19 -0.00    +0.000 A 
DOCKED: ATOM      4  C   UNL     1      39.208  18.503 124.802 -0.19 -0.00    +0.000 A 
DOCKED: ATOM      5  C   UNL     1      40.338  19.279 125.068 -0.17 -0.00    +0.000 A 
DOCKED: ATOM      6  C   UNL     1      41.566  18.953 124.493 -0.16 -0.00    +0.000 A 
DOCKED: ATOM      7  C   UNL     1      41.676  17.844 123.644 -0.27 -0.00    +0.000 A 
DOCKED: ATOM      8  C   UNL     1      42.911  17.516 123.068 -0.28 -0.00    +0.000 A 
DOCKED: ATOM      9  C   UNL     1      43.021  16.411 122.225 -0.35 -0.00    +0.000 A 
DOCKED: ATOM     10  C   UNL     1      41.904  15.622 121.947 -0.38 -0.00    +0.000 A 
DOCKED: ATOM     11  C   UNL     1      40.653  15.931 122.512 -0.34 -0.00    +0.000 A 
DOCKED: ATOM     12  C   UNL     1      40.534  17.049 123.367 -0.26 -0.00    +0.000 A 
DOCKED: ATOM     13  O   UNL     1      36.991  16.855 124.210 -0.31 -0.00    +0.000 OA
DOCKED: ATOM     14  C   UNL     1      39.467  15.095 122.215 -0.40 -0.00    +0.000 C 
DOCKED: ATOM     15  O   UNL     1      39.585  14.083 121.472 -0.85 -0.00    +0.000 OA
DOCKED: ATOM     16  CM  UNL     1      39.339  16.222 123.074 +0.00 -0.00    +0.000 AC
DOCKED: ATOM     17  CM  UNL     1      40.436  18.169 124.221 +0.00 -0.00    +0.000 AC
DOCKED: ATOM     18  CM  UNL     1      41.783  16.728 122.794 +0.00 -0.00    +0.000 AC
DOCKED: ENDROOT
DOCKED: BRANCH   1  16
DOCKED: ATOM     19  C   UNL     1      36.975  14.676 122.422 -0.40 -0.00    +0.000 C 
DOCKED: BRANCH  16  17
DOCKED: ATOM     20  C   UNL     1      36.255  14.143 123.674 -0.53 -0.00    +0.000 C 
DOCKED: BRANCH  17  18
DOCKED: ATOM     21  C   UNL     1      36.227  12.606 123.780 -0.65 -0.00    +0.000 C 
DOCKED: BRANCH  18  19
DOCKED: ATOM     22  C   UNL     1      36.835  11.865 122.571 -0.63 -0.00    +0.000 C 
DOCKED: BRANCH  19  20
DOCKED: ATOM     23  C   UNL     1      35.968  10.722 122.020 -0.55 -0.00    +0.000 C 
DOCKED: BRANCH  20  22
DOCKED: ATOM     24  O   UNL     1      37.067   8.830 121.058 -2.69 -0.00    +0.000 OA
DOCKED: ATOM     25  C   UNL     1      36.662   9.393 122.110 -0.71 -0.00    +0.000 C 
DOCKED: ATOM     26  N   UNL     1      36.836   8.751 123.376 -0.63 -0.00    +0.000 N 
DOCKED: ATOM     27  H   UNL     1      36.512   9.189 124.194 -0.41 -0.00    +0.000 HD
DOCKED: BRANCH  23  25
DOCKED: ATOM     28  O   UNL     1      37.442   7.542 123.456 -2.09 -0.00    +0.000 OA
DOCKED: ATOM     29  H   UNL     1      37.780   7.291 122.582 -0.31 -0.00    +0.000 HD
DOCKED: ENDBRANCH  23  25
DOCKED: ENDBRANCH  20  22
DOCKED: ENDBRANCH  19  20
DOCKED: ENDBRANCH  18  19
DOCKED: ENDBRANCH  17  18
DOCKED: ENDBRANCH  16  17
DOCKED: ENDBRANCH   1  16
DOCKED: TORSDOF 7DOCKED: TER
DOCKED: ENDMDL
________________________________________________________________________________


	BEGINNING GENETIC ALGORITHM DOCKING 79 of 100
Run: 79 Seed: 128587097 565065806 [ Run 79 of 100 GA/GALS ]
Beginning LAMARCKIAN GENETIC ALGORITHM (LGA), with a maximum of 2500000 energy evaluations.

Final-Value: -15.017


	FINAL GENETIC ALGORITHM DOCKED STATE
	_______________________________________________


Detailed state:  trans 37.394 15.202 124.308 quatxyzw 0.266989 -0.006036 -0.448793 -0.852799 center 0.154 0.111 -0.146 ntor 7 62.9307 -177.4699 2.0327 110.0957 180.0000 64.3112 52.0695
State:	 37.394  15.202 124.308   0.511 -0.012 -0.859 -62.965     62.93 -177.47    2.03  110.10  180.00   64.31   52.07

DOCKED: MODEL       79
DOCKED: USER    Run = 79
DOCKED: USER    DPF = ligand_dock.biased.dpf
DOCKED: USER  
DOCKED: USER    Estimated Free Energy of Binding    =  -12.04 kcal/mol  [=(1)+(2)+(3)-(4)]
DOCKED: USER    Estimated Inhibition Constant, Ki   =    1.48 nM (nanomolar)  [Temperature = 298.15 K]
DOCKED: USER    
DOCKED: USER    (1) Final Intermolecular Energy     =  -14.13 kcal/mol
DOCKED: USER        vdW + Hbond + desolv Energy     =  -14.13 kcal/mol
DOCKED: USER        Electrostatic Energy            =   +0.00 kcal/mol
DOCKED: USER    (2) Final Total Internal Energy     =   -0.88 kcal/mol
DOCKED: USER    (3) Torsional Free Energy           =   +2.09 kcal/mol
DOCKED: USER    (4) Unbound System's Energy  [=(2)] =   -0.88 kcal/mol
DOCKED: USER    
DOCKED: USER    
DOCKED: USER    NEWDPF move ligand.dum.pdbqt
DOCKED: USER    NEWDPF about 0.154000 0.111000 -0.146000
DOCKED: USER    NEWDPF tran0 37.394172 15.202317 124.308428
DOCKED: USER    NEWDPF quaternion0 0.266989 -0.006036 -0.448793 -0.852799
DOCKED: USER    NEWDPF axisangle0 0.511237 -0.011559 -0.859362 -62.965264
DOCKED: USER    NEWDPF quat0 0.511237 -0.011559 -0.859362 -62.965264
DOCKED: USER    NEWDPF dihe0 62.93 -177.47 2.03 110.10 180.00 64.31 52.07 
DOCKED: USER  keepresnum = 1 
DOCKED: USER  
DOCKED: REMARK  Name = 
DOCKED: REMARK  7 active torsions:
DOCKED: REMARK  status: ('A' for Active; 'I' for Inactive)
DOCKED: REMARK    1  A    between atoms: C_2  and  C_5
DOCKED: REMARK    2  A    between atoms: N_3  and  O_4
DOCKED: REMARK    3  A    between atoms: C_5  and  C_6
DOCKED: REMARK    4  A    between atoms: C_6  and  C_7
DOCKED: REMARK    5  A    between atoms: C_7  and  C_8
DOCKED: REMARK    6  A    between atoms: C_8  and  C_9
DOCKED: REMARK    7  A    between atoms: C_9  and  N_10
DOCKED: REMARK                            x       y       z     vdW  Elec       q    Type
DOCKED: REMARK                         _______ _______ _______ _____ _____    ______ ____
DOCKED: USER                              x       y       z     vdW  Elec       q    Type
DOCKED: USER                           _______ _______ _______ _____ _____    ______ ____
DOCKED: ROOT
DOCKED: ATOM      1  N   UNL     1      36.767  15.870 123.123 -0.32 -0.00    +0.000 N 
DOCKED: ATOM      2  C   UNL     1      37.320  17.197 123.210 -0.24 -0.00    +0.000 C 
DOCKED: ATOM      3  C   UNL     1      36.714  18.196 124.121 -0.19 -0.00    +0.000 A 
DOCKED: ATOM      4  C   UNL     1      37.262  19.486 124.231 -0.12 -0.00    +0.000 A 
DOCKED: ATOM      5  C   UNL     1      36.694  20.427 125.091 -0.10 -0.00    +0.000 A 
DOCKED: ATOM      6  C   UNL     1      35.572  20.098 125.852 -0.14 -0.00    +0.000 A 
DOCKED: ATOM      7  C   UNL     1      35.008  18.818 125.759 -0.22 -0.00    +0.000 A 
DOCKED: ATOM      8  C   UNL     1      33.879  18.488 126.523 -0.27 -0.00    +0.000 A 
DOCKED: ATOM      9  C   UNL     1      33.316  17.216 126.429 -0.29 -0.00    +0.000 A 
DOCKED: ATOM     10  C   UNL     1      33.869  16.261 125.574 -0.33 -0.00    +0.000 A 
DOCKED: ATOM     11  C   UNL     1      35.001  16.568 124.798 -0.37 -0.00    +0.000 A 
DOCKED: ATOM     12  C   UNL     1      35.578  17.854 124.887 -0.26 -0.00    +0.000 A 
DOCKED: ATOM     13  O   UNL     1      38.321  17.512 122.509 -0.15 -0.00    +0.000 OA
DOCKED: ATOM     14  C   UNL     1      35.589  15.554 123.892 -0.49 -0.00    +0.000 C 
DOCKED: ATOM     15  O   UNL     1      35.054  14.416 123.797 -0.64 -0.00    +0.000 OA
DOCKED: ATOM     16  CM  UNL     1      36.177  16.846 123.981 -0.04 -0.00    +0.000 AC
DOCKED: ATOM     17  CM  UNL     1      36.138  19.146 124.990 -0.05 -0.00    +0.000 AC
DOCKED: ATOM     18  CM  UNL     1      34.441  17.534 125.662 -0.31 -0.00    +0.000 AC
DOCKED: ENDROOT
DOCKED: BRANCH   1  16
DOCKED: ATOM     19  C   UNL     1      37.421  14.850 122.287 -0.39 -0.00    +0.000 C 
DOCKED: BRANCH  16  17
DOCKED: ATOM     20  C   UNL     1      37.682  13.555 123.076 -0.54 -0.00    +0.000 C 
DOCKED: BRANCH  17  18
DOCKED: ATOM     21  C   UNL     1      37.155  12.280 122.390 -0.57 -0.00    +0.000 C 
DOCKED: BRANCH  18  19
DOCKED: ATOM     22  C   UNL     1      35.958  11.613 123.099 -0.68 -0.00    +0.000 C 
DOCKED: BRANCH  19  20
DOCKED: ATOM     23  C   UNL     1      35.378  10.395 122.363 -0.63 -0.00    +0.000 C 
DOCKED: BRANCH  20  22
DOCKED: ATOM     24  O   UNL     1      37.018   9.095 121.208 -2.71 -0.00    +0.000 OA
DOCKED: ATOM     25  C   UNL     1      36.367   9.268 122.273 -0.71 -0.00    +0.000 C 
DOCKED: ATOM     26  N   UNL     1      36.548   8.373 123.373 -0.67 -0.00    +0.000 N 
DOCKED: ATOM     27  H   UNL     1      36.032   8.506 124.200 -0.21 -0.00    +0.000 HD
DOCKED: BRANCH  23  25
DOCKED: ATOM     28  O   UNL     1      37.422   7.342 123.285 -1.96 -0.00    +0.000 OA
DOCKED: ATOM     29  H   UNL     1      38.321   7.689 123.169 -0.51 -0.00    +0.000 HD
DOCKED: ENDBRANCH  23  25
DOCKED: ENDBRANCH  20  22
DOCKED: ENDBRANCH  19  20
DOCKED: ENDBRANCH  18  19
DOCKED: ENDBRANCH  17  18
DOCKED: ENDBRANCH  16  17
DOCKED: ENDBRANCH   1  16
DOCKED: TORSDOF 7DOCKED: TER
DOCKED: ENDMDL
________________________________________________________________________________


	BEGINNING GENETIC ALGORITHM DOCKING 80 of 100
Run: 80 Seed: 1836674245 73692435 [ Run 80 of 100 GA/GALS ]
Beginning LAMARCKIAN GENETIC ALGORITHM (LGA), with a maximum of 2500000 energy evaluations.

Final-Value: -14.740


	FINAL GENETIC ALGORITHM DOCKED STATE
	_______________________________________________


Detailed state:  trans 36.194 15.296 124.742 quatxyzw -0.312459 -0.077476 0.560696 0.762880 center 0.154 0.111 -0.146 ntor 7 8.3410 -180.0000 146.9446 -174.9408 53.2608 28.1543 -7.0977
State:	 36.194  15.296 124.742  -0.483 -0.120  0.867 80.562      8.34 -180.00  146.94 -174.94   53.26   28.15   -7.10

DOCKED: MODEL       80
DOCKED: USER    Run = 80
DOCKED: USER    DPF = ligand_dock.biased.dpf
DOCKED: USER  
DOCKED: USER    Estimated Free Energy of Binding    =  -11.44 kcal/mol  [=(1)+(2)+(3)-(4)]
DOCKED: USER    Estimated Inhibition Constant, Ki   =    4.12 nM (nanomolar)  [Temperature = 298.15 K]
DOCKED: USER    
DOCKED: USER    (1) Final Intermolecular Energy     =  -13.53 kcal/mol
DOCKED: USER        vdW + Hbond + desolv Energy     =  -13.53 kcal/mol
DOCKED: USER        Electrostatic Energy            =   +0.00 kcal/mol
DOCKED: USER    (2) Final Total Internal Energy     =   -1.21 kcal/mol
DOCKED: USER    (3) Torsional Free Energy           =   +2.09 kcal/mol
DOCKED: USER    (4) Unbound System's Energy  [=(2)] =   -1.21 kcal/mol
DOCKED: USER    
DOCKED: USER    
DOCKED: USER    NEWDPF move ligand.dum.pdbqt
DOCKED: USER    NEWDPF about 0.154000 0.111000 -0.146000
DOCKED: USER    NEWDPF tran0 36.194264 15.295566 124.742372
DOCKED: USER    NEWDPF quaternion0 -0.312459 -0.077476 0.560696 0.762880
DOCKED: USER    NEWDPF axisangle0 -0.483279 -0.119832 0.867226 80.562421
DOCKED: USER    NEWDPF quat0 -0.483279 -0.119832 0.867226 80.562421
DOCKED: USER    NEWDPF dihe0 8.34 -180.00 146.94 -174.94 53.26 28.15 -7.10 
DOCKED: USER  keepresnum = 1 
DOCKED: USER  
DOCKED: REMARK  Name = 
DOCKED: REMARK  7 active torsions:
DOCKED: REMARK  status: ('A' for Active; 'I' for Inactive)
DOCKED: REMARK    1  A    between atoms: C_2  and  C_5
DOCKED: REMARK    2  A    between atoms: N_3  and  O_4
DOCKED: REMARK    3  A    between atoms: C_5  and  C_6
DOCKED: REMARK    4  A    between atoms: C_6  and  C_7
DOCKED: REMARK    5  A    between atoms: C_7  and  C_8
DOCKED: REMARK    6  A    between atoms: C_8  and  C_9
DOCKED: REMARK    7  A    between atoms: C_9  and  N_10
DOCKED: REMARK                            x       y       z     vdW  Elec       q    Type
DOCKED: REMARK                         _______ _______ _______ _____ _____    ______ ____
DOCKED: USER                              x       y       z     vdW  Elec       q    Type
DOCKED: USER                           _______ _______ _______ _____ _____    ______ ____
DOCKED: ROOT
DOCKED: ATOM      1  N   UNL     1      35.591  16.320 123.830 -0.38 -0.00    +0.000 N 
DOCKED: ATOM      2  C   UNL     1      36.452  17.453 124.054 -0.27 -0.00    +0.000 C 
DOCKED: ATOM      3  C   UNL     1      36.231  18.333 125.225 -0.19 -0.00    +0.000 A 
DOCKED: ATOM      4  C   UNL     1      37.082  19.426 125.466 -0.13 -0.00    +0.000 A 
DOCKED: ATOM      5  C   UNL     1      36.877  20.255 126.570 -0.08 -0.00    +0.000 A 
DOCKED: ATOM      6  C   UNL     1      35.822  20.008 127.449 -0.09 -0.00    +0.000 A 
DOCKED: ATOM      7  C   UNL     1      34.961  18.924 127.229 -0.15 -0.00    +0.000 A 
DOCKED: ATOM      8  C   UNL     1      33.900  18.676 128.113 -0.15 -0.00    +0.000 A 
DOCKED: ATOM      9  C   UNL     1      33.041  17.600 127.893 -0.29 -0.00    +0.000 A 
DOCKED: ATOM     10  C   UNL     1      33.229  16.760 126.795 -0.33 -0.00    +0.000 A 
DOCKED: ATOM     11  C   UNL     1      34.286  16.987 125.895 -0.32 -0.00    +0.000 A 
DOCKED: ATOM     12  C   UNL     1      35.161  18.076 126.110 -0.19 -0.00    +0.000 A 
DOCKED: ATOM     13  O   UNL     1      37.395  17.698 123.252 -0.20 -0.00    +0.000 OA
DOCKED: ATOM     14  C   UNL     1      34.486  16.095 124.730 -0.55 -0.00    +0.000 C 
DOCKED: ATOM     15  O   UNL     1      33.687  15.140 124.528 -0.63 -0.00    +0.000 OA
DOCKED: ATOM     16  CM  UNL     1      35.373  17.186 124.943 -0.32 -0.00    +0.000 AC
DOCKED: ATOM     17  CM  UNL     1      36.022  19.170 126.342 -0.02 -0.00    +0.000 AC
DOCKED: ATOM     18  CM  UNL     1      34.096  17.837 127.006 -0.02 -0.00    +0.000 AC
DOCKED: ENDROOT
DOCKED: BRANCH   1  16
DOCKED: ATOM     19  C   UNL     1      35.863  15.392 122.720 -0.27 -0.00    +0.000 C 
DOCKED: BRANCH  16  17
DOCKED: ATOM     20  C   UNL     1      37.145  14.577 122.965 -0.46 -0.00    +0.000 C 
DOCKED: BRANCH  17  18
DOCKED: ATOM     21  C   UNL     1      36.909  13.227 123.669 -0.51 -0.00    +0.000 C 
DOCKED: BRANCH  18  19
DOCKED: ATOM     22  C   UNL     1      37.413  11.996 122.887 -0.50 -0.00    +0.000 C 
DOCKED: BRANCH  19  20
DOCKED: ATOM     23  C   UNL     1      36.300  11.112 122.301 -0.66 -0.00    +0.000 C 
DOCKED: BRANCH  20  22
DOCKED: ATOM     24  O   UNL     1      37.064   9.215 121.064 -2.74 -0.00    +0.000 OA
DOCKED: ATOM     25  C   UNL     1      36.722   9.676 122.187 -0.69 -0.00    +0.000 C 
DOCKED: ATOM     26  N   UNL     1      36.706   8.822 123.334 -0.62 -0.00    +0.000 N 
DOCKED: ATOM     27  H   UNL     1      36.431   9.183 124.206 -0.38 -0.00    +0.000 HD
DOCKED: BRANCH  23  25
DOCKED: ATOM     28  O   UNL     1      37.066   7.521 123.228 -2.23 -0.00    +0.000 OA
DOCKED: ATOM     29  H   UNL     1      37.431   7.357 122.344 -0.15 -0.00    +0.000 HD
DOCKED: ENDBRANCH  23  25
DOCKED: ENDBRANCH  20  22
DOCKED: ENDBRANCH  19  20
DOCKED: ENDBRANCH  18  19
DOCKED: ENDBRANCH  17  18
DOCKED: ENDBRANCH  16  17
DOCKED: ENDBRANCH   1  16
DOCKED: TORSDOF 7DOCKED: TER
DOCKED: ENDMDL
________________________________________________________________________________


	BEGINNING GENETIC ALGORITHM DOCKING 81 of 100
Run: 81 Seed: 2136060382 1980490455 [ Run 81 of 100 GA/GALS ]
Beginning LAMARCKIAN GENETIC ALGORITHM (LGA), with a maximum of 2500000 energy evaluations.

Final-Value: -13.570


	FINAL GENETIC ALGORITHM DOCKED STATE
	_______________________________________________


Detailed state:  trans 38.088 16.282 122.720 quatxyzw 0.062914 -0.460268 -0.848675 -0.252876 center 0.154 0.111 -0.146 ntor 7 109.0527 -175.4813 35.6467 57.9032 110.2977 -177.9143 -18.1643
State:	 38.088  16.282 122.720   0.065 -0.476 -0.877 -150.704    109.05 -175.48   35.65   57.90  110.30 -177.91  -18.16

DOCKED: MODEL       81
DOCKED: USER    Run = 81
DOCKED: USER    DPF = ligand_dock.biased.dpf
DOCKED: USER  
DOCKED: USER    Estimated Free Energy of Binding    =  -10.79 kcal/mol  [=(1)+(2)+(3)-(4)]
DOCKED: USER    Estimated Inhibition Constant, Ki   =   12.36 nM (nanomolar)  [Temperature = 298.15 K]
DOCKED: USER    
DOCKED: USER    (1) Final Intermolecular Energy     =  -12.88 kcal/mol
DOCKED: USER        vdW + Hbond + desolv Energy     =  -12.88 kcal/mol
DOCKED: USER        Electrostatic Energy            =   +0.00 kcal/mol
DOCKED: USER    (2) Final Total Internal Energy     =   -0.69 kcal/mol
DOCKED: USER    (3) Torsional Free Energy           =   +2.09 kcal/mol
DOCKED: USER    (4) Unbound System's Energy  [=(2)] =   -0.69 kcal/mol
DOCKED: USER    
DOCKED: USER    
DOCKED: USER    NEWDPF move ligand.dum.pdbqt
DOCKED: USER    NEWDPF about 0.154000 0.111000 -0.146000
DOCKED: USER    NEWDPF tran0 38.087917 16.282020 122.720480
DOCKED: USER    NEWDPF quaternion0 0.062914 -0.460268 -0.848675 -0.252876
DOCKED: USER    NEWDPF axisangle0 0.065028 -0.475730 -0.877185 -150.704418
DOCKED: USER    NEWDPF quat0 0.065028 -0.475730 -0.877185 -150.704418
DOCKED: USER    NEWDPF dihe0 109.05 -175.48 35.65 57.90 110.30 -177.91 -18.16 
DOCKED: USER  keepresnum = 1 
DOCKED: USER  
DOCKED: REMARK  Name = 
DOCKED: REMARK  7 active torsions:
DOCKED: REMARK  status: ('A' for Active; 'I' for Inactive)
DOCKED: REMARK    1  A    between atoms: C_2  and  C_5
DOCKED: REMARK    2  A    between atoms: N_3  and  O_4
DOCKED: REMARK    3  A    between atoms: C_5  and  C_6
DOCKED: REMARK    4  A    between atoms: C_6  and  C_7
DOCKED: REMARK    5  A    between atoms: C_7  and  C_8
DOCKED: REMARK    6  A    between atoms: C_8  and  C_9
DOCKED: REMARK    7  A    between atoms: C_9  and  N_10
DOCKED: REMARK                            x       y       z     vdW  Elec       q    Type
DOCKED: REMARK                         _______ _______ _______ _____ _____    ______ ____
DOCKED: USER                              x       y       z     vdW  Elec       q    Type
DOCKED: USER                           _______ _______ _______ _____ _____    ______ ____
DOCKED: ROOT
DOCKED: ATOM      1  N   UNL     1      38.746  16.036 121.397 -0.18 -0.00    +0.000 N 
DOCKED: ATOM      2  C   UNL     1      39.980  15.409 121.798 -0.35 -0.00    +0.000 C 
DOCKED: ATOM      3  C   UNL     1      41.125  16.238 122.239 -0.31 -0.00    +0.000 A 
DOCKED: ATOM      4  C   UNL     1      42.325  15.634 122.656 -0.45 -0.00    +0.000 A 
DOCKED: ATOM      5  C   UNL     1      43.404  16.414 123.074 -0.28 -0.00    +0.000 A 
DOCKED: ATOM      6  C   UNL     1      43.305  17.806 123.082 -0.17 -0.00    +0.000 A 
DOCKED: ATOM      7  C   UNL     1      42.119  18.431 122.671 -0.16 -0.00    +0.000 A 
DOCKED: ATOM      8  C   UNL     1      42.021  19.829 122.678 -0.08 -0.00    +0.000 A 
DOCKED: ATOM      9  C   UNL     1      40.843  20.451 122.266 -0.02 -0.00    +0.000 A 
DOCKED: ATOM     10  C   UNL     1      39.753  19.689 121.844 -0.02 -0.00    +0.000 A 
DOCKED: ATOM     11  C   UNL     1      39.827  18.285 121.828 -0.07 -0.00    +0.000 A 
DOCKED: ATOM     12  C   UNL     1      41.017  17.647 122.244 -0.15 -0.00    +0.000 A 
DOCKED: ATOM     13  O   UNL     1      40.087  14.152 121.773 -0.98 -0.00    +0.000 OA
DOCKED: ATOM     14  C   UNL     1      38.670  17.476 121.381 -0.11 -0.00    +0.000 C 
DOCKED: ATOM     15  O   UNL     1      37.619  18.051 120.987 -0.09 -0.00    +0.000 OA
DOCKED: ATOM     16  CM  UNL     1      39.863  16.827 121.803 +0.00 -0.00    +0.000 AC
DOCKED: ATOM     17  CM  UNL     1      42.216  17.028 122.661 +0.00 -0.00    +0.000 AC
DOCKED: ATOM     18  CM  UNL     1      40.930  19.056 122.255 +0.00 -0.00    +0.000 AC
DOCKED: ENDROOT
DOCKED: BRANCH   1  16
DOCKED: ATOM     19  C   UNL     1      37.578  15.212 121.046 -0.27 -0.00    +0.000 C 
DOCKED: BRANCH  16  17
DOCKED: ATOM     20  C   UNL     1      37.171  14.285 122.204 -0.43 -0.00    +0.000 C 
DOCKED: BRANCH  17  18
DOCKED: ATOM     21  C   UNL     1      37.354  12.784 121.907 -0.52 -0.00    +0.000 C 
DOCKED: BRANCH  18  19
DOCKED: ATOM     22  C   UNL     1      36.965  11.845 123.067 -0.67 -0.00    +0.000 C 
DOCKED: BRANCH  19  20
DOCKED: ATOM     23  C   UNL     1      35.913  10.784 122.704 -0.68 -0.00    +0.000 C 
DOCKED: BRANCH  20  22
DOCKED: ATOM     24  O   UNL     1      36.736   9.145 121.171 -2.64 -0.00    +0.000 OA
DOCKED: ATOM     25  C   UNL     1      36.540   9.459 122.376 -0.72 -0.00    +0.000 C 
DOCKED: ATOM     26  N   UNL     1      36.882   8.541 123.418 -0.66 -0.00    +0.000 N 
DOCKED: ATOM     27  H   UNL     1      36.720   8.786 124.356 -0.41 -0.00    +0.000 HD
DOCKED: BRANCH  23  25
DOCKED: ATOM     28  O   UNL     1      37.426   7.337 123.122 -1.94 -0.00    +0.000 OA
DOCKED: ATOM     29  H   UNL     1      38.359   7.329 123.388 -0.53 -0.00    +0.000 HD
DOCKED: ENDBRANCH  23  25
DOCKED: ENDBRANCH  20  22
DOCKED: ENDBRANCH  19  20
DOCKED: ENDBRANCH  18  19
DOCKED: ENDBRANCH  17  18
DOCKED: ENDBRANCH  16  17
DOCKED: ENDBRANCH   1  16
DOCKED: TORSDOF 7DOCKED: TER
DOCKED: ENDMDL
________________________________________________________________________________


	BEGINNING GENETIC ALGORITHM DOCKING 82 of 100
Run: 82 Seed: 562274133 803852576 [ Run 82 of 100 GA/GALS ]
Beginning LAMARCKIAN GENETIC ALGORITHM (LGA), with a maximum of 2500000 energy evaluations.

Final-Value: -14.926


	FINAL GENETIC ALGORITHM DOCKED STATE
	_______________________________________________


Detailed state:  trans 38.640 14.384 123.913 quatxyzw -0.014837 -0.105410 -0.858770 -0.501181 center 0.154 0.111 -0.146 ntor 7 15.8219 68.9608 67.7958 1.7403 -138.9638 173.3306 81.7364
State:	 38.640  14.384 123.913  -0.017 -0.122 -0.992 -119.844     15.82   68.96   67.80    1.74 -138.96  173.33   81.74

DOCKED: MODEL       82
DOCKED: USER    Run = 82
DOCKED: USER    DPF = ligand_dock.biased.dpf
DOCKED: USER  
DOCKED: USER    Estimated Free Energy of Binding    =  -12.19 kcal/mol  [=(1)+(2)+(3)-(4)]
DOCKED: USER    Estimated Inhibition Constant, Ki   =    1.16 nM (nanomolar)  [Temperature = 298.15 K]
DOCKED: USER    
DOCKED: USER    (1) Final Intermolecular Energy     =  -14.28 kcal/mol
DOCKED: USER        vdW + Hbond + desolv Energy     =  -14.28 kcal/mol
DOCKED: USER        Electrostatic Energy            =   +0.00 kcal/mol
DOCKED: USER    (2) Final Total Internal Energy     =   -0.65 kcal/mol
DOCKED: USER    (3) Torsional Free Energy           =   +2.09 kcal/mol
DOCKED: USER    (4) Unbound System's Energy  [=(2)] =   -0.65 kcal/mol
DOCKED: USER    
DOCKED: USER    
DOCKED: USER    NEWDPF move ligand.dum.pdbqt
DOCKED: USER    NEWDPF about 0.154000 0.111000 -0.146000
DOCKED: USER    NEWDPF tran0 38.640364 14.383797 123.912560
DOCKED: USER    NEWDPF quaternion0 -0.014837 -0.105410 -0.858770 -0.501181
DOCKED: USER    NEWDPF axisangle0 -0.017145 -0.121813 -0.992405 -119.843672
DOCKED: USER    NEWDPF quat0 -0.017145 -0.121813 -0.992405 -119.843672
DOCKED: USER    NEWDPF dihe0 15.82 68.96 67.80 1.74 -138.96 173.33 81.74 
DOCKED: USER  keepresnum = 1 
DOCKED: USER  
DOCKED: REMARK  Name = 
DOCKED: REMARK  7 active torsions:
DOCKED: REMARK  status: ('A' for Active; 'I' for Inactive)
DOCKED: REMARK    1  A    between atoms: C_2  and  C_5
DOCKED: REMARK    2  A    between atoms: N_3  and  O_4
DOCKED: REMARK    3  A    between atoms: C_5  and  C_6
DOCKED: REMARK    4  A    between atoms: C_6  and  C_7
DOCKED: REMARK    5  A    between atoms: C_7  and  C_8
DOCKED: REMARK    6  A    between atoms: C_8  and  C_9
DOCKED: REMARK    7  A    between atoms: C_9  and  N_10
DOCKED: REMARK                            x       y       z     vdW  Elec       q    Type
DOCKED: REMARK                         _______ _______ _______ _____ _____    ______ ____
DOCKED: USER                              x       y       z     vdW  Elec       q    Type
DOCKED: USER                           _______ _______ _______ _____ _____    ______ ____
DOCKED: ROOT
DOCKED: ATOM      1  N   UNL     1      38.417  15.028 122.578 -0.35 -0.00    +0.000 N 
DOCKED: ATOM      2  C   UNL     1      39.743  15.001 122.016 -0.40 -0.00    +0.000 C 
DOCKED: ATOM      3  C   UNL     1      40.725  16.047 122.381 -0.32 -0.00    +0.000 A 
DOCKED: ATOM      4  C   UNL     1      42.030  16.015 121.857 -0.33 -0.00    +0.000 A 
DOCKED: ATOM      5  C   UNL     1      42.957  16.999 122.202 -0.29 -0.00    +0.000 A 
DOCKED: ATOM      6  C   UNL     1      42.600  18.029 123.073 -0.23 -0.00    +0.000 A 
DOCKED: ATOM      7  C   UNL     1      41.305  18.082 123.608 -0.24 -0.00    +0.000 A 
DOCKED: ATOM      8  C   UNL     1      40.945  19.118 124.482 -0.18 -0.00    +0.000 A 
DOCKED: ATOM      9  C   UNL     1      39.657  19.173 125.012 -0.15 -0.00    +0.000 A 
DOCKED: ATOM     10  C   UNL     1      38.715  18.199 124.678 -0.18 -0.00    +0.000 A 
DOCKED: ATOM     11  C   UNL     1      39.051  17.150 123.804 -0.20 -0.00    +0.000 A 
DOCKED: ATOM     12  C   UNL     1      40.355  17.087 123.263 -0.25 -0.00    +0.000 A 
DOCKED: ATOM     13  O   UNL     1      40.069  14.086 121.210 -0.76 -0.00    +0.000 OA
DOCKED: ATOM     14  C   UNL     1      38.052  16.115 123.452 -0.28 -0.00    +0.000 C 
DOCKED: ATOM     15  O   UNL     1      36.882  16.191 123.918 -0.37 -0.00    +0.000 OA
DOCKED: ATOM     16  CM  UNL     1      39.364  16.043 122.907 +0.00 -0.00    +0.000 AC
DOCKED: ATOM     17  CM  UNL     1      41.662  17.043 122.731 +0.00 -0.00    +0.000 AC
DOCKED: ATOM     18  CM  UNL     1      40.005  18.135 124.141 +0.00 -0.00    +0.000 AC
DOCKED: ENDROOT
DOCKED: BRANCH   1  16
DOCKED: ATOM     19  C   UNL     1      37.468  13.939 122.288 -0.47 -0.00    +0.000 C 
DOCKED: BRANCH  16  17
DOCKED: ATOM     20  C   UNL     1      36.370  13.845 123.361 -0.56 -0.00    +0.000 C 
DOCKED: BRANCH  17  18
DOCKED: ATOM     21  C   UNL     1      36.276  12.470 124.049 -0.56 -0.00    +0.000 C 
DOCKED: BRANCH  18  19
DOCKED: ATOM     22  C   UNL     1      35.740  11.335 123.153 -0.65 -0.00    +0.000 C 
DOCKED: BRANCH  19  20
DOCKED: ATOM     23  C   UNL     1      36.678  10.931 122.004 -0.63 -0.00    +0.000 C 
DOCKED: BRANCH  20  22
DOCKED: ATOM     24  O   UNL     1      37.072   8.881 120.841 -2.72 -0.00    +0.000 OA
DOCKED: ATOM     25  C   UNL     1      36.901   9.447 121.954 -0.66 -0.00    +0.000 C 
DOCKED: ATOM     26  N   UNL     1      36.887   8.671 123.155 -0.69 -0.00    +0.000 N 
DOCKED: ATOM     27  H   UNL     1      36.746   9.115 124.021 -0.46 -0.00    +0.000 HD
DOCKED: BRANCH  23  25
DOCKED: ATOM     28  O   UNL     1      37.066   7.329 123.109 -2.15 -0.00    +0.000 OA
DOCKED: ATOM     29  H   UNL     1      37.434   7.081 122.246 -0.21 -0.00    +0.000 HD
DOCKED: ENDBRANCH  23  25
DOCKED: ENDBRANCH  20  22
DOCKED: ENDBRANCH  19  20
DOCKED: ENDBRANCH  18  19
DOCKED: ENDBRANCH  17  18
DOCKED: ENDBRANCH  16  17
DOCKED: ENDBRANCH   1  16
DOCKED: TORSDOF 7DOCKED: TER
DOCKED: ENDMDL
________________________________________________________________________________


	BEGINNING GENETIC ALGORITHM DOCKING 83 of 100
Run: 83 Seed: 700622375 1769883413 [ Run 83 of 100 GA/GALS ]
Beginning LAMARCKIAN GENETIC ALGORITHM (LGA), with a maximum of 2500000 energy evaluations.

Final-Value: -14.137


	FINAL GENETIC ALGORITHM DOCKED STATE
	_______________________________________________


Detailed state:  trans 36.450 14.847 122.358 quatxyzw -0.698131 0.565962 -0.404614 -0.169077 center 0.154 0.111 -0.146 ntor 7 0.9963 -175.5302 179.0451 -111.0811 141.7840 23.2723 8.3794
State:	 36.450  14.847 122.358  -0.708  0.574 -0.411 -160.532      1.00 -175.53  179.05 -111.08  141.78   23.27    8.38

DOCKED: MODEL       83
DOCKED: USER    Run = 83
DOCKED: USER    DPF = ligand_dock.biased.dpf
DOCKED: USER  
DOCKED: USER    Estimated Free Energy of Binding    =  -10.67 kcal/mol  [=(1)+(2)+(3)-(4)]
DOCKED: USER    Estimated Inhibition Constant, Ki   =   15.03 nM (nanomolar)  [Temperature = 298.15 K]
DOCKED: USER    
DOCKED: USER    (1) Final Intermolecular Energy     =  -12.76 kcal/mol
DOCKED: USER        vdW + Hbond + desolv Energy     =  -12.76 kcal/mol
DOCKED: USER        Electrostatic Energy            =   +0.00 kcal/mol
DOCKED: USER    (2) Final Total Internal Energy     =   -1.38 kcal/mol
DOCKED: USER    (3) Torsional Free Energy           =   +2.09 kcal/mol
DOCKED: USER    (4) Unbound System's Energy  [=(2)] =   -1.38 kcal/mol
DOCKED: USER    
DOCKED: USER    
DOCKED: USER    NEWDPF move ligand.dum.pdbqt
DOCKED: USER    NEWDPF about 0.154000 0.111000 -0.146000
DOCKED: USER    NEWDPF tran0 36.450388 14.847051 122.358456
DOCKED: USER    NEWDPF quaternion0 -0.698131 0.565962 -0.404614 -0.169077
DOCKED: USER    NEWDPF axisangle0 -0.708329 0.574230 -0.410524 -160.531657
DOCKED: USER    NEWDPF quat0 -0.708329 0.574230 -0.410524 -160.531657
DOCKED: USER    NEWDPF dihe0 1.00 -175.53 179.05 -111.08 141.78 23.27 8.38 
DOCKED: USER  keepresnum = 1 
DOCKED: USER  
DOCKED: REMARK  Name = 
DOCKED: REMARK  7 active torsions:
DOCKED: REMARK  status: ('A' for Active; 'I' for Inactive)
DOCKED: REMARK    1  A    between atoms: C_2  and  C_5
DOCKED: REMARK    2  A    between atoms: N_3  and  O_4
DOCKED: REMARK    3  A    between atoms: C_5  and  C_6
DOCKED: REMARK    4  A    between atoms: C_6  and  C_7
DOCKED: REMARK    5  A    between atoms: C_7  and  C_8
DOCKED: REMARK    6  A    between atoms: C_8  and  C_9
DOCKED: REMARK    7  A    between atoms: C_9  and  N_10
DOCKED: REMARK                            x       y       z     vdW  Elec       q    Type
DOCKED: REMARK                         _______ _______ _______ _____ _____    ______ ____
DOCKED: USER                              x       y       z     vdW  Elec       q    Type
DOCKED: USER                           _______ _______ _______ _____ _____    ______ ____
DOCKED: ROOT
DOCKED: ATOM      1  N   UNL     1      36.024  15.893 123.343 -0.37 -0.00    +0.000 N 
DOCKED: ATOM      2  C   UNL     1      34.806  16.376 122.745 -0.34 -0.00    +0.000 C 
DOCKED: ATOM      3  C   UNL     1      34.859  17.385 121.662 -0.27 -0.00    +0.000 A 
DOCKED: ATOM      4  C   UNL     1      33.677  17.844 121.055 -0.26 -0.00    +0.000 A 
DOCKED: ATOM      5  C   UNL     1      33.726  18.793 120.033 -0.28 -0.00    +0.000 A 
DOCKED: ATOM      6  C   UNL     1      34.952  19.299 119.601 -0.18 -0.00    +0.000 A 
DOCKED: ATOM      7  C   UNL     1      36.144  18.857 120.190 -0.14 -0.00    +0.000 A 
DOCKED: ATOM      8  C   UNL     1      37.377  19.366 119.756 -0.06 -0.00    +0.000 A 
DOCKED: ATOM      9  C   UNL     1      38.563  18.929 120.345 -0.03 -0.00    +0.000 A 
DOCKED: ATOM     10  C   UNL     1      38.535  17.981 121.369 -0.07 -0.00    +0.000 A 
DOCKED: ATOM     11  C   UNL     1      37.311  17.455 121.821 -0.13 -0.00    +0.000 A 
DOCKED: ATOM     12  C   UNL     1      36.105  17.893 121.231 -0.18 -0.00    +0.000 A 
DOCKED: ATOM     13  O   UNL     1      33.691  15.941 123.145 -0.46 -0.00    +0.000 OA
DOCKED: ATOM     14  C   UNL     1      37.282  16.448 122.907 -0.28 -0.00    +0.000 C 
DOCKED: ATOM     15  O   UNL     1      38.360  16.080 123.448 -0.34 -0.00    +0.000 OA
DOCKED: ATOM     16  CM  UNL     1      36.064  16.881 122.313 +0.00 -0.00    +0.000 AC
DOCKED: ATOM     17  CM  UNL     1      34.911  18.345 120.628 +0.00 -0.00    +0.000 AC
DOCKED: ATOM     18  CM  UNL     1      37.339  18.414 120.785 +0.00 -0.00    +0.000 AC
DOCKED: ENDROOT
DOCKED: BRANCH   1  16
DOCKED: ATOM     19  C   UNL     1      35.978  14.825 124.355 -0.31 -0.00    +0.000 C 
DOCKED: BRANCH  16  17
DOCKED: ATOM     20  C   UNL     1      35.935  13.432 123.705 -0.59 -0.00    +0.000 C 
DOCKED: BRANCH  17  18
DOCKED: ATOM     21  C   UNL     1      37.321  12.841 123.385 -0.59 -0.00    +0.000 C 
DOCKED: BRANCH  18  19
DOCKED: ATOM     22  C   UNL     1      37.357  11.909 122.156 -0.46 -0.00    +0.000 C 
DOCKED: BRANCH  19  20
DOCKED: ATOM     23  C   UNL     1      36.207  10.891 122.092 -0.61 -0.00    +0.000 C 
DOCKED: BRANCH  20  22
DOCKED: ATOM     24  O   UNL     1      36.835   8.842 121.036 -2.65 -0.00    +0.000 OA
DOCKED: ATOM     25  C   UNL     1      36.705   9.475 122.117 -0.70 -0.00    +0.000 C 
DOCKED: ATOM     26  N   UNL     1      37.000   8.833 123.360 -0.63 -0.00    +0.000 N 
DOCKED: ATOM     27  H   UNL     1      36.890   9.327 124.203 -0.53 -0.00    +0.000 HD
DOCKED: BRANCH  23  25
DOCKED: ATOM     28  O   UNL     1      37.428   7.548 123.386 -2.09 -0.00    +0.000 OA
DOCKED: ATOM     29  H   UNL     1      37.498   7.211 122.478 -0.21 -0.00    +0.000 HD
DOCKED: ENDBRANCH  23  25
DOCKED: ENDBRANCH  20  22
DOCKED: ENDBRANCH  19  20
DOCKED: ENDBRANCH  18  19
DOCKED: ENDBRANCH  17  18
DOCKED: ENDBRANCH  16  17
DOCKED: ENDBRANCH   1  16
DOCKED: TORSDOF 7DOCKED: TER
DOCKED: ENDMDL
________________________________________________________________________________


	BEGINNING GENETIC ALGORITHM DOCKING 84 of 100
Run: 84 Seed: 1842983753 1873075698 [ Run 84 of 100 GA/GALS ]
Beginning LAMARCKIAN GENETIC ALGORITHM (LGA), with a maximum of 2500000 energy evaluations.

Final-Value: -13.456


	FINAL GENETIC ALGORITHM DOCKED STATE
	_______________________________________________


Detailed state:  trans 38.618 14.655 121.049 quatxyzw -0.223006 -0.081719 0.893151 0.381931 center 0.154 0.111 -0.146 ntor 7 -174.5335 -101.4336 135.1494 167.1178 150.0189 -94.9378 43.7025
State:	 38.618  14.655 121.049  -0.241 -0.088  0.966 135.093   -174.53 -101.43  135.15  167.12  150.02  -94.94   43.70

DOCKED: MODEL       84
DOCKED: USER    Run = 84
DOCKED: USER    DPF = ligand_dock.biased.dpf
DOCKED: USER  
DOCKED: USER    Estimated Free Energy of Binding    =  -10.56 kcal/mol  [=(1)+(2)+(3)-(4)]
DOCKED: USER    Estimated Inhibition Constant, Ki   =   18.26 nM (nanomolar)  [Temperature = 298.15 K]
DOCKED: USER    
DOCKED: USER    (1) Final Intermolecular Energy     =  -12.65 kcal/mol
DOCKED: USER        vdW + Hbond + desolv Energy     =  -12.65 kcal/mol
DOCKED: USER        Electrostatic Energy            =   +0.00 kcal/mol
DOCKED: USER    (2) Final Total Internal Energy     =   -0.81 kcal/mol
DOCKED: USER    (3) Torsional Free Energy           =   +2.09 kcal/mol
DOCKED: USER    (4) Unbound System's Energy  [=(2)] =   -0.81 kcal/mol
DOCKED: USER    
DOCKED: USER    
DOCKED: USER    NEWDPF move ligand.dum.pdbqt
DOCKED: USER    NEWDPF about 0.154000 0.111000 -0.146000
DOCKED: USER    NEWDPF tran0 38.618494 14.654545 121.048554
DOCKED: USER    NEWDPF quaternion0 -0.223006 -0.081719 0.893151 0.381931
DOCKED: USER    NEWDPF axisangle0 -0.241298 -0.088422 0.966414 135.093357
DOCKED: USER    NEWDPF quat0 -0.241298 -0.088422 0.966414 135.093357
DOCKED: USER    NEWDPF dihe0 -174.53 -101.43 135.15 167.12 150.02 -94.94 43.70 
DOCKED: USER  keepresnum = 1 
DOCKED: USER  
DOCKED: REMARK  Name = 
DOCKED: REMARK  7 active torsions:
DOCKED: REMARK  status: ('A' for Active; 'I' for Inactive)
DOCKED: REMARK    1  A    between atoms: C_2  and  C_5
DOCKED: REMARK    2  A    between atoms: N_3  and  O_4
DOCKED: REMARK    3  A    between atoms: C_5  and  C_6
DOCKED: REMARK    4  A    between atoms: C_6  and  C_7
DOCKED: REMARK    5  A    between atoms: C_7  and  C_8
DOCKED: REMARK    6  A    between atoms: C_8  and  C_9
DOCKED: REMARK    7  A    between atoms: C_9  and  N_10
DOCKED: REMARK                            x       y       z     vdW  Elec       q    Type
DOCKED: REMARK                         _______ _______ _______ _____ _____    ______ ____
DOCKED: USER                              x       y       z     vdW  Elec       q    Type
DOCKED: USER                           _______ _______ _______ _____ _____    ______ ____
DOCKED: ROOT
DOCKED: ATOM      1  N   UNL     1      38.865  15.920 120.286 -0.16 -0.00    +0.000 N 
DOCKED: ATOM      2  C   UNL     1      40.285  15.848 120.052 -0.17 -0.00    +0.000 C 
DOCKED: ATOM      3  C   UNL     1      41.233  16.273 121.107 -0.20 -0.00    +0.000 A 
DOCKED: ATOM      4  C   UNL     1      42.621  16.182 120.898 -0.23 -0.00    +0.000 A 
DOCKED: ATOM      5  C   UNL     1      43.516  16.580 121.893 -0.30 -0.00    +0.000 A 
DOCKED: ATOM      6  C   UNL     1      43.042  17.074 123.108 -0.34 -0.00    +0.000 A 
DOCKED: ATOM      7  C   UNL     1      41.663  17.175 123.340 -0.32 -0.00    +0.000 A 
DOCKED: ATOM      8  C   UNL     1      41.188  17.673 124.562 -0.29 -0.00    +0.000 A 
DOCKED: ATOM      9  C   UNL     1      39.817  17.775 124.791 -0.18 -0.00    +0.000 A 
DOCKED: ATOM     10  C   UNL     1      38.906  17.383 123.810 -0.21 -0.00    +0.000 A 
DOCKED: ATOM     11  C   UNL     1      39.358  16.880 122.576 -0.20 -0.00    +0.000 A 
DOCKED: ATOM     12  C   UNL     1      40.746  16.773 122.335 -0.23 -0.00    +0.000 A 
DOCKED: ATOM     13  O   UNL     1      40.723  15.423 118.947 -0.07 -0.00    +0.000 OA
DOCKED: ATOM     14  C   UNL     1      38.391  16.462 121.535 -0.18 -0.00    +0.000 C 
DOCKED: ATOM     15  O   UNL     1      37.153  16.584 121.745 -0.20 -0.00    +0.000 OA
DOCKED: ATOM     16  CM  UNL     1      39.787  16.348 121.288 +0.00 -0.00    +0.000 AC
DOCKED: ATOM     17  CM  UNL     1      42.137  16.676 122.114 +0.00 -0.00    +0.000 AC
DOCKED: ATOM     18  CM  UNL     1      40.279  17.277 123.569 +0.00 -0.00    +0.000 AC
DOCKED: ENDROOT
DOCKED: BRANCH   1  16
DOCKED: ATOM     19  C   UNL     1      37.923  15.414 119.274 -0.21 -0.00    +0.000 C 
DOCKED: BRANCH  16  17
DOCKED: ATOM     20  C   UNL     1      37.048  14.279 119.834 -0.31 -0.00    +0.000 C 
DOCKED: BRANCH  17  18
DOCKED: ATOM     21  C   UNL     1      37.742  13.420 120.909 -0.45 -0.00    +0.000 C 
DOCKED: BRANCH  18  19
DOCKED: ATOM     22  C   UNL     1      37.436  11.910 120.825 -0.53 -0.00    +0.000 C 
DOCKED: BRANCH  19  20
DOCKED: ATOM     23  C   UNL     1      36.920  11.289 122.133 -0.59 -0.00    +0.000 C 
DOCKED: BRANCH  20  22
DOCKED: ATOM     24  O   UNL     1      37.069   9.175 121.030 -2.73 -0.00    +0.000 OA
DOCKED: ATOM     25  C   UNL     1      37.030   9.792 122.128 -0.59 -0.00    +0.000 C 
DOCKED: ATOM     26  N   UNL     1      37.057   9.063 123.357 -0.60 -0.00    +0.000 N 
DOCKED: ATOM     27  H   UNL     1      37.018   9.547 124.213 -0.57 -0.00    +0.000 HD
DOCKED: BRANCH  23  25
DOCKED: ATOM     28  O   UNL     1      37.134   7.710 123.354 -2.28 -0.00    +0.000 OA
DOCKED: ATOM     29  H   UNL     1      37.054   7.379 124.263 -0.52 -0.00    +0.000 HD
DOCKED: ENDBRANCH  23  25
DOCKED: ENDBRANCH  20  22
DOCKED: ENDBRANCH  19  20
DOCKED: ENDBRANCH  18  19
DOCKED: ENDBRANCH  17  18
DOCKED: ENDBRANCH  16  17
DOCKED: ENDBRANCH   1  16
DOCKED: TORSDOF 7DOCKED: TER
DOCKED: ENDMDL
________________________________________________________________________________


	BEGINNING GENETIC ALGORITHM DOCKING 85 of 100
Run: 85 Seed: 919106519 785955280 [ Run 85 of 100 GA/GALS ]
Beginning LAMARCKIAN GENETIC ALGORITHM (LGA), with a maximum of 2500000 energy evaluations.

Final-Value: -15.105


	FINAL GENETIC ALGORITHM DOCKED STATE
	_______________________________________________


Detailed state:  trans 37.341 15.278 123.436 quatxyzw -0.197377 -0.120633 0.381274 0.895053 center 0.154 0.111 -0.146 ntor 7 -10.6747 -122.9529 -137.8601 135.7963 -44.9494 36.5441 31.0926
State:	 37.341  15.278 123.436  -0.443 -0.271  0.855 52.969    -10.67 -122.95 -137.86  135.80  -44.95   36.54   31.09

DOCKED: MODEL       85
DOCKED: USER    Run = 85
DOCKED: USER    DPF = ligand_dock.biased.dpf
DOCKED: USER  
DOCKED: USER    Estimated Free Energy of Binding    =  -11.60 kcal/mol  [=(1)+(2)+(3)-(4)]
DOCKED: USER    Estimated Inhibition Constant, Ki   =    3.15 nM (nanomolar)  [Temperature = 298.15 K]
DOCKED: USER    
DOCKED: USER    (1) Final Intermolecular Energy     =  -13.69 kcal/mol
DOCKED: USER        vdW + Hbond + desolv Energy     =  -13.69 kcal/mol
DOCKED: USER        Electrostatic Energy            =   +0.00 kcal/mol
DOCKED: USER    (2) Final Total Internal Energy     =   -1.42 kcal/mol
DOCKED: USER    (3) Torsional Free Energy           =   +2.09 kcal/mol
DOCKED: USER    (4) Unbound System's Energy  [=(2)] =   -1.42 kcal/mol
DOCKED: USER    
DOCKED: USER    
DOCKED: USER    NEWDPF move ligand.dum.pdbqt
DOCKED: USER    NEWDPF about 0.154000 0.111000 -0.146000
DOCKED: USER    NEWDPF tran0 37.341358 15.278363 123.436036
DOCKED: USER    NEWDPF quaternion0 -0.197377 -0.120633 0.381274 0.895053
DOCKED: USER    NEWDPF axisangle0 -0.442589 -0.270502 0.854952 52.969474
DOCKED: USER    NEWDPF quat0 -0.442589 -0.270502 0.854952 52.969474
DOCKED: USER    NEWDPF dihe0 -10.67 -122.95 -137.86 135.80 -44.95 36.54 31.09 
DOCKED: USER  keepresnum = 1 
DOCKED: USER  
DOCKED: REMARK  Name = 
DOCKED: REMARK  7 active torsions:
DOCKED: REMARK  status: ('A' for Active; 'I' for Inactive)
DOCKED: REMARK    1  A    between atoms: C_2  and  C_5
DOCKED: REMARK    2  A    between atoms: N_3  and  O_4
DOCKED: REMARK    3  A    between atoms: C_5  and  C_6
DOCKED: REMARK    4  A    between atoms: C_6  and  C_7
DOCKED: REMARK    5  A    between atoms: C_7  and  C_8
DOCKED: REMARK    6  A    between atoms: C_8  and  C_9
DOCKED: REMARK    7  A    between atoms: C_9  and  N_10
DOCKED: REMARK                            x       y       z     vdW  Elec       q    Type
DOCKED: REMARK                         _______ _______ _______ _____ _____    ______ ____
DOCKED: USER                              x       y       z     vdW  Elec       q    Type
DOCKED: USER                           _______ _______ _______ _____ _____    ______ ____
DOCKED: ROOT
DOCKED: ATOM      1  N   UNL     1      36.320  15.731 122.437 -0.29 -0.00    +0.000 N 
DOCKED: ATOM      2  C   UNL     1      36.571  17.148 122.386 -0.23 -0.00    +0.000 C 
DOCKED: ATOM      3  C   UNL     1      35.994  18.043 123.415 -0.22 -0.00    +0.000 A 
DOCKED: ATOM      4  C   UNL     1      36.254  19.424 123.387 -0.17 -0.00    +0.000 A 
DOCKED: ATOM      5  C   UNL     1      35.712  20.268 124.358 -0.14 -0.00    +0.000 A 
DOCKED: ATOM      6  C   UNL     1      34.904  19.749 125.369 -0.18 -0.00    +0.000 A 
DOCKED: ATOM      7  C   UNL     1      34.629  18.375 125.418 -0.29 -0.00    +0.000 A 
DOCKED: ATOM      8  C   UNL     1      33.815  17.854 126.434 -0.32 -0.00    +0.000 A 
DOCKED: ATOM      9  C   UNL     1      33.540  16.488 126.480 -0.33 -0.00    +0.000 A 
DOCKED: ATOM     10  C   UNL     1      34.072  15.628 125.519 -0.28 -0.00    +0.000 A 
DOCKED: ATOM     11  C   UNL     1      34.891  16.126 124.490 -0.46 -0.00    +0.000 A 
DOCKED: ATOM     12  C   UNL     1      35.175  17.509 124.435 -0.32 -0.00    +0.000 A 
DOCKED: ATOM     13  O   UNL     1      37.284  17.630 121.462 -0.13 -0.00    +0.000 OA
DOCKED: ATOM     14  C   UNL     1      35.457  15.213 123.470 -0.50 -0.00    +0.000 C 
DOCKED: ATOM     15  O   UNL     1      35.179  13.984 123.509 -0.59 -0.00    +0.000 OA
DOCKED: ATOM     16  CM  UNL     1      35.750  16.604 123.412 -0.02 -0.00    +0.000 AC
DOCKED: ATOM     17  CM  UNL     1      35.445  18.895 124.397 -0.12 -0.00    +0.000 AC
DOCKED: ATOM     18  CM  UNL     1      34.353  16.997 125.463 -0.23 -0.00    +0.000 AC
DOCKED: ENDROOT
DOCKED: BRANCH   1  16
DOCKED: ATOM     19  C   UNL     1      36.967  14.829 121.469 -0.26 -0.00    +0.000 C 
DOCKED: BRANCH  16  17
DOCKED: ATOM     20  C   UNL     1      38.082  14.000 122.127 -0.46 -0.00    +0.000 C 
DOCKED: BRANCH  17  18
DOCKED: ATOM     21  C   UNL     1      37.670  12.558 122.484 -0.37 -0.00    +0.000 C 
DOCKED: BRANCH  18  19
DOCKED: ATOM     22  C   UNL     1      36.499  11.997 121.652 -0.53 -0.00    +0.000 C 
DOCKED: BRANCH  19  20
DOCKED: ATOM     23  C   UNL     1      35.747  10.830 122.312 -0.63 -0.00    +0.000 C 
DOCKED: BRANCH  20  22
DOCKED: ATOM     24  O   UNL     1      37.068   9.216 121.146 -2.74 -0.00    +0.000 OA
DOCKED: ATOM     25  C   UNL     1      36.520   9.545 122.232 -0.70 -0.00    +0.000 C 
DOCKED: ATOM     26  N   UNL     1      36.607   8.680 123.367 -0.63 -0.00    +0.000 N 
DOCKED: ATOM     27  H   UNL     1      36.171   8.936 124.211 -0.28 -0.00    +0.000 HD
DOCKED: BRANCH  23  25
DOCKED: ATOM     28  O   UNL     1      37.284   7.509 123.289 -2.12 -0.00    +0.000 OA
DOCKED: ATOM     29  H   UNL     1      37.506   7.324 122.363 -0.15 -0.00    +0.000 HD
DOCKED: ENDBRANCH  23  25
DOCKED: ENDBRANCH  20  22
DOCKED: ENDBRANCH  19  20
DOCKED: ENDBRANCH  18  19
DOCKED: ENDBRANCH  17  18
DOCKED: ENDBRANCH  16  17
DOCKED: ENDBRANCH   1  16
DOCKED: TORSDOF 7DOCKED: TER
DOCKED: ENDMDL
________________________________________________________________________________


	BEGINNING GENETIC ALGORITHM DOCKING 86 of 100
Run: 86 Seed: 1389435056 1808880067 [ Run 86 of 100 GA/GALS ]
Beginning LAMARCKIAN GENETIC ALGORITHM (LGA), with a maximum of 2500000 energy evaluations.

Final-Value: -14.079


	FINAL GENETIC ALGORITHM DOCKED STATE
	_______________________________________________


Detailed state:  trans 37.811 14.919 123.576 quatxyzw -0.521183 0.162985 0.512339 0.662807 center 0.154 0.111 -0.146 ntor 7 -5.5569 -71.1698 -165.3699 -122.7388 163.0391 48.1747 36.2398
State:	 37.811  14.919 123.576  -0.696  0.218  0.684 96.971     -5.56  -71.17 -165.37 -122.74  163.04   48.17   36.24

DOCKED: MODEL       86
DOCKED: USER    Run = 86
DOCKED: USER    DPF = ligand_dock.biased.dpf
DOCKED: USER  
DOCKED: USER    Estimated Free Energy of Binding    =  -10.63 kcal/mol  [=(1)+(2)+(3)-(4)]
DOCKED: USER    Estimated Inhibition Constant, Ki   =   16.02 nM (nanomolar)  [Temperature = 298.15 K]
DOCKED: USER    
DOCKED: USER    (1) Final Intermolecular Energy     =  -12.72 kcal/mol
DOCKED: USER        vdW + Hbond + desolv Energy     =  -12.72 kcal/mol
DOCKED: USER        Electrostatic Energy            =   +0.00 kcal/mol
DOCKED: USER    (2) Final Total Internal Energy     =   -1.36 kcal/mol
DOCKED: USER    (3) Torsional Free Energy           =   +2.09 kcal/mol
DOCKED: USER    (4) Unbound System's Energy  [=(2)] =   -1.36 kcal/mol
DOCKED: USER    
DOCKED: USER    
DOCKED: USER    NEWDPF move ligand.dum.pdbqt
DOCKED: USER    NEWDPF about 0.154000 0.111000 -0.146000
DOCKED: USER    NEWDPF tran0 37.810686 14.919445 123.575986
DOCKED: USER    NEWDPF quaternion0 -0.521183 0.162985 0.512339 0.662807
DOCKED: USER    NEWDPF axisangle0 -0.696034 0.217665 0.684221 96.971428
DOCKED: USER    NEWDPF quat0 -0.696034 0.217665 0.684221 96.971428
DOCKED: USER    NEWDPF dihe0 -5.56 -71.17 -165.37 -122.74 163.04 48.17 36.24 
DOCKED: USER  keepresnum = 1 
DOCKED: USER  
DOCKED: REMARK  Name = 
DOCKED: REMARK  7 active torsions:
DOCKED: REMARK  status: ('A' for Active; 'I' for Inactive)
DOCKED: REMARK    1  A    between atoms: C_2  and  C_5
DOCKED: REMARK    2  A    between atoms: N_3  and  O_4
DOCKED: REMARK    3  A    between atoms: C_5  and  C_6
DOCKED: REMARK    4  A    between atoms: C_6  and  C_7
DOCKED: REMARK    5  A    between atoms: C_7  and  C_8
DOCKED: REMARK    6  A    between atoms: C_8  and  C_9
DOCKED: REMARK    7  A    between atoms: C_9  and  N_10
DOCKED: REMARK                            x       y       z     vdW  Elec       q    Type
DOCKED: REMARK                         _______ _______ _______ _____ _____    ______ ____
DOCKED: USER                              x       y       z     vdW  Elec       q    Type
DOCKED: USER                           _______ _______ _______ _____ _____    ______ ____
DOCKED: ROOT
DOCKED: ATOM      1  N   UNL     1      38.054  16.099 122.685 -0.26 -0.00    +0.000 N 
DOCKED: ATOM      2  C   UNL     1      38.792  16.976 123.558 -0.24 -0.00    +0.000 C 
DOCKED: ATOM      3  C   UNL     1      38.075  17.831 124.532 -0.14 -0.00    +0.000 A 
DOCKED: ATOM      4  C   UNL     1      38.789  18.671 125.405 -0.17 -0.00    +0.000 A 
DOCKED: ATOM      5  C   UNL     1      38.114  19.475 126.325 -0.13 -0.00    +0.000 A 
DOCKED: ATOM      6  C   UNL     1      36.721  19.455 126.388 -0.12 -0.00    +0.000 A 
DOCKED: ATOM      7  C   UNL     1      35.988  18.626 125.528 -0.19 -0.00    +0.000 A 
DOCKED: ATOM      8  C   UNL     1      34.587  18.608 125.591 -0.27 -0.00    +0.000 A 
DOCKED: ATOM      9  C   UNL     1      33.858  17.785 124.733 -0.33 -0.00    +0.000 A 
DOCKED: ATOM     10  C   UNL     1      34.513  16.974 123.806 -0.42 -0.00    +0.000 A 
DOCKED: ATOM     11  C   UNL     1      35.917  16.975 123.724 -0.30 -0.00    +0.000 A 
DOCKED: ATOM     12  C   UNL     1      36.664  17.805 124.589 -0.20 -0.00    +0.000 A 
DOCKED: ATOM     13  O   UNL     1      40.052  17.017 123.493 -0.31 -0.00    +0.000 OA
DOCKED: ATOM     14  C   UNL     1      36.613  16.113 122.741 -0.32 -0.00    +0.000 C 
DOCKED: ATOM     15  O   UNL     1      35.940  15.393 121.953 -0.15 -0.00    +0.000 OA
DOCKED: ATOM     16  CM  UNL     1      37.371  16.943 123.612 +0.00 -0.00    +0.000 AC
DOCKED: ATOM     17  CM  UNL     1      37.392  18.643 125.461 -0.00 -0.00    +0.000 AC
DOCKED: ATOM     18  CM  UNL     1      35.254  17.796 124.662 -0.40 -0.00    +0.000 AC
DOCKED: ENDROOT
DOCKED: BRANCH   1  16
DOCKED: ATOM     19  C   UNL     1      38.768  15.183 121.780 -0.34 -0.00    +0.000 C 
DOCKED: BRANCH  16  17
DOCKED: ATOM     20  C   UNL     1      38.566  13.714 122.189 -0.34 -0.00    +0.000 C 
DOCKED: BRANCH  17  18
DOCKED: ATOM     21  C   UNL     1      37.730  12.890 121.190 -0.49 -0.00    +0.000 C 
DOCKED: BRANCH  18  19
DOCKED: ATOM     22  C   UNL     1      36.544  12.127 121.815 -0.54 -0.00    +0.000 C 
DOCKED: BRANCH  19  20
DOCKED: ATOM     23  C   UNL     1      36.931  11.166 122.950 -0.65 -0.00    +0.000 C 
DOCKED: BRANCH  20  22
DOCKED: ATOM     24  O   UNL     1      36.758   9.464 121.281 -2.38 -0.00    +0.000 OA
DOCKED: ATOM     25  C   UNL     1      36.929   9.733 122.501 -0.63 -0.00    +0.000 C 
DOCKED: ATOM     26  N   UNL     1      37.087   8.676 123.450 -0.64 -0.00    +0.000 N 
DOCKED: ATOM     27  H   UNL     1      37.212   8.889 124.402 -0.55 -0.00    +0.000 HD
DOCKED: BRANCH  23  25
DOCKED: ATOM     28  O   UNL     1      37.064   7.382 123.048 -2.16 -0.00    +0.000 OA
DOCKED: ATOM     29  H   UNL     1      36.846   7.340 122.104 -0.06 -0.00    +0.000 HD
DOCKED: ENDBRANCH  23  25
DOCKED: ENDBRANCH  20  22
DOCKED: ENDBRANCH  19  20
DOCKED: ENDBRANCH  18  19
DOCKED: ENDBRANCH  17  18
DOCKED: ENDBRANCH  16  17
DOCKED: ENDBRANCH   1  16
DOCKED: TORSDOF 7DOCKED: TER
DOCKED: ENDMDL
________________________________________________________________________________


	BEGINNING GENETIC ALGORITHM DOCKING 87 of 100
Run: 87 Seed: 1689959286 1481840730 [ Run 87 of 100 GA/GALS ]
Beginning LAMARCKIAN GENETIC ALGORITHM (LGA), with a maximum of 2500000 energy evaluations.

Final-Value: -14.472


	FINAL GENETIC ALGORITHM DOCKED STATE
	_______________________________________________


Detailed state:  trans 34.786 16.518 123.085 quatxyzw 0.456294 -0.805512 -0.205455 0.317386 center 0.154 0.111 -0.146 ntor 7 -6.8969 -98.5042 147.2273 -92.3354 179.6735 -169.2514 161.5953
State:	 34.786  16.518 123.085   0.481 -0.849 -0.217 142.990     -6.90  -98.50  147.23  -92.34  179.67 -169.25  161.60

DOCKED: MODEL       87
DOCKED: USER    Run = 87
DOCKED: USER    DPF = ligand_dock.biased.dpf
DOCKED: USER  
DOCKED: USER    Estimated Free Energy of Binding    =  -11.26 kcal/mol  [=(1)+(2)+(3)-(4)]
DOCKED: USER    Estimated Inhibition Constant, Ki   =    5.59 nM (nanomolar)  [Temperature = 298.15 K]
DOCKED: USER    
DOCKED: USER    (1) Final Intermolecular Energy     =  -13.35 kcal/mol
DOCKED: USER        vdW + Hbond + desolv Energy     =  -13.35 kcal/mol
DOCKED: USER        Electrostatic Energy            =   +0.00 kcal/mol
DOCKED: USER    (2) Final Total Internal Energy     =   -1.13 kcal/mol
DOCKED: USER    (3) Torsional Free Energy           =   +2.09 kcal/mol
DOCKED: USER    (4) Unbound System's Energy  [=(2)] =   -1.13 kcal/mol
DOCKED: USER    
DOCKED: USER    
DOCKED: USER    NEWDPF move ligand.dum.pdbqt
DOCKED: USER    NEWDPF about 0.154000 0.111000 -0.146000
DOCKED: USER    NEWDPF tran0 34.786034 16.517951 123.084603
DOCKED: USER    NEWDPF quaternion0 0.456294 -0.805512 -0.205455 0.317386
DOCKED: USER    NEWDPF axisangle0 0.481172 -0.849431 -0.216657 142.990137
DOCKED: USER    NEWDPF quat0 0.481172 -0.849431 -0.216657 142.990137
DOCKED: USER    NEWDPF dihe0 -6.90 -98.50 147.23 -92.34 179.67 -169.25 161.60 
DOCKED: USER  keepresnum = 1 
DOCKED: USER  
DOCKED: REMARK  Name = 
DOCKED: REMARK  7 active torsions:
DOCKED: REMARK  status: ('A' for Active; 'I' for Inactive)
DOCKED: REMARK    1  A    between atoms: C_2  and  C_5
DOCKED: REMARK    2  A    between atoms: N_3  and  O_4
DOCKED: REMARK    3  A    between atoms: C_5  and  C_6
DOCKED: REMARK    4  A    between atoms: C_6  and  C_7
DOCKED: REMARK    5  A    between atoms: C_7  and  C_8
DOCKED: REMARK    6  A    between atoms: C_8  and  C_9
DOCKED: REMARK    7  A    between atoms: C_9  and  N_10
DOCKED: REMARK                            x       y       z     vdW  Elec       q    Type
DOCKED: REMARK                         _______ _______ _______ _____ _____    ______ ____
DOCKED: USER                              x       y       z     vdW  Elec       q    Type
DOCKED: USER                           _______ _______ _______ _____ _____    ______ ____
DOCKED: ROOT
DOCKED: ATOM      1  N   UNL     1      35.270  15.811 124.314 -0.47 -0.00    +0.000 N 
DOCKED: ATOM      2  C   UNL     1      34.405  16.361 125.326 -0.46 -0.00    +0.000 C 
DOCKED: ATOM      3  C   UNL     1      34.716  17.676 125.933 -0.26 -0.00    +0.000 A 
DOCKED: ATOM      4  C   UNL     1      33.865  18.233 126.904 -0.26 -0.00    +0.000 A 
DOCKED: ATOM      5  C   UNL     1      34.156  19.473 127.475 -0.13 -0.00    +0.000 A 
DOCKED: ATOM      6  C   UNL     1      35.298  20.175 127.089 -0.10 -0.00    +0.000 A 
DOCKED: ATOM      7  C   UNL     1      36.162  19.640 126.123 -0.13 -0.00    +0.000 A 
DOCKED: ATOM      8  C   UNL     1      37.311  20.345 125.736 -0.08 -0.00    +0.000 A 
DOCKED: ATOM      9  C   UNL     1      38.172  19.812 124.778 -0.09 -0.00    +0.000 A 
DOCKED: ATOM     10  C   UNL     1      37.899  18.573 124.196 -0.15 -0.00    +0.000 A 
DOCKED: ATOM     11  C   UNL     1      36.753  17.847 124.567 -0.19 -0.00    +0.000 A 
DOCKED: ATOM     12  C   UNL     1      35.875  18.380 125.537 -0.20 -0.00    +0.000 A 
DOCKED: ATOM     13  O   UNL     1      33.382  15.723 125.698 -0.70 -0.00    +0.000 OA
DOCKED: ATOM     14  C   UNL     1      36.463  16.533 123.948 -0.31 -0.00    +0.000 C 
DOCKED: ATOM     15  O   UNL     1      37.263  16.050 123.101 -0.33 -0.00    +0.000 OA
DOCKED: ATOM     16  CM  UNL     1      35.572  17.066 124.920 -0.25 -0.00    +0.000 AC
DOCKED: ATOM     17  CM  UNL     1      35.012  18.930 126.510 -0.04 -0.00    +0.000 AC
DOCKED: ATOM     18  CM  UNL     1      37.029  19.100 125.156 -0.00 -0.00    +0.000 AC
DOCKED: ENDROOT
DOCKED: BRANCH   1  16
DOCKED: ATOM     19  C   UNL     1      34.914  14.548 123.645 -0.37 -0.00    +0.000 C 
DOCKED: BRANCH  16  17
DOCKED: ATOM     20  C   UNL     1      36.017  13.489 123.813 -0.58 -0.00    +0.000 C 
DOCKED: BRANCH  17  18
DOCKED: ATOM     21  C   UNL     1      36.859  13.247 122.545 -0.54 -0.00    +0.000 C 
DOCKED: BRANCH  18  19
DOCKED: ATOM     22  C   UNL     1      36.652  11.867 121.886 -0.59 -0.00    +0.000 C 
DOCKED: BRANCH  19  20
DOCKED: ATOM     23  C   UNL     1      36.188  10.763 122.849 -0.69 -0.00    +0.000 C 
DOCKED: BRANCH  20  22
DOCKED: ATOM     24  O   UNL     1      36.988   9.216 121.213 -2.71 -0.00    +0.000 OA
DOCKED: ATOM     25  C   UNL     1      36.654   9.404 122.413 -0.72 -0.00    +0.000 C 
DOCKED: ATOM     26  N   UNL     1      36.689   8.317 123.342 -0.69 -0.00    +0.000 N 
DOCKED: ATOM     27  H   UNL     1      36.420   8.465 124.277 -0.30 -0.00    +0.000 HD
DOCKED: BRANCH  23  25
DOCKED: ATOM     28  O   UNL     1      37.088   7.085 122.945 -1.83 -0.00    +0.000 OA
DOCKED: ATOM     29  H   UNL     1      37.212   7.079 121.983 -0.15 -0.00    +0.000 HD
DOCKED: ENDBRANCH  23  25
DOCKED: ENDBRANCH  20  22
DOCKED: ENDBRANCH  19  20
DOCKED: ENDBRANCH  18  19
DOCKED: ENDBRANCH  17  18
DOCKED: ENDBRANCH  16  17
DOCKED: ENDBRANCH   1  16
DOCKED: TORSDOF 7DOCKED: TER
DOCKED: ENDMDL
________________________________________________________________________________


	BEGINNING GENETIC ALGORITHM DOCKING 88 of 100
Run: 88 Seed: 1523937328 1105121722 [ Run 88 of 100 GA/GALS ]
Beginning LAMARCKIAN GENETIC ALGORITHM (LGA), with a maximum of 2500000 energy evaluations.

Final-Value: -14.376


	FINAL GENETIC ALGORITHM DOCKED STATE
	_______________________________________________


Detailed state:  trans 37.998 14.982 124.067 quatxyzw -0.048440 -0.020095 -0.921331 -0.385227 center 0.154 0.111 -0.146 ntor 7 22.0373 86.5569 73.8523 -30.6478 74.2556 34.6056 -36.9493
State:	 37.998  14.982 124.067  -0.052 -0.022 -0.998 -134.684     22.04   86.56   73.85  -30.65   74.26   34.61  -36.95

DOCKED: MODEL       88
DOCKED: USER    Run = 88
DOCKED: USER    DPF = ligand_dock.biased.dpf
DOCKED: USER  
DOCKED: USER    Estimated Free Energy of Binding    =  -11.29 kcal/mol  [=(1)+(2)+(3)-(4)]
DOCKED: USER    Estimated Inhibition Constant, Ki   =    5.33 nM (nanomolar)  [Temperature = 298.15 K]
DOCKED: USER    
DOCKED: USER    (1) Final Intermolecular Energy     =  -13.37 kcal/mol
DOCKED: USER        vdW + Hbond + desolv Energy     =  -13.37 kcal/mol
DOCKED: USER        Electrostatic Energy            =   +0.00 kcal/mol
DOCKED: USER    (2) Final Total Internal Energy     =   -1.00 kcal/mol
DOCKED: USER    (3) Torsional Free Energy           =   +2.09 kcal/mol
DOCKED: USER    (4) Unbound System's Energy  [=(2)] =   -1.00 kcal/mol
DOCKED: USER    
DOCKED: USER    
DOCKED: USER    NEWDPF move ligand.dum.pdbqt
DOCKED: USER    NEWDPF about 0.154000 0.111000 -0.146000
DOCKED: USER    NEWDPF tran0 37.997716 14.982194 124.066955
DOCKED: USER    NEWDPF quaternion0 -0.048440 -0.020095 -0.921331 -0.385227
DOCKED: USER    NEWDPF axisangle0 -0.052491 -0.021775 -0.998384 -134.684386
DOCKED: USER    NEWDPF quat0 -0.052491 -0.021775 -0.998384 -134.684386
DOCKED: USER    NEWDPF dihe0 22.04 86.56 73.85 -30.65 74.26 34.61 -36.95 
DOCKED: USER  keepresnum = 1 
DOCKED: USER  
DOCKED: REMARK  Name = 
DOCKED: REMARK  7 active torsions:
DOCKED: REMARK  status: ('A' for Active; 'I' for Inactive)
DOCKED: REMARK    1  A    between atoms: C_2  and  C_5
DOCKED: REMARK    2  A    between atoms: N_3  and  O_4
DOCKED: REMARK    3  A    between atoms: C_5  and  C_6
DOCKED: REMARK    4  A    between atoms: C_6  and  C_7
DOCKED: REMARK    5  A    between atoms: C_7  and  C_8
DOCKED: REMARK    6  A    between atoms: C_8  and  C_9
DOCKED: REMARK    7  A    between atoms: C_9  and  N_10
DOCKED: REMARK                            x       y       z     vdW  Elec       q    Type
DOCKED: REMARK                         _______ _______ _______ _____ _____    ______ ____
DOCKED: USER                              x       y       z     vdW  Elec       q    Type
DOCKED: USER                           _______ _______ _______ _____ _____    ______ ____
DOCKED: ROOT
DOCKED: ATOM      1  N   UNL     1      37.829  15.838 122.849 -0.29 -0.00    +0.000 N 
DOCKED: ATOM      2  C   UNL     1      39.034  15.544 122.117 -0.33 -0.00    +0.000 C 
DOCKED: ATOM      3  C   UNL     1      40.298  16.238 122.457 -0.28 -0.00    +0.000 A 
DOCKED: ATOM      4  C   UNL     1      41.485  15.939 121.765 -0.31 -0.00    +0.000 A 
DOCKED: ATOM      5  C   UNL     1      42.677  16.590 122.086 -0.32 -0.00    +0.000 A 
DOCKED: ATOM      6  C   UNL     1      42.704  17.548 123.100 -0.29 -0.00    +0.000 A 
DOCKED: ATOM      7  C   UNL     1      41.533  17.863 123.803 -0.29 -0.00    +0.000 A 
DOCKED: ATOM      8  C   UNL     1      41.561  18.828 124.821 -0.11 -0.00    +0.000 A 
DOCKED: ATOM      9  C   UNL     1      40.396  19.143 125.520 -0.20 -0.00    +0.000 A 
DOCKED: ATOM     10  C   UNL     1      39.195  18.504 125.213 -0.19 -0.00    +0.000 A 
DOCKED: ATOM     11  C   UNL     1      39.141  17.533 124.197 -0.20 -0.00    +0.000 A 
DOCKED: ATOM     12  C   UNL     1      40.317  17.207 123.484 -0.25 -0.00    +0.000 A 
DOCKED: ATOM     13  O   UNL     1      39.015  14.695 121.183 -0.39 -0.00    +0.000 OA
DOCKED: ATOM     14  C   UNL     1      37.866  16.853 123.872 -0.21 -0.00    +0.000 C 
DOCKED: ATOM     15  O   UNL     1      36.814  17.167 124.494 -0.28 -0.00    +0.000 OA
DOCKED: ATOM     16  CM  UNL     1      39.047  16.517 123.154 +0.00 -0.00    +0.000 AC
DOCKED: ATOM     17  CM  UNL     1      41.502  16.897 122.783 +0.00 -0.00    +0.000 AC
DOCKED: ATOM     18  CM  UNL     1      40.357  18.180 124.507 +0.00 -0.00    +0.000 AC
DOCKED: ENDROOT
DOCKED: BRANCH   1  16
DOCKED: ATOM     19  C   UNL     1      36.594  15.085 122.574 -0.37 -0.00    +0.000 C 
DOCKED: BRANCH  16  17
DOCKED: ATOM     20  C   UNL     1      36.885  13.597 122.317 -0.48 -0.00    +0.000 C 
DOCKED: BRANCH  17  18
DOCKED: ATOM     21  C   UNL     1      36.661  12.689 123.542 -0.65 -0.00    +0.000 C 
DOCKED: BRANCH  18  19
DOCKED: ATOM     22  C   UNL     1      36.077  11.299 123.217 -0.70 -0.00    +0.000 C 
DOCKED: BRANCH  19  20
DOCKED: ATOM     23  C   UNL     1      36.569  10.692 121.893 -0.57 -0.00    +0.000 C 
DOCKED: BRANCH  20  22
DOCKED: ATOM     24  O   UNL     1      37.062   8.529 121.007 -2.35 -0.00    +0.000 OA
DOCKED: ATOM     25  C   UNL     1      36.926   9.241 122.037 -0.68 -0.00    +0.000 C 
DOCKED: ATOM     26  N   UNL     1      37.078   8.657 123.334 -0.66 -0.00    +0.000 N 
DOCKED: ATOM     27  H   UNL     1      36.962   9.214 124.136 -0.54 -0.00    +0.000 HD
DOCKED: BRANCH  23  25
DOCKED: ATOM     28  O   UNL     1      37.377   7.343 123.466 -1.99 -0.00    +0.000 OA
DOCKED: ATOM     29  H   UNL     1      37.791   7.021 122.649 -0.47 -0.00    +0.000 HD
DOCKED: ENDBRANCH  23  25
DOCKED: ENDBRANCH  20  22
DOCKED: ENDBRANCH  19  20
DOCKED: ENDBRANCH  18  19
DOCKED: ENDBRANCH  17  18
DOCKED: ENDBRANCH  16  17
DOCKED: ENDBRANCH   1  16
DOCKED: TORSDOF 7DOCKED: TER
DOCKED: ENDMDL
________________________________________________________________________________


	BEGINNING GENETIC ALGORITHM DOCKING 89 of 100
Run: 89 Seed: 1113535753 737531714 [ Run 89 of 100 GA/GALS ]
Beginning LAMARCKIAN GENETIC ALGORITHM (LGA), with a maximum of 2500000 energy evaluations.

Final-Value: -14.295


	FINAL GENETIC ALGORITHM DOCKED STATE
	_______________________________________________


Detailed state:  trans 33.414 16.839 123.621 quatxyzw 0.520841 -0.782656 -0.330354 0.083904 center 0.154 0.111 -0.146 ntor 7 93.1585 21.8468 -179.7297 174.0242 158.5408 132.5334 173.3896
State:	 33.414  16.839 123.621   0.523 -0.785 -0.332 170.374     93.16   21.85 -179.73  174.02  158.54  132.53  173.39

DOCKED: MODEL       89
DOCKED: USER    Run = 89
DOCKED: USER    DPF = ligand_dock.biased.dpf
DOCKED: USER  
DOCKED: USER    Estimated Free Energy of Binding    =  -11.59 kcal/mol  [=(1)+(2)+(3)-(4)]
DOCKED: USER    Estimated Inhibition Constant, Ki   =    3.22 nM (nanomolar)  [Temperature = 298.15 K]
DOCKED: USER    
DOCKED: USER    (1) Final Intermolecular Energy     =  -13.67 kcal/mol
DOCKED: USER        vdW + Hbond + desolv Energy     =  -13.67 kcal/mol
DOCKED: USER        Electrostatic Energy            =   +0.00 kcal/mol
DOCKED: USER    (2) Final Total Internal Energy     =   -0.62 kcal/mol
DOCKED: USER    (3) Torsional Free Energy           =   +2.09 kcal/mol
DOCKED: USER    (4) Unbound System's Energy  [=(2)] =   -0.62 kcal/mol
DOCKED: USER    
DOCKED: USER    
DOCKED: USER    NEWDPF move ligand.dum.pdbqt
DOCKED: USER    NEWDPF about 0.154000 0.111000 -0.146000
DOCKED: USER    NEWDPF tran0 33.413746 16.839013 123.620519
DOCKED: USER    NEWDPF quaternion0 0.520841 -0.782656 -0.330354 0.083904
DOCKED: USER    NEWDPF axisangle0 0.522684 -0.785426 -0.331523 170.374041
DOCKED: USER    NEWDPF quat0 0.522684 -0.785426 -0.331523 170.374041
DOCKED: USER    NEWDPF dihe0 93.16 21.85 -179.73 174.02 158.54 132.53 173.39 
DOCKED: USER  keepresnum = 1 
DOCKED: USER  
DOCKED: REMARK  Name = 
DOCKED: REMARK  7 active torsions:
DOCKED: REMARK  status: ('A' for Active; 'I' for Inactive)
DOCKED: REMARK    1  A    between atoms: C_2  and  C_5
DOCKED: REMARK    2  A    between atoms: N_3  and  O_4
DOCKED: REMARK    3  A    between atoms: C_5  and  C_6
DOCKED: REMARK    4  A    between atoms: C_6  and  C_7
DOCKED: REMARK    5  A    between atoms: C_7  and  C_8
DOCKED: REMARK    6  A    between atoms: C_8  and  C_9
DOCKED: REMARK    7  A    between atoms: C_9  and  N_10
DOCKED: REMARK                            x       y       z     vdW  Elec       q    Type
DOCKED: REMARK                         _______ _______ _______ _____ _____    ______ ____
DOCKED: USER                              x       y       z     vdW  Elec       q    Type
DOCKED: USER                           _______ _______ _______ _____ _____    ______ ____
DOCKED: ROOT
DOCKED: ATOM      1  N   UNL     1      34.561  16.433 124.494 -0.47 -0.00    +0.000 N 
DOCKED: ATOM      2  C   UNL     1      34.090  16.828 125.797 -0.44 -0.00    +0.000 C 
DOCKED: ATOM      3  C   UNL     1      34.221  18.235 126.239 -0.29 -0.00    +0.000 A 
DOCKED: ATOM      4  C   UNL     1      33.741  18.635 127.499 -0.19 -0.00    +0.000 A 
DOCKED: ATOM      5  C   UNL     1      33.862  19.962 127.916 -0.09 -0.00    +0.000 A 
DOCKED: ATOM      6  C   UNL     1      34.464  20.908 127.086 -0.10 -0.00    +0.000 A 
DOCKED: ATOM      7  C   UNL     1      34.951  20.533 125.826 -0.15 -0.00    +0.000 A 
DOCKED: ATOM      8  C   UNL     1      35.556  21.484 124.992 -0.14 -0.00    +0.000 A 
DOCKED: ATOM      9  C   UNL     1      36.043  21.111 123.740 -0.13 -0.00    +0.000 A 
DOCKED: ATOM     10  C   UNL     1      35.932  19.790 123.305 -0.15 -0.00    +0.000 A 
DOCKED: ATOM     11  C   UNL     1      35.328  18.817 124.123 -0.22 -0.00    +0.000 A 
DOCKED: ATOM     12  C   UNL     1      34.832  19.187 125.393 -0.22 -0.00    +0.000 A 
DOCKED: ATOM     13  O   UNL     1      33.564  15.974 126.564 -1.08 -0.00    +0.000 OA
DOCKED: ATOM     14  C   UNL     1      35.209  17.416 123.660 -0.37 -0.00    +0.000 C 
DOCKED: ATOM     15  O   UNL     1      35.676  17.086 122.536 -0.29 -0.00    +0.000 OA
DOCKED: ATOM     16  CM  UNL     1      34.703  17.782 124.938 -0.47 -0.00    +0.000 AC
DOCKED: ATOM     17  CM  UNL     1      34.345  19.577 126.660 -0.00 -0.00    +0.000 AC
DOCKED: ATOM     18  CM  UNL     1      35.441  20.154 124.563 +0.00 -0.00    +0.000 AC
DOCKED: ENDROOT
DOCKED: BRANCH   1  16
DOCKED: ATOM     19  C   UNL     1      34.350  15.056 124.017 -0.52 -0.00    +0.000 C 
DOCKED: BRANCH  16  17
DOCKED: ATOM     20  C   UNL     1      35.673  14.277 123.935 -0.54 -0.00    +0.000 C 
DOCKED: BRANCH  17  18
DOCKED: ATOM     21  C   UNL     1      35.598  12.993 123.087 -0.21 -0.00    +0.000 C 
DOCKED: BRANCH  18  19
DOCKED: ATOM     22  C   UNL     1      36.214  11.744 123.751 -0.70 -0.00    +0.000 C 
DOCKED: BRANCH  19  20
DOCKED: ATOM     23  C   UNL     1      37.377  11.113 122.970 -0.30 -0.00    +0.000 C 
DOCKED: BRANCH  20  22
DOCKED: ATOM     24  O   UNL     1      36.693   9.497 121.348 -2.29 -0.00    +0.000 OA
DOCKED: ATOM     25  C   UNL     1      37.067   9.710 122.532 -0.59 -0.00    +0.000 C 
DOCKED: ATOM     26  N   UNL     1      37.162   8.625 123.457 -0.63 -0.00    +0.000 N 
DOCKED: ATOM     27  H   UNL     1      37.446   8.796 124.383 -0.58 -0.00    +0.000 HD
DOCKED: BRANCH  23  25
DOCKED: ATOM     28  O   UNL     1      36.860   7.362 123.070 -2.09 -0.00    +0.000 OA
DOCKED: ATOM     29  H   UNL     1      37.669   6.911 122.781 -0.42 -0.00    +0.000 HD
DOCKED: ENDBRANCH  23  25
DOCKED: ENDBRANCH  20  22
DOCKED: ENDBRANCH  19  20
DOCKED: ENDBRANCH  18  19
DOCKED: ENDBRANCH  17  18
DOCKED: ENDBRANCH  16  17
DOCKED: ENDBRANCH   1  16
DOCKED: TORSDOF 7DOCKED: TER
DOCKED: ENDMDL
________________________________________________________________________________


	BEGINNING GENETIC ALGORITHM DOCKING 90 of 100
Run: 90 Seed: 323257290 692609871 [ Run 90 of 100 GA/GALS ]
Beginning LAMARCKIAN GENETIC ALGORITHM (LGA), with a maximum of 2500000 energy evaluations.

Final-Value: -14.966


	FINAL GENETIC ALGORITHM DOCKED STATE
	_______________________________________________


Detailed state:  trans 37.186 16.097 121.748 quatxyzw 0.747069 -0.515342 -0.265580 0.325235 center 0.154 0.111 -0.146 ntor 7 18.4873 -99.7883 -179.0803 -154.5784 47.5630 145.1762 -0.7537
State:	 37.186  16.097 121.748   0.790 -0.545 -0.281 142.040     18.49  -99.79 -179.08 -154.58   47.56  145.18   -0.75

DOCKED: MODEL       90
DOCKED: USER    Run = 90
DOCKED: USER    DPF = ligand_dock.biased.dpf
DOCKED: USER  
DOCKED: USER    Estimated Free Energy of Binding    =  -11.58 kcal/mol  [=(1)+(2)+(3)-(4)]
DOCKED: USER    Estimated Inhibition Constant, Ki   =    3.24 nM (nanomolar)  [Temperature = 298.15 K]
DOCKED: USER    
DOCKED: USER    (1) Final Intermolecular Energy     =  -13.67 kcal/mol
DOCKED: USER        vdW + Hbond + desolv Energy     =  -13.67 kcal/mol
DOCKED: USER        Electrostatic Energy            =   +0.00 kcal/mol
DOCKED: USER    (2) Final Total Internal Energy     =   -1.30 kcal/mol
DOCKED: USER    (3) Torsional Free Energy           =   +2.09 kcal/mol
DOCKED: USER    (4) Unbound System's Energy  [=(2)] =   -1.30 kcal/mol
DOCKED: USER    
DOCKED: USER    
DOCKED: USER    NEWDPF move ligand.dum.pdbqt
DOCKED: USER    NEWDPF about 0.154000 0.111000 -0.146000
DOCKED: USER    NEWDPF tran0 37.186328 16.097082 121.748042
DOCKED: USER    NEWDPF quaternion0 0.747069 -0.515342 -0.265580 0.325235
DOCKED: USER    NEWDPF axisangle0 0.790020 -0.544970 -0.280849 142.040378
DOCKED: USER    NEWDPF quat0 0.790020 -0.544970 -0.280849 142.040378
DOCKED: USER    NEWDPF dihe0 18.49 -99.79 -179.08 -154.58 47.56 145.18 -0.75 
DOCKED: USER  keepresnum = 1 
DOCKED: USER  
DOCKED: REMARK  Name = 
DOCKED: REMARK  7 active torsions:
DOCKED: REMARK  status: ('A' for Active; 'I' for Inactive)
DOCKED: REMARK    1  A    between atoms: C_2  and  C_5
DOCKED: REMARK    2  A    between atoms: N_3  and  O_4
DOCKED: REMARK    3  A    between atoms: C_5  and  C_6
DOCKED: REMARK    4  A    between atoms: C_6  and  C_7
DOCKED: REMARK    5  A    between atoms: C_7  and  C_8
DOCKED: REMARK    6  A    between atoms: C_8  and  C_9
DOCKED: REMARK    7  A    between atoms: C_9  and  N_10
DOCKED: REMARK                            x       y       z     vdW  Elec       q    Type
DOCKED: REMARK                         _______ _______ _______ _____ _____    ______ ____
DOCKED: USER                              x       y       z     vdW  Elec       q    Type
DOCKED: USER                           _______ _______ _______ _____ _____    ______ ____
DOCKED: ROOT
DOCKED: ATOM      1  N   UNL     1      37.736  15.769 123.103 -0.31 -0.00    +0.000 N 
DOCKED: ATOM      2  C   UNL     1      36.540  15.417 123.825 -0.39 -0.00    +0.000 C 
DOCKED: ATOM      3  C   UNL     1      35.683  16.477 124.404 -0.31 -0.00    +0.000 A 
DOCKED: ATOM      4  C   UNL     1      34.500  16.145 125.088 -0.42 -0.00    +0.000 A 
DOCKED: ATOM      5  C   UNL     1      33.691  17.143 125.633 -0.32 -0.00    +0.000 A 
DOCKED: ATOM      6  C   UNL     1      34.047  18.485 125.504 -0.30 -0.00    +0.000 A 
DOCKED: ATOM      7  C   UNL     1      35.221  18.842 124.827 -0.23 -0.00    +0.000 A 
DOCKED: ATOM      8  C   UNL     1      35.580  20.191 124.699 -0.16 -0.00    +0.000 A 
DOCKED: ATOM      9  C   UNL     1      36.749  20.546 124.027 -0.12 -0.00    +0.000 A 
DOCKED: ATOM     10  C   UNL     1      37.572  19.563 123.477 -0.10 -0.00    +0.000 A 
DOCKED: ATOM     11  C   UNL     1      37.234  18.202 123.591 -0.16 -0.00    +0.000 A 
DOCKED: ATOM     12  C   UNL     1      36.051  17.834 124.270 -0.24 -0.00    +0.000 A 
DOCKED: ATOM     13  O   UNL     1      36.221  14.204 123.965 -0.59 -0.00    +0.000 OA
DOCKED: ATOM     14  C   UNL     1      38.107  17.159 123.006 -0.22 -0.00    +0.000 C 
DOCKED: ATOM     15  O   UNL     1      39.175  17.492 122.423 -0.15 -0.00    +0.000 OA
DOCKED: ATOM     16  CM  UNL     1      36.915  16.782 123.684 -0.00 -0.00    +0.000 AC
DOCKED: ATOM     17  CM  UNL     1      34.865  17.488 124.954 -0.46 -0.00    +0.000 AC
DOCKED: ATOM     18  CM  UNL     1      36.401  19.197 124.149 -0.01 -0.00    +0.000 AC
DOCKED: ENDROOT
DOCKED: BRANCH   1  16
DOCKED: ATOM     19  C   UNL     1      38.540  14.723 122.449 -0.42 -0.00    +0.000 C 
DOCKED: BRANCH  16  17
DOCKED: ATOM     20  C   UNL     1      37.870  14.219 121.159 -0.38 -0.00    +0.000 C 
DOCKED: BRANCH  17  18
DOCKED: ATOM     21  C   UNL     1      38.199  12.755 120.808 -0.41 -0.00    +0.000 C 
DOCKED: BRANCH  18  19
DOCKED: ATOM     22  C   UNL     1      36.986  11.802 120.813 -0.45 -0.00    +0.000 C 
DOCKED: BRANCH  19  20
DOCKED: ATOM     23  C   UNL     1      36.683  11.161 122.177 -0.64 -0.00    +0.000 C 
DOCKED: BRANCH  20  22
DOCKED: ATOM     24  O   UNL     1      36.748   9.060 121.040 -2.63 -0.00    +0.000 OA
DOCKED: ATOM     25  C   UNL     1      36.826   9.667 122.142 -0.66 -0.00    +0.000 C 
DOCKED: ATOM     26  N   UNL     1      37.016   8.928 123.351 -0.62 -0.00    +0.000 N 
DOCKED: ATOM     27  H   UNL     1      37.068   9.404 124.211 -0.58 -0.00    +0.000 HD
DOCKED: BRANCH  23  25
DOCKED: ATOM     28  O   UNL     1      37.122   7.578 123.323 -2.22 -0.00    +0.000 OA
DOCKED: ATOM     29  H   UNL     1      37.343   7.289 122.424 -0.15 -0.00    +0.000 HD
DOCKED: ENDBRANCH  23  25
DOCKED: ENDBRANCH  20  22
DOCKED: ENDBRANCH  19  20
DOCKED: ENDBRANCH  18  19
DOCKED: ENDBRANCH  17  18
DOCKED: ENDBRANCH  16  17
DOCKED: ENDBRANCH   1  16
DOCKED: TORSDOF 7DOCKED: TER
DOCKED: ENDMDL
________________________________________________________________________________


	BEGINNING GENETIC ALGORITHM DOCKING 91 of 100
Run: 91 Seed: 898901746 1244692469 [ Run 91 of 100 GA/GALS ]
Beginning LAMARCKIAN GENETIC ALGORITHM (LGA), with a maximum of 2500000 energy evaluations.

Final-Value: -13.720


	FINAL GENETIC ALGORITHM DOCKED STATE
	_______________________________________________


Detailed state:  trans 36.753 16.494 122.198 quatxyzw -0.757089 0.530528 0.247778 -0.289762 center 0.154 0.111 -0.146 ntor 7 21.4259 162.3425 130.5958 161.8408 -163.9221 -150.9950 -8.4753
State:	 36.753  16.494 122.198  -0.791  0.554  0.259 -146.313     21.43  162.34  130.60  161.84 -163.92 -150.99   -8.48

DOCKED: MODEL       91
DOCKED: USER    Run = 91
DOCKED: USER    DPF = ligand_dock.biased.dpf
DOCKED: USER  
DOCKED: USER    Estimated Free Energy of Binding    =  -10.61 kcal/mol  [=(1)+(2)+(3)-(4)]
DOCKED: USER    Estimated Inhibition Constant, Ki   =   16.73 nM (nanomolar)  [Temperature = 298.15 K]
DOCKED: USER    
DOCKED: USER    (1) Final Intermolecular Energy     =  -12.70 kcal/mol
DOCKED: USER        vdW + Hbond + desolv Energy     =  -12.70 kcal/mol
DOCKED: USER        Electrostatic Energy            =   +0.00 kcal/mol
DOCKED: USER    (2) Final Total Internal Energy     =   -1.02 kcal/mol
DOCKED: USER    (3) Torsional Free Energy           =   +2.09 kcal/mol
DOCKED: USER    (4) Unbound System's Energy  [=(2)] =   -1.02 kcal/mol
DOCKED: USER    
DOCKED: USER    
DOCKED: USER    NEWDPF move ligand.dum.pdbqt
DOCKED: USER    NEWDPF about 0.154000 0.111000 -0.146000
DOCKED: USER    NEWDPF tran0 36.752535 16.494057 122.197551
DOCKED: USER    NEWDPF quaternion0 -0.757089 0.530528 0.247778 -0.289762
DOCKED: USER    NEWDPF axisangle0 -0.791025 0.554308 0.258885 -146.312608
DOCKED: USER    NEWDPF quat0 -0.791025 0.554308 0.258885 -146.312608
DOCKED: USER    NEWDPF dihe0 21.43 162.34 130.60 161.84 -163.92 -150.99 -8.48 
DOCKED: USER  keepresnum = 1 
DOCKED: USER  
DOCKED: REMARK  Name = 
DOCKED: REMARK  7 active torsions:
DOCKED: REMARK  status: ('A' for Active; 'I' for Inactive)
DOCKED: REMARK    1  A    between atoms: C_2  and  C_5
DOCKED: REMARK    2  A    between atoms: N_3  and  O_4
DOCKED: REMARK    3  A    between atoms: C_5  and  C_6
DOCKED: REMARK    4  A    between atoms: C_6  and  C_7
DOCKED: REMARK    5  A    between atoms: C_7  and  C_8
DOCKED: REMARK    6  A    between atoms: C_8  and  C_9
DOCKED: REMARK    7  A    between atoms: C_9  and  N_10
DOCKED: REMARK                            x       y       z     vdW  Elec       q    Type
DOCKED: REMARK                         _______ _______ _______ _____ _____    ______ ____
DOCKED: USER                              x       y       z     vdW  Elec       q    Type
DOCKED: USER                           _______ _______ _______ _____ _____    ______ ____
DOCKED: ROOT
DOCKED: ATOM      1  N   UNL     1      37.320  16.281 123.568 -0.29 -0.00    +0.000 N 
DOCKED: ATOM      2  C   UNL     1      36.133  15.999 124.334 -0.20 -0.00    +0.000 C 
DOCKED: ATOM      3  C   UNL     1      35.290  17.109 124.832 -0.31 -0.00    +0.000 A 
DOCKED: ATOM      4  C   UNL     1      34.116  16.843 125.560 -0.39 -0.00    +0.000 A 
DOCKED: ATOM      5  C   UNL     1      33.319  17.889 126.027 -0.26 -0.00    +0.000 A 
DOCKED: ATOM      6  C   UNL     1      33.680  19.214 125.779 -0.23 -0.00    +0.000 A 
DOCKED: ATOM      7  C   UNL     1      34.845  19.504 125.057 -0.18 -0.00    +0.000 A 
DOCKED: ATOM      8  C   UNL     1      35.208  20.836 124.808 -0.09 -0.00    +0.000 A 
DOCKED: ATOM      9  C   UNL     1      36.369  21.125 124.092 -0.14 -0.00    +0.000 A 
DOCKED: ATOM     10  C   UNL     1      37.179  20.093 123.617 -0.11 -0.00    +0.000 A 
DOCKED: ATOM     11  C   UNL     1      36.837  18.749 123.852 -0.16 -0.00    +0.000 A 
DOCKED: ATOM     12  C   UNL     1      35.662  18.448 124.577 -0.23 -0.00    +0.000 A 
DOCKED: ATOM     13  O   UNL     1      35.811  14.804 124.583 -0.55 -0.00    +0.000 OA
DOCKED: ATOM     14  C   UNL     1      37.696  17.655 123.346 -0.20 -0.00    +0.000 C 
DOCKED: ATOM     15  O   UNL     1      38.757  17.930 122.722 -0.14 -0.00    +0.000 OA
DOCKED: ATOM     16  CM  UNL     1      36.513  17.344 124.071 -0.04 -0.00    +0.000 AC
DOCKED: ATOM     17  CM  UNL     1      34.485  18.168 125.305 -0.37 -0.00    +0.000 AC
DOCKED: ATOM     18  CM  UNL     1      36.017  19.793 124.334 -0.01 -0.00    +0.000 AC
DOCKED: ENDROOT
DOCKED: BRANCH   1  16
DOCKED: ATOM     19  C   UNL     1      38.110  15.178 122.995 -0.38 -0.00    +0.000 C 
DOCKED: BRANCH  16  17
DOCKED: ATOM     20  C   UNL     1      37.336  14.445 121.885 -0.39 -0.00    +0.000 C 
DOCKED: BRANCH  17  18
DOCKED: ATOM     21  C   UNL     1      36.429  13.308 122.394 -0.40 -0.00    +0.000 C 
DOCKED: BRANCH  18  19
DOCKED: ATOM     22  C   UNL     1      37.069  11.905 122.354 -0.60 -0.00    +0.000 C 
DOCKED: BRANCH  19  20
DOCKED: ATOM     23  C   UNL     1      36.184  10.816 121.726 -0.24 -0.00    +0.000 C 
DOCKED: BRANCH  20  22
DOCKED: ATOM     24  O   UNL     1      37.036   8.701 121.011 -2.54 -0.00    +0.000 OA
DOCKED: ATOM     25  C   UNL     1      36.720   9.437 121.984 -0.69 -0.00    +0.000 C 
DOCKED: ATOM     26  N   UNL     1      36.840   8.945 123.321 -0.61 -0.00    +0.000 N 
DOCKED: ATOM     27  H   UNL     1      36.585   9.519 124.077 -0.43 -0.00    +0.000 HD
DOCKED: BRANCH  23  25
DOCKED: ATOM     28  O   UNL     1      37.301   7.693 123.554 -2.13 -0.00    +0.000 OA
DOCKED: ATOM     29  H   UNL     1      37.813   7.388 122.787 -0.39 -0.00    +0.000 HD
DOCKED: ENDBRANCH  23  25
DOCKED: ENDBRANCH  20  22
DOCKED: ENDBRANCH  19  20
DOCKED: ENDBRANCH  18  19
DOCKED: ENDBRANCH  17  18
DOCKED: ENDBRANCH  16  17
DOCKED: ENDBRANCH   1  16
DOCKED: TORSDOF 7DOCKED: TER
DOCKED: ENDMDL
________________________________________________________________________________


	BEGINNING GENETIC ALGORITHM DOCKING 92 of 100
Run: 92 Seed: 1434808664 364842984 [ Run 92 of 100 GA/GALS ]
Beginning LAMARCKIAN GENETIC ALGORITHM (LGA), with a maximum of 2500000 energy evaluations.

Final-Value: -14.809


	FINAL GENETIC ALGORITHM DOCKED STATE
	_______________________________________________


Detailed state:  trans 37.052 15.482 124.048 quatxyzw -0.309894 -0.077318 0.459776 0.828610 center 0.154 0.111 -0.146 ntor 7 -0.7806 -177.6891 118.7114 178.1921 65.4473 3.9727 26.3453
State:	 37.052  15.482 124.048  -0.554 -0.138  0.821 68.088     -0.78 -177.69  118.71  178.19   65.45    3.97   26.35

DOCKED: MODEL       92
DOCKED: USER    Run = 92
DOCKED: USER    DPF = ligand_dock.biased.dpf
DOCKED: USER  
DOCKED: USER    Estimated Free Energy of Binding    =  -11.55 kcal/mol  [=(1)+(2)+(3)-(4)]
DOCKED: USER    Estimated Inhibition Constant, Ki   =    3.41 nM (nanomolar)  [Temperature = 298.15 K]
DOCKED: USER    
DOCKED: USER    (1) Final Intermolecular Energy     =  -13.64 kcal/mol
DOCKED: USER        vdW + Hbond + desolv Energy     =  -13.64 kcal/mol
DOCKED: USER        Electrostatic Energy            =   +0.00 kcal/mol
DOCKED: USER    (2) Final Total Internal Energy     =   -1.17 kcal/mol
DOCKED: USER    (3) Torsional Free Energy           =   +2.09 kcal/mol
DOCKED: USER    (4) Unbound System's Energy  [=(2)] =   -1.17 kcal/mol
DOCKED: USER    
DOCKED: USER    
DOCKED: USER    NEWDPF move ligand.dum.pdbqt
DOCKED: USER    NEWDPF about 0.154000 0.111000 -0.146000
DOCKED: USER    NEWDPF tran0 37.052315 15.482371 124.047899
DOCKED: USER    NEWDPF quaternion0 -0.309894 -0.077318 0.459776 0.828610
DOCKED: USER    NEWDPF axisangle0 -0.553553 -0.138110 0.821282 68.087632
DOCKED: USER    NEWDPF quat0 -0.553553 -0.138110 0.821282 68.087632
DOCKED: USER    NEWDPF dihe0 -0.78 -177.69 118.71 178.19 65.45 3.97 26.35 
DOCKED: USER  keepresnum = 1 
DOCKED: USER  
DOCKED: REMARK  Name = 
DOCKED: REMARK  7 active torsions:
DOCKED: REMARK  status: ('A' for Active; 'I' for Inactive)
DOCKED: REMARK    1  A    between atoms: C_2  and  C_5
DOCKED: REMARK    2  A    between atoms: N_3  and  O_4
DOCKED: REMARK    3  A    between atoms: C_5  and  C_6
DOCKED: REMARK    4  A    between atoms: C_6  and  C_7
DOCKED: REMARK    5  A    between atoms: C_7  and  C_8
DOCKED: REMARK    6  A    between atoms: C_8  and  C_9
DOCKED: REMARK    7  A    between atoms: C_9  and  N_10
DOCKED: REMARK                            x       y       z     vdW  Elec       q    Type
DOCKED: REMARK                         _______ _______ _______ _____ _____    ______ ____
DOCKED: USER                              x       y       z     vdW  Elec       q    Type
DOCKED: USER                           _______ _______ _______ _____ _____    ______ ____
DOCKED: ROOT
DOCKED: ATOM      1  N   UNL     1      36.302  16.323 123.060 -0.30 -0.00    +0.000 N 
DOCKED: ATOM      2  C   UNL     1      36.867  17.626 123.298 -0.23 -0.00    +0.000 C 
DOCKED: ATOM      3  C   UNL     1      36.369  18.458 124.418 -0.19 -0.00    +0.000 A 
DOCKED: ATOM      4  C   UNL     1      36.931  19.721 124.674 -0.12 -0.00    +0.000 A 
DOCKED: ATOM      5  C   UNL     1      36.464  20.505 125.730 -0.10 -0.00    +0.000 A 
DOCKED: ATOM      6  C   UNL     1      35.430  20.043 126.546 -0.12 -0.00    +0.000 A 
DOCKED: ATOM      7  C   UNL     1      34.854  18.787 126.310 -0.21 -0.00    +0.000 A 
DOCKED: ATOM      8  C   UNL     1      33.814  18.324 127.129 -0.24 -0.00    +0.000 A 
DOCKED: ATOM      9  C   UNL     1      33.239  17.076 126.893 -0.34 -0.00    +0.000 A 
DOCKED: ATOM     10  C   UNL     1      33.691  16.278 125.842 -0.32 -0.00    +0.000 A 
DOCKED: ATOM     11  C   UNL     1      34.732  16.720 125.006 -0.39 -0.00    +0.000 A 
DOCKED: ATOM     12  C   UNL     1      35.321  17.983 125.238 -0.26 -0.00    +0.000 A 
DOCKED: ATOM     13  O   UNL     1      37.787  18.062 122.552 -0.13 -0.00    +0.000 OA
DOCKED: ATOM     14  C   UNL     1      35.214  15.872 123.892 -0.51 -0.00    +0.000 C 
DOCKED: ATOM     15  O   UNL     1      34.667  14.757 123.673 -0.62 -0.00    +0.000 OA
DOCKED: ATOM     16  CM  UNL     1      35.814  17.141 124.123 -0.12 -0.00    +0.000 AC
DOCKED: ATOM     17  CM  UNL     1      35.895  19.249 125.486 -0.05 -0.00    +0.000 AC
DOCKED: ATOM     18  CM  UNL     1      34.275  17.528 126.070 -0.17 -0.00    +0.000 AC
DOCKED: ENDROOT
DOCKED: BRANCH   1  16
DOCKED: ATOM     19  C   UNL     1      36.857  15.458 122.005 -0.29 -0.00    +0.000 C 
DOCKED: BRANCH  16  17
DOCKED: ATOM     20  C   UNL     1      37.757  14.357 122.593 -0.46 -0.00    +0.000 C 
DOCKED: BRANCH  17  18
DOCKED: ATOM     21  C   UNL     1      37.003  13.303 123.426 -0.58 -0.00    +0.000 C 
DOCKED: BRANCH  18  19
DOCKED: ATOM     22  C   UNL     1      37.393  11.841 123.125 -0.50 -0.00    +0.000 C 
DOCKED: BRANCH  19  20
DOCKED: ATOM     23  C   UNL     1      36.262  10.987 122.532 -0.68 -0.00    +0.000 C 
DOCKED: BRANCH  20  22
DOCKED: ATOM     24  O   UNL     1      37.023   9.223 121.110 -2.72 -0.00    +0.000 OA
DOCKED: ATOM     25  C   UNL     1      36.698   9.573 122.277 -0.71 -0.00    +0.000 C 
DOCKED: ATOM     26  N   UNL     1      36.714   8.617 123.339 -0.65 -0.00    +0.000 N 
DOCKED: ATOM     27  H   UNL     1      36.451   8.891 124.247 -0.35 -0.00    +0.000 HD
DOCKED: BRANCH  23  25
DOCKED: ATOM     28  O   UNL     1      37.085   7.335 123.106 -2.14 -0.00    +0.000 OA
DOCKED: ATOM     29  H   UNL     1      37.300   7.226 122.166 -0.14 -0.00    +0.000 HD
DOCKED: ENDBRANCH  23  25
DOCKED: ENDBRANCH  20  22
DOCKED: ENDBRANCH  19  20
DOCKED: ENDBRANCH  18  19
DOCKED: ENDBRANCH  17  18
DOCKED: ENDBRANCH  16  17
DOCKED: ENDBRANCH   1  16
DOCKED: TORSDOF 7DOCKED: TER
DOCKED: ENDMDL
________________________________________________________________________________


	BEGINNING GENETIC ALGORITHM DOCKING 93 of 100
Run: 93 Seed: 90549913 1425886771 [ Run 93 of 100 GA/GALS ]
Beginning LAMARCKIAN GENETIC ALGORITHM (LGA), with a maximum of 2500000 energy evaluations.

Final-Value: -15.375


	FINAL GENETIC ALGORITHM DOCKED STATE
	_______________________________________________


Detailed state:  trans 35.878 15.909 125.093 quatxyzw 0.098726 -0.081552 0.597494 0.791583 center 0.154 0.111 -0.146 ntor 7 3.3062 109.3902 75.1428 81.9862 -158.2904 167.0375 17.9388
State:	 35.878  15.909 125.093   0.162 -0.133  0.978 75.333      3.31  109.39   75.14   81.99 -158.29  167.04   17.94

DOCKED: MODEL       93
DOCKED: USER    Run = 93
DOCKED: USER    DPF = ligand_dock.biased.dpf
DOCKED: USER  
DOCKED: USER    Estimated Free Energy of Binding    =  -12.12 kcal/mol  [=(1)+(2)+(3)-(4)]
DOCKED: USER    Estimated Inhibition Constant, Ki   =    1.31 nM (nanomolar)  [Temperature = 298.15 K]
DOCKED: USER    
DOCKED: USER    (1) Final Intermolecular Energy     =  -14.21 kcal/mol
DOCKED: USER        vdW + Hbond + desolv Energy     =  -14.21 kcal/mol
DOCKED: USER        Electrostatic Energy            =   +0.00 kcal/mol
DOCKED: USER    (2) Final Total Internal Energy     =   -1.17 kcal/mol
DOCKED: USER    (3) Torsional Free Energy           =   +2.09 kcal/mol
DOCKED: USER    (4) Unbound System's Energy  [=(2)] =   -1.17 kcal/mol
DOCKED: USER    
DOCKED: USER    
DOCKED: USER    NEWDPF move ligand.dum.pdbqt
DOCKED: USER    NEWDPF about 0.154000 0.111000 -0.146000
DOCKED: USER    NEWDPF tran0 35.878139 15.909136 125.092801
DOCKED: USER    NEWDPF quaternion0 0.098726 -0.081552 0.597494 0.791583
DOCKED: USER    NEWDPF axisangle0 0.161564 -0.133459 0.977796 75.332659
DOCKED: USER    NEWDPF quat0 0.161564 -0.133459 0.977796 75.332659
DOCKED: USER    NEWDPF dihe0 3.31 109.39 75.14 81.99 -158.29 167.04 17.94 
DOCKED: USER  keepresnum = 1 
DOCKED: USER  
DOCKED: REMARK  Name = 
DOCKED: REMARK  7 active torsions:
DOCKED: REMARK  status: ('A' for Active; 'I' for Inactive)
DOCKED: REMARK    1  A    between atoms: C_2  and  C_5
DOCKED: REMARK    2  A    between atoms: N_3  and  O_4
DOCKED: REMARK    3  A    between atoms: C_5  and  C_6
DOCKED: REMARK    4  A    between atoms: C_6  and  C_7
DOCKED: REMARK    5  A    between atoms: C_7  and  C_8
DOCKED: REMARK    6  A    between atoms: C_8  and  C_9
DOCKED: REMARK    7  A    between atoms: C_9  and  N_10
DOCKED: REMARK                            x       y       z     vdW  Elec       q    Type
DOCKED: REMARK                         _______ _______ _______ _____ _____    ______ ____
DOCKED: USER                              x       y       z     vdW  Elec       q    Type
DOCKED: USER                           _______ _______ _______ _____ _____    ______ ____
DOCKED: ROOT
DOCKED: ATOM      1  N   UNL     1      34.753  16.241 124.161 -0.47 -0.00    +0.000 N 
DOCKED: ATOM      2  C   UNL     1      35.386  17.169 123.259 -0.36 -0.00    +0.000 C 
DOCKED: ATOM      3  C   UNL     1      35.524  18.595 123.637 -0.23 -0.00    +0.000 A 
DOCKED: ATOM      4  C   UNL     1      36.163  19.503 122.774 -0.16 -0.00    +0.000 A 
DOCKED: ATOM      5  C   UNL     1      36.296  20.846 123.130 -0.13 -0.00    +0.000 A 
DOCKED: ATOM      6  C   UNL     1      35.793  21.304 124.348 -0.14 -0.00    +0.000 A 
DOCKED: ATOM      7  C   UNL     1      35.152  20.418 125.224 -0.15 -0.00    +0.000 A 
DOCKED: ATOM      8  C   UNL     1      34.646  20.879 126.448 -0.12 -0.00    +0.000 A 
DOCKED: ATOM      9  C   UNL     1      34.006  19.998 127.319 -0.12 -0.00    +0.000 A 
DOCKED: ATOM     10  C   UNL     1      33.863  18.652 126.981 -0.22 -0.00    +0.000 A 
DOCKED: ATOM     11  C   UNL     1      34.362  18.165 125.760 -0.31 -0.00    +0.000 A 
DOCKED: ATOM     12  C   UNL     1      35.012  19.051 124.872 -0.22 -0.00    +0.000 A 
DOCKED: ATOM     13  O   UNL     1      35.824  16.769 122.145 -0.28 -0.00    +0.000 OA
DOCKED: ATOM     14  C   UNL     1      34.211  16.736 125.402 -0.46 -0.00    +0.000 C 
DOCKED: ATOM     15  O   UNL     1      33.607  15.954 126.187 -1.00 -0.00    +0.000 OA
DOCKED: ATOM     16  CM  UNL     1      34.871  17.621 124.506 -0.39 -0.00    +0.000 AC
DOCKED: ATOM     17  CM  UNL     1      35.657  19.953 123.998 -0.00 -0.00    +0.000 AC
DOCKED: ATOM     18  CM  UNL     1      34.506  19.527 126.101 -0.03 -0.00    +0.000 AC
DOCKED: ENDROOT
DOCKED: BRANCH   1  16
DOCKED: ATOM     19  C   UNL     1      34.696  14.808 123.827 -0.52 -0.00    +0.000 C 
DOCKED: BRANCH  16  17
DOCKED: ATOM     20  C   UNL     1      35.874  14.037 124.446 -0.16 -0.00    +0.000 C 
DOCKED: BRANCH  17  18
DOCKED: ATOM     21  C   UNL     1      36.645  13.152 123.447 -0.62 -0.00    +0.000 C 
DOCKED: BRANCH  18  19
DOCKED: ATOM     22  C   UNL     1      36.103  11.715 123.306 -0.69 -0.00    +0.000 C 
DOCKED: BRANCH  19  20
DOCKED: ATOM     23  C   UNL     1      36.276  11.102 121.907 -0.57 -0.00    +0.000 C 
DOCKED: BRANCH  20  22
DOCKED: ATOM     24  O   UNL     1      37.058   9.076 120.910 -2.73 -0.00    +0.000 OA
DOCKED: ATOM     25  C   UNL     1      36.737   9.674 121.972 -0.67 -0.00    +0.000 C 
DOCKED: ATOM     26  N   UNL     1      36.781   8.982 123.222 -0.64 -0.00    +0.000 N 
DOCKED: ATOM     27  H   UNL     1      36.522   9.450 124.048 -0.41 -0.00    +0.000 HD
DOCKED: BRANCH  23  25
DOCKED: ATOM     28  O   UNL     1      37.175   7.688 123.279 -2.26 -0.00    +0.000 OA
DOCKED: ATOM     29  H   UNL     1      37.445   7.392 122.394 -0.15 -0.00    +0.000 HD
DOCKED: ENDBRANCH  23  25
DOCKED: ENDBRANCH  20  22
DOCKED: ENDBRANCH  19  20
DOCKED: ENDBRANCH  18  19
DOCKED: ENDBRANCH  17  18
DOCKED: ENDBRANCH  16  17
DOCKED: ENDBRANCH   1  16
DOCKED: TORSDOF 7DOCKED: TER
DOCKED: ENDMDL
________________________________________________________________________________


	BEGINNING GENETIC ALGORITHM DOCKING 94 of 100
Run: 94 Seed: 1425621121 1269558229 [ Run 94 of 100 GA/GALS ]
Beginning LAMARCKIAN GENETIC ALGORITHM (LGA), with a maximum of 2500000 energy evaluations.

Final-Value: -14.059


	FINAL GENETIC ALGORITHM DOCKED STATE
	_______________________________________________


Detailed state:  trans 38.739 15.565 121.264 quatxyzw -0.737908 -0.270076 -0.333146 -0.521119 center 0.154 0.111 -0.146 ntor 7 -10.5630 162.4365 -168.4272 -122.8911 59.4225 -33.8270 -171.3206
State:	 38.739  15.565 121.264  -0.865 -0.316 -0.390 -117.185    -10.56  162.44 -168.43 -122.89   59.42  -33.83 -171.32

DOCKED: MODEL       94
DOCKED: USER    Run = 94
DOCKED: USER    DPF = ligand_dock.biased.dpf
DOCKED: USER  
DOCKED: USER    Estimated Free Energy of Binding    =   -9.46 kcal/mol  [=(1)+(2)+(3)-(4)]
DOCKED: USER    Estimated Inhibition Constant, Ki   =  115.55 nM (nanomolar)  [Temperature = 298.15 K]
DOCKED: USER    
DOCKED: USER    (1) Final Intermolecular Energy     =  -11.55 kcal/mol
DOCKED: USER        vdW + Hbond + desolv Energy     =  -11.55 kcal/mol
DOCKED: USER        Electrostatic Energy            =   +0.00 kcal/mol
DOCKED: USER    (2) Final Total Internal Energy     =   -2.51 kcal/mol
DOCKED: USER    (3) Torsional Free Energy           =   +2.09 kcal/mol
DOCKED: USER    (4) Unbound System's Energy  [=(2)] =   -2.51 kcal/mol
DOCKED: USER    
DOCKED: USER    
DOCKED: USER    NEWDPF move ligand.dum.pdbqt
DOCKED: USER    NEWDPF about 0.154000 0.111000 -0.146000
DOCKED: USER    NEWDPF tran0 38.739484 15.564863 121.264061
DOCKED: USER    NEWDPF quaternion0 -0.737908 -0.270076 -0.333146 -0.521119
DOCKED: USER    NEWDPF axisangle0 -0.864583 -0.316439 -0.390336 -117.185257
DOCKED: USER    NEWDPF quat0 -0.864583 -0.316439 -0.390336 -117.185257
DOCKED: USER    NEWDPF dihe0 -10.56 162.44 -168.43 -122.89 59.42 -33.83 -171.32 
DOCKED: USER  keepresnum = 1 
DOCKED: USER  
DOCKED: REMARK  Name = 
DOCKED: REMARK  7 active torsions:
DOCKED: REMARK  status: ('A' for Active; 'I' for Inactive)
DOCKED: REMARK    1  A    between atoms: C_2  and  C_5
DOCKED: REMARK    2  A    between atoms: N_3  and  O_4
DOCKED: REMARK    3  A    between atoms: C_5  and  C_6
DOCKED: REMARK    4  A    between atoms: C_6  and  C_7
DOCKED: REMARK    5  A    between atoms: C_7  and  C_8
DOCKED: REMARK    6  A    between atoms: C_8  and  C_9
DOCKED: REMARK    7  A    between atoms: C_9  and  N_10
DOCKED: REMARK                            x       y       z     vdW  Elec       q    Type
DOCKED: REMARK                         _______ _______ _______ _____ _____    ______ ____
DOCKED: USER                              x       y       z     vdW  Elec       q    Type
DOCKED: USER                           _______ _______ _______ _____ _____    ______ ____
DOCKED: ROOT
DOCKED: ATOM      1  N   UNL     1      37.569  14.657 121.485 -0.30 -0.00    +0.000 N 
DOCKED: ATOM      2  C   UNL     1      37.775  13.662 120.464 -0.42 -0.00    +0.000 C 
DOCKED: ATOM      3  C   UNL     1      37.338  13.923 119.073 -0.34 -0.00    +0.000 A 
DOCKED: ATOM      4  C   UNL     1      37.558  12.968 118.065 -0.27 -0.00    +0.000 A 
DOCKED: ATOM      5  C   UNL     1      37.149  13.215 116.753 -0.31 -0.00    +0.000 A 
DOCKED: ATOM      6  C   UNL     1      36.515  14.414 116.427 -0.28 -0.00    +0.000 A 
DOCKED: ATOM      7  C   UNL     1      36.284  15.381 117.416 -0.20 -0.00    +0.000 A 
DOCKED: ATOM      8  C   UNL     1      35.645  16.585 117.088 -0.12 -0.00    +0.000 A 
DOCKED: ATOM      9  C   UNL     1      35.413  17.546 118.072 -0.12 -0.00    +0.000 A 
DOCKED: ATOM     10  C   UNL     1      35.814  17.319 119.389 -0.14 -0.00    +0.000 A 
DOCKED: ATOM     11  C   UNL     1      36.457  16.118 119.742 -0.14 -0.00    +0.000 A 
DOCKED: ATOM     12  C   UNL     1      36.696  15.140 118.752 -0.22 -0.00    +0.000 A 
DOCKED: ATOM     13  O   UNL     1      38.328  12.564 120.753 -0.48 -0.00    +0.000 OA
DOCKED: ATOM     14  C   UNL     1      36.884  15.878 121.140 -0.22 -0.00    +0.000 C 
DOCKED: ATOM     15  O   UNL     1      36.645  16.744 122.025 -0.22 -0.00    +0.000 OA
DOCKED: ATOM     16  CM  UNL     1      37.132  14.890 120.147 +0.00 -0.00    +0.000 AC
DOCKED: ATOM     17  CM  UNL     1      36.924  14.174 117.748 +0.00 -0.00    +0.000 AC
DOCKED: ATOM     18  CM  UNL     1      36.051  16.348 118.410 +0.00 -0.00    +0.000 AC
DOCKED: ENDROOT
DOCKED: BRANCH   1  16
DOCKED: ATOM     19  C   UNL     1      38.083  14.436 122.847 -0.46 -0.00    +0.000 C 
DOCKED: BRANCH  16  17
DOCKED: ATOM     20  C   UNL     1      37.004  13.845 123.770 -0.37 -0.00    +0.000 C 
DOCKED: BRANCH  17  18
DOCKED: ATOM     21  C   UNL     1      35.967  12.965 123.046 -0.52 -0.00    +0.000 C 
DOCKED: BRANCH  18  19
DOCKED: ATOM     22  C   UNL     1      35.756  11.570 123.670 -0.57 -0.00    +0.000 C 
DOCKED: BRANCH  19  20
DOCKED: ATOM     23  C   UNL     1      37.032  10.722 123.785 -0.30 -0.00    +0.000 C 
DOCKED: BRANCH  20  22
DOCKED: ATOM     24  O   UNL     1      37.118   8.414 123.168 -1.95 -0.00    +0.000 OA
DOCKED: ATOM     25  C   UNL     1      37.063   9.610 122.775 -0.59 -0.00    +0.000 C 
DOCKED: ATOM     26  N   UNL     1      37.064   9.903 121.376 -0.54 -0.00    +0.000 N 
DOCKED: ATOM     27  H   UNL     1      37.029  10.838 121.072 -0.02 -0.00    +0.000 HD
DOCKED: BRANCH  23  25
DOCKED: ATOM     28  O   UNL     1      37.114   8.902 120.464 -2.36 -0.00    +0.000 OA
DOCKED: ATOM     29  H   UNL     1      37.312   8.065 120.912 -0.12 -0.00    +0.000 HD
DOCKED: ENDBRANCH  23  25
DOCKED: ENDBRANCH  20  22
DOCKED: ENDBRANCH  19  20
DOCKED: ENDBRANCH  18  19
DOCKED: ENDBRANCH  17  18
DOCKED: ENDBRANCH  16  17
DOCKED: ENDBRANCH   1  16
DOCKED: TORSDOF 7DOCKED: TER
DOCKED: ENDMDL
________________________________________________________________________________


	BEGINNING GENETIC ALGORITHM DOCKING 95 of 100
Run: 95 Seed: 1244773347 2129423344 [ Run 95 of 100 GA/GALS ]
Beginning LAMARCKIAN GENETIC ALGORITHM (LGA), with a maximum of 2500000 energy evaluations.

Final-Value: -14.164


	FINAL GENETIC ALGORITHM DOCKED STATE
	_______________________________________________


Detailed state:  trans 38.704 14.197 120.268 quatxyzw 0.647271 -0.131629 0.749809 0.038743 center 0.154 0.111 -0.146 ntor 7 17.2163 -83.5337 -173.0714 -148.8328 -163.2240 -98.2491 12.6040
State:	 38.704  14.197 120.268   0.648 -0.132  0.750 175.559     17.22  -83.53 -173.07 -148.83 -163.22  -98.25   12.60

DOCKED: MODEL       95
DOCKED: USER    Run = 95
DOCKED: USER    DPF = ligand_dock.biased.dpf
DOCKED: USER  
DOCKED: USER    Estimated Free Energy of Binding    =  -10.68 kcal/mol  [=(1)+(2)+(3)-(4)]
DOCKED: USER    Estimated Inhibition Constant, Ki   =   14.73 nM (nanomolar)  [Temperature = 298.15 K]
DOCKED: USER    
DOCKED: USER    (1) Final Intermolecular Energy     =  -12.77 kcal/mol
DOCKED: USER        vdW + Hbond + desolv Energy     =  -12.77 kcal/mol
DOCKED: USER        Electrostatic Energy            =   +0.00 kcal/mol
DOCKED: USER    (2) Final Total Internal Energy     =   -1.39 kcal/mol
DOCKED: USER    (3) Torsional Free Energy           =   +2.09 kcal/mol
DOCKED: USER    (4) Unbound System's Energy  [=(2)] =   -1.39 kcal/mol
DOCKED: USER    
DOCKED: USER    
DOCKED: USER    NEWDPF move ligand.dum.pdbqt
DOCKED: USER    NEWDPF about 0.154000 0.111000 -0.146000
DOCKED: USER    NEWDPF tran0 38.703879 14.196914 120.268085
DOCKED: USER    NEWDPF quaternion0 0.647271 -0.131629 0.749809 0.038743
DOCKED: USER    NEWDPF axisangle0 0.647757 -0.131728 0.750372 175.559262
DOCKED: USER    NEWDPF quat0 0.647757 -0.131728 0.750372 175.559262
DOCKED: USER    NEWDPF dihe0 17.22 -83.53 -173.07 -148.83 -163.22 -98.25 12.60 
DOCKED: USER  keepresnum = 1 
DOCKED: USER  
DOCKED: REMARK  Name = 
DOCKED: REMARK  7 active torsions:
DOCKED: REMARK  status: ('A' for Active; 'I' for Inactive)
DOCKED: REMARK    1  A    between atoms: C_2  and  C_5
DOCKED: REMARK    2  A    between atoms: N_3  and  O_4
DOCKED: REMARK    3  A    between atoms: C_5  and  C_6
DOCKED: REMARK    4  A    between atoms: C_6  and  C_7
DOCKED: REMARK    5  A    between atoms: C_7  and  C_8
DOCKED: REMARK    6  A    between atoms: C_8  and  C_9
DOCKED: REMARK    7  A    between atoms: C_9  and  N_10
DOCKED: REMARK                            x       y       z     vdW  Elec       q    Type
DOCKED: REMARK                         _______ _______ _______ _____ _____    ______ ____
DOCKED: USER                              x       y       z     vdW  Elec       q    Type
DOCKED: USER                           _______ _______ _______ _____ _____    ______ ____
DOCKED: ROOT
DOCKED: ATOM      1  N   UNL     1      37.745  15.202 119.707 -0.21 -0.00    +0.000 N 
DOCKED: ATOM      2  C   UNL     1      37.090  14.437 118.677 -0.32 -0.00    +0.000 C 
DOCKED: ATOM      3  C   UNL     1      37.730  14.275 117.352 -0.28 -0.00    +0.000 A 
DOCKED: ATOM      4  C   UNL     1      37.111  13.509 116.349 -0.34 -0.00    +0.000 A 
DOCKED: ATOM      5  C   UNL     1      37.714  13.354 115.100 -0.41 -0.00    +0.000 A 
DOCKED: ATOM      6  C   UNL     1      38.942  13.959 114.832 -0.30 -0.00    +0.000 A 
DOCKED: ATOM      7  C   UNL     1      39.579  14.728 115.816 -0.31 -0.00    +0.000 A 
DOCKED: ATOM      8  C   UNL     1      40.813  15.337 115.545 -0.28 -0.00    +0.000 A 
DOCKED: ATOM      9  C   UNL     1      41.445  16.104 116.523 -0.22 -0.00    +0.000 A 
DOCKED: ATOM     10  C   UNL     1      40.858  16.272 117.777 -0.14 -0.00    +0.000 A 
DOCKED: ATOM     11  C   UNL     1      39.621  15.671 118.073 -0.11 -0.00    +0.000 A 
DOCKED: ATOM     12  C   UNL     1      38.974  14.892 117.088 -0.15 -0.00    +0.000 A 
DOCKED: ATOM     13  O   UNL     1      35.968  13.904 118.903 -0.30 -0.00    +0.000 OA
DOCKED: ATOM     14  C   UNL     1      38.999  15.848 119.405 -0.17 -0.00    +0.000 C 
DOCKED: ATOM     15  O   UNL     1      39.569  16.565 120.272 -0.13 -0.00    +0.000 OA
DOCKED: ATOM     16  CM  UNL     1      38.343  15.058 118.420 +0.00 -0.00    +0.000 AC
DOCKED: ATOM     17  CM  UNL     1      38.342  14.119 116.089 +0.00 -0.00    +0.000 AC
DOCKED: ATOM     18  CM  UNL     1      40.215  15.501 116.803 +0.00 -0.00    +0.000 AC
DOCKED: ENDROOT
DOCKED: BRANCH   1  16
DOCKED: ATOM     19  C   UNL     1      37.154  15.289 121.053 -0.26 -0.00    +0.000 C 
DOCKED: BRANCH  16  17
DOCKED: ATOM     20  C   UNL     1      37.633  14.139 121.955 -0.44 -0.00    +0.000 C 
DOCKED: BRANCH  17  18
DOCKED: ATOM     21  C   UNL     1      37.858  12.806 121.214 -0.46 -0.00    +0.000 C 
DOCKED: BRANCH  18  19
DOCKED: ATOM     22  C   UNL     1      36.653  11.843 121.237 -0.50 -0.00    +0.000 C 
DOCKED: BRANCH  19  20
DOCKED: ATOM     23  C   UNL     1      36.539  10.992 122.512 -0.67 -0.00    +0.000 C 
DOCKED: BRANCH  20  22
DOCKED: ATOM     24  O   UNL     1      36.990   9.147 121.061 -2.71 -0.00    +0.000 OA
DOCKED: ATOM     25  C   UNL     1      36.813   9.540 122.246 -0.68 -0.00    +0.000 C 
DOCKED: ATOM     26  N   UNL     1      36.839   8.599 123.322 -0.66 -0.00    +0.000 N 
DOCKED: ATOM     27  H   UNL     1      36.693   8.907 124.244 -0.43 -0.00    +0.000 HD
DOCKED: BRANCH  23  25
DOCKED: ATOM     28  O   UNL     1      37.063   7.285 123.081 -2.11 -0.00    +0.000 OA
DOCKED: ATOM     29  H   UNL     1      37.450   7.179 122.197 -0.18 -0.00    +0.000 HD
DOCKED: ENDBRANCH  23  25
DOCKED: ENDBRANCH  20  22
DOCKED: ENDBRANCH  19  20
DOCKED: ENDBRANCH  18  19
DOCKED: ENDBRANCH  17  18
DOCKED: ENDBRANCH  16  17
DOCKED: ENDBRANCH   1  16
DOCKED: TORSDOF 7DOCKED: TER
DOCKED: ENDMDL
________________________________________________________________________________


	BEGINNING GENETIC ALGORITHM DOCKING 96 of 100
Run: 96 Seed: 1910455993 1743553919 [ Run 96 of 100 GA/GALS ]
Beginning LAMARCKIAN GENETIC ALGORITHM (LGA), with a maximum of 2500000 energy evaluations.

Final-Value: -15.074


	FINAL GENETIC ALGORITHM DOCKED STATE
	_______________________________________________


Detailed state:  trans 37.985 14.787 124.464 quatxyzw -0.349830 0.155795 0.450644 0.806391 center 0.154 0.111 -0.146 ntor 7 84.5562 -98.0803 -151.5420 -164.3955 35.3301 154.8362 166.6015
State:	 37.985  14.787 124.464  -0.592  0.263  0.762 72.510     84.56  -98.08 -151.54 -164.40   35.33  154.84  166.60

DOCKED: MODEL       96
DOCKED: USER    Run = 96
DOCKED: USER    DPF = ligand_dock.biased.dpf
DOCKED: USER  
DOCKED: USER    Estimated Free Energy of Binding    =  -12.05 kcal/mol  [=(1)+(2)+(3)-(4)]
DOCKED: USER    Estimated Inhibition Constant, Ki   =    1.48 nM (nanomolar)  [Temperature = 298.15 K]
DOCKED: USER    
DOCKED: USER    (1) Final Intermolecular Energy     =  -14.14 kcal/mol
DOCKED: USER        vdW + Hbond + desolv Energy     =  -14.14 kcal/mol
DOCKED: USER        Electrostatic Energy            =   +0.00 kcal/mol
DOCKED: USER    (2) Final Total Internal Energy     =   -0.94 kcal/mol
DOCKED: USER    (3) Torsional Free Energy           =   +2.09 kcal/mol
DOCKED: USER    (4) Unbound System's Energy  [=(2)] =   -0.94 kcal/mol
DOCKED: USER    
DOCKED: USER    
DOCKED: USER    NEWDPF move ligand.dum.pdbqt
DOCKED: USER    NEWDPF about 0.154000 0.111000 -0.146000
DOCKED: USER    NEWDPF tran0 37.984826 14.787205 124.463746
DOCKED: USER    NEWDPF quaternion0 -0.349830 0.155795 0.450644 0.806391
DOCKED: USER    NEWDPF axisangle0 -0.591546 0.263442 0.762018 72.510328
DOCKED: USER    NEWDPF quat0 -0.591546 0.263442 0.762018 72.510328
DOCKED: USER    NEWDPF dihe0 84.56 -98.08 -151.54 -164.40 35.33 154.84 166.60 
DOCKED: USER  keepresnum = 1 
DOCKED: USER  
DOCKED: REMARK  Name = 
DOCKED: REMARK  7 active torsions:
DOCKED: REMARK  status: ('A' for Active; 'I' for Inactive)
DOCKED: REMARK    1  A    between atoms: C_2  and  C_5
DOCKED: REMARK    2  A    between atoms: N_3  and  O_4
DOCKED: REMARK    3  A    between atoms: C_5  and  C_6
DOCKED: REMARK    4  A    between atoms: C_6  and  C_7
DOCKED: REMARK    5  A    between atoms: C_7  and  C_8
DOCKED: REMARK    6  A    between atoms: C_8  and  C_9
DOCKED: REMARK    7  A    between atoms: C_9  and  N_10
DOCKED: REMARK                            x       y       z     vdW  Elec       q    Type
DOCKED: REMARK                         _______ _______ _______ _____ _____    ______ ____
DOCKED: USER                              x       y       z     vdW  Elec       q    Type
DOCKED: USER                           _______ _______ _______ _____ _____    ______ ____
DOCKED: ROOT
DOCKED: ATOM      1  N   UNL     1      37.861  15.542 123.175 -0.33 -0.00    +0.000 N 
DOCKED: ATOM      2  C   UNL     1      38.506  16.787 123.504 -0.26 -0.00    +0.000 C 
DOCKED: ATOM      3  C   UNL     1      37.757  17.845 124.221 -0.18 -0.00    +0.000 A 
DOCKED: ATOM      4  C   UNL     1      38.386  19.054 124.569 -0.13 -0.00    +0.000 A 
DOCKED: ATOM      5  C   UNL     1      37.682  20.050 125.247 -0.09 -0.00    +0.000 A 
DOCKED: ATOM      6  C   UNL     1      36.343  19.858 125.588 -0.13 -0.00    +0.000 A 
DOCKED: ATOM      7  C   UNL     1      35.695  18.661 125.252 -0.21 -0.00    +0.000 A 
DOCKED: ATOM      8  C   UNL     1      34.348  18.468 125.594 -0.29 -0.00    +0.000 A 
DOCKED: ATOM      9  C   UNL     1      33.703  17.280 125.258 -0.29 -0.00    +0.000 A 
DOCKED: ATOM     10  C   UNL     1      34.389  16.272 124.579 -0.48 -0.00    +0.000 A 
DOCKED: ATOM     11  C   UNL     1      35.739  16.441 124.225 -0.34 -0.00    +0.000 A 
DOCKED: ATOM     12  C   UNL     1      36.401  17.642 124.563 -0.21 -0.00    +0.000 A 
DOCKED: ATOM     13  O   UNL     1      39.711  16.979 123.180 -0.27 -0.00    +0.000 OA
DOCKED: ATOM     14  C   UNL     1      36.468  15.370 123.507 -0.43 -0.00    +0.000 C 
DOCKED: ATOM     15  O   UNL     1      35.865  14.310 123.185 -0.53 -0.00    +0.000 OA
DOCKED: ATOM     16  CM  UNL     1      37.142  16.576 123.847 +0.00 -0.00    +0.000 AC
DOCKED: ATOM     17  CM  UNL     1      37.044  18.851 124.907 -0.00 -0.00    +0.000 AC
DOCKED: ATOM     18  CM  UNL     1      35.045  17.461 124.912 -0.44 -0.00    +0.000 AC
DOCKED: ENDROOT
DOCKED: BRANCH   1  16
DOCKED: ATOM     19  C   UNL     1      38.628  14.456 122.544 -0.45 -0.00    +0.000 C 
DOCKED: BRANCH  16  17
DOCKED: ATOM     20  C   UNL     1      38.084  14.118 121.145 -0.39 -0.00    +0.000 C 
DOCKED: BRANCH  17  18
DOCKED: ATOM     21  C   UNL     1      38.085  12.613 120.813 -0.42 -0.00    +0.000 C 
DOCKED: BRANCH  18  19
DOCKED: ATOM     22  C   UNL     1      36.700  11.937 120.877 -0.40 -0.00    +0.000 C 
DOCKED: BRANCH  19  20
DOCKED: ATOM     23  C   UNL     1      36.415  11.187 122.188 -0.64 -0.00    +0.000 C 
DOCKED: BRANCH  20  22
DOCKED: ATOM     24  O   UNL     1      37.038   9.206 121.006 -2.73 -0.00    +0.000 OA
DOCKED: ATOM     25  C   UNL     1      36.862   9.755 122.127 -0.64 -0.00    +0.000 C 
DOCKED: ATOM     26  N   UNL     1      37.056   9.004 123.328 -0.62 -0.00    +0.000 N 
DOCKED: ATOM     27  H   UNL     1      36.910   9.433 124.201 -0.54 -0.00    +0.000 HD
DOCKED: BRANCH  23  25
DOCKED: ATOM     28  O   UNL     1      37.437   7.705 123.274 -2.16 -0.00    +0.000 OA
DOCKED: ATOM     29  H   UNL     1      38.403   7.654 123.194 -0.53 -0.00    +0.000 HD
DOCKED: ENDBRANCH  23  25
DOCKED: ENDBRANCH  20  22
DOCKED: ENDBRANCH  19  20
DOCKED: ENDBRANCH  18  19
DOCKED: ENDBRANCH  17  18
DOCKED: ENDBRANCH  16  17
DOCKED: ENDBRANCH   1  16
DOCKED: TORSDOF 7DOCKED: TER
DOCKED: ENDMDL
________________________________________________________________________________


	BEGINNING GENETIC ALGORITHM DOCKING 97 of 100
Run: 97 Seed: 809723897 1966837827 [ Run 97 of 100 GA/GALS ]
Beginning LAMARCKIAN GENETIC ALGORITHM (LGA), with a maximum of 2500000 energy evaluations.

Final-Value: -14.172


	FINAL GENETIC ALGORITHM DOCKED STATE
	_______________________________________________


Detailed state:  trans 39.539 16.979 121.337 quatxyzw 0.231520 0.901421 0.278813 0.236859 center 0.154 0.111 -0.146 ntor 7 92.9963 -155.1186 165.9428 88.0524 40.2560 171.0307 -155.6790
State:	 39.539  16.979 121.337   0.238  0.928  0.287 152.597     93.00 -155.12  165.94   88.05   40.26  171.03 -155.68

DOCKED: MODEL       97
DOCKED: USER    Run = 97
DOCKED: USER    DPF = ligand_dock.biased.dpf
DOCKED: USER  
DOCKED: USER    Estimated Free Energy of Binding    =  -11.29 kcal/mol  [=(1)+(2)+(3)-(4)]
DOCKED: USER    Estimated Inhibition Constant, Ki   =    5.28 nM (nanomolar)  [Temperature = 298.15 K]
DOCKED: USER    
DOCKED: USER    (1) Final Intermolecular Energy     =  -13.38 kcal/mol
DOCKED: USER        vdW + Hbond + desolv Energy     =  -13.38 kcal/mol
DOCKED: USER        Electrostatic Energy            =   +0.00 kcal/mol
DOCKED: USER    (2) Final Total Internal Energy     =   -0.79 kcal/mol
DOCKED: USER    (3) Torsional Free Energy           =   +2.09 kcal/mol
DOCKED: USER    (4) Unbound System's Energy  [=(2)] =   -0.79 kcal/mol
DOCKED: USER    
DOCKED: USER    
DOCKED: USER    NEWDPF move ligand.dum.pdbqt
DOCKED: USER    NEWDPF about 0.154000 0.111000 -0.146000
DOCKED: USER    NEWDPF tran0 39.539122 16.979167 121.337209
DOCKED: USER    NEWDPF quaternion0 0.231520 0.901421 0.278813 0.236859
DOCKED: USER    NEWDPF axisangle0 0.238301 0.927823 0.286979 152.597495
DOCKED: USER    NEWDPF quat0 0.238301 0.927823 0.286979 152.597495
DOCKED: USER    NEWDPF dihe0 93.00 -155.12 165.94 88.05 40.26 171.03 -155.68 
DOCKED: USER  keepresnum = 1 
DOCKED: USER  
DOCKED: REMARK  Name = 
DOCKED: REMARK  7 active torsions:
DOCKED: REMARK  status: ('A' for Active; 'I' for Inactive)
DOCKED: REMARK    1  A    between atoms: C_2  and  C_5
DOCKED: REMARK    2  A    between atoms: N_3  and  O_4
DOCKED: REMARK    3  A    between atoms: C_5  and  C_6
DOCKED: REMARK    4  A    between atoms: C_6  and  C_7
DOCKED: REMARK    5  A    between atoms: C_7  and  C_8
DOCKED: REMARK    6  A    between atoms: C_8  and  C_9
DOCKED: REMARK    7  A    between atoms: C_9  and  N_10
DOCKED: REMARK                            x       y       z     vdW  Elec       q    Type
DOCKED: REMARK                         _______ _______ _______ _____ _____    ______ ____
DOCKED: USER                              x       y       z     vdW  Elec       q    Type
DOCKED: USER                           _______ _______ _______ _____ _____    ______ ____
DOCKED: ROOT
DOCKED: ATOM      1  N   UNL     1      39.969  15.561 121.561 -0.27 -0.00    +0.000 N 
DOCKED: ATOM      2  C   UNL     1      41.306  15.739 122.069 -0.41 -0.00    +0.000 C 
DOCKED: ATOM      3  C   UNL     1      42.433  15.957 121.133 -0.26 -0.00    +0.000 A 
DOCKED: ATOM      4  C   UNL     1      43.737  16.157 121.620 -0.23 -0.00    +0.000 A 
DOCKED: ATOM      5  C   UNL     1      44.799  16.365 120.739 -0.22 +0.00    +0.000 A 
DOCKED: ATOM      6  C   UNL     1      44.579  16.376 119.361 -0.17 -0.00    +0.000 A 
DOCKED: ATOM      7  C   UNL     1      43.288  16.179 118.852 -0.19 -0.00    +0.000 A 
DOCKED: ATOM      8  C   UNL     1      43.067  16.189 117.467 -0.22 -0.00    +0.000 A 
DOCKED: ATOM      9  C   UNL     1      41.784  15.990 116.960 -0.23 -0.00    +0.000 A 
DOCKED: ATOM     10  C   UNL     1      40.709  15.780 117.824 -0.10 -0.00    +0.000 A 
DOCKED: ATOM     11  C   UNL     1      40.904  15.766 119.217 -0.00 -0.00    +0.000 A 
DOCKED: ATOM     12  C   UNL     1      42.201  15.966 119.739 -0.12 -0.00    +0.000 A 
DOCKED: ATOM     13  O   UNL     1      41.518  15.709 123.312 -1.01 +0.00    +0.000 OA
DOCKED: ATOM     14  C   UNL     1      39.763  15.544 120.134 -0.19 -0.00    +0.000 C 
DOCKED: ATOM     15  O   UNL     1      38.611  15.340 119.662 -0.21 -0.00    +0.000 OA
DOCKED: ATOM     16  CM  UNL     1      41.065  15.750 120.667 +0.00 -0.00    +0.000 AC
DOCKED: ATOM     17  CM  UNL     1      43.506  16.167 120.241 +0.00 -0.00    +0.000 AC
DOCKED: ATOM     18  CM  UNL     1      41.992  15.978 118.343 +0.00 -0.00    +0.000 AC
DOCKED: ENDROOT
DOCKED: BRANCH   1  16
DOCKED: ATOM     19  C   UNL     1      38.835  15.436 122.492 -0.35 -0.00    +0.000 C 
DOCKED: BRANCH  16  17
DOCKED: ATOM     20  C   UNL     1      38.735  14.014 123.072 -0.31 -0.00    +0.000 C 
DOCKED: BRANCH  17  18
DOCKED: ATOM     21  C   UNL     1      37.363  13.344 122.867 -0.56 -0.00    +0.000 C 
DOCKED: BRANCH  18  19
DOCKED: ATOM     22  C   UNL     1      37.355  12.186 121.848 -0.51 -0.00    +0.000 C 
DOCKED: BRANCH  19  20
DOCKED: ATOM     23  C   UNL     1      36.246  11.146 122.072 -0.62 -0.00    +0.000 C 
DOCKED: BRANCH  20  22
DOCKED: ATOM     24  O   UNL     1      37.036   9.211 120.912 -2.73 -0.00    +0.000 OA
DOCKED: ATOM     25  C   UNL     1      36.775   9.741 122.025 -0.66 -0.00    +0.000 C 
DOCKED: ATOM     26  N   UNL     1      36.950   8.992 123.231 -0.64 -0.00    +0.000 N 
DOCKED: ATOM     27  H   UNL     1      36.736   9.406 124.098 -0.48 -0.00    +0.000 HD
DOCKED: BRANCH  23  25
DOCKED: ATOM     28  O   UNL     1      37.405   7.717 123.189 -2.18 -0.00    +0.000 OA
DOCKED: ATOM     29  H   UNL     1      38.370   7.714 123.292 -0.52 -0.00    +0.000 HD
DOCKED: ENDBRANCH  23  25
DOCKED: ENDBRANCH  20  22
DOCKED: ENDBRANCH  19  20
DOCKED: ENDBRANCH  18  19
DOCKED: ENDBRANCH  17  18
DOCKED: ENDBRANCH  16  17
DOCKED: ENDBRANCH   1  16
DOCKED: TORSDOF 7DOCKED: TER
DOCKED: ENDMDL
________________________________________________________________________________


	BEGINNING GENETIC ALGORITHM DOCKING 98 of 100
Run: 98 Seed: 1009397085 1567802138 [ Run 98 of 100 GA/GALS ]
Beginning LAMARCKIAN GENETIC ALGORITHM (LGA), with a maximum of 2500000 energy evaluations.

Final-Value: -14.713


	FINAL GENETIC ALGORITHM DOCKED STATE
	_______________________________________________


Detailed state:  trans 36.062 17.103 122.518 quatxyzw -0.538652 0.645648 0.204732 -0.501076 center 0.154 0.111 -0.146 ntor 7 7.3629 -174.1650 -175.7651 -133.2220 -155.1759 170.6174 -135.7978
State:	 36.062  17.103 122.518  -0.622  0.746  0.237 -119.858      7.36 -174.17 -175.77 -133.22 -155.18  170.62 -135.80

DOCKED: MODEL       98
DOCKED: USER    Run = 98
DOCKED: USER    DPF = ligand_dock.biased.dpf
DOCKED: USER  
DOCKED: USER    Estimated Free Energy of Binding    =  -11.46 kcal/mol  [=(1)+(2)+(3)-(4)]
DOCKED: USER    Estimated Inhibition Constant, Ki   =    3.95 nM (nanomolar)  [Temperature = 298.15 K]
DOCKED: USER    
DOCKED: USER    (1) Final Intermolecular Energy     =  -13.55 kcal/mol
DOCKED: USER        vdW + Hbond + desolv Energy     =  -13.55 kcal/mol
DOCKED: USER        Electrostatic Energy            =   +0.00 kcal/mol
DOCKED: USER    (2) Final Total Internal Energy     =   -1.16 kcal/mol
DOCKED: USER    (3) Torsional Free Energy           =   +2.09 kcal/mol
DOCKED: USER    (4) Unbound System's Energy  [=(2)] =   -1.16 kcal/mol
DOCKED: USER    
DOCKED: USER    
DOCKED: USER    NEWDPF move ligand.dum.pdbqt
DOCKED: USER    NEWDPF about 0.154000 0.111000 -0.146000
DOCKED: USER    NEWDPF tran0 36.061946 17.102772 122.518152
DOCKED: USER    NEWDPF quaternion0 -0.538652 0.645648 0.204732 -0.501076
DOCKED: USER    NEWDPF axisangle0 -0.622430 0.746066 0.236574 -119.857521
DOCKED: USER    NEWDPF quat0 -0.622430 0.746066 0.236574 -119.857521
DOCKED: USER    NEWDPF dihe0 7.36 -174.17 -175.77 -133.22 -155.18 170.62 -135.80 
DOCKED: USER  keepresnum = 1 
DOCKED: USER  
DOCKED: REMARK  Name = 
DOCKED: REMARK  7 active torsions:
DOCKED: REMARK  status: ('A' for Active; 'I' for Inactive)
DOCKED: REMARK    1  A    between atoms: C_2  and  C_5
DOCKED: REMARK    2  A    between atoms: N_3  and  O_4
DOCKED: REMARK    3  A    between atoms: C_5  and  C_6
DOCKED: REMARK    4  A    between atoms: C_6  and  C_7
DOCKED: REMARK    5  A    between atoms: C_7  and  C_8
DOCKED: REMARK    6  A    between atoms: C_8  and  C_9
DOCKED: REMARK    7  A    between atoms: C_9  and  N_10
DOCKED: REMARK                            x       y       z     vdW  Elec       q    Type
DOCKED: REMARK                         _______ _______ _______ _____ _____    ______ ____
DOCKED: USER                              x       y       z     vdW  Elec       q    Type
DOCKED: USER                           _______ _______ _______ _____ _____    ______ ____
DOCKED: ROOT
DOCKED: ATOM      1  N   UNL     1      36.166  16.230 123.731 -0.35 -0.00    +0.000 N 
DOCKED: ATOM      2  C   UNL     1      34.866  16.404 124.328 -0.50 -0.00    +0.000 C 
DOCKED: ATOM      3  C   UNL     1      34.591  17.587 125.175 -0.35 -0.00    +0.000 A 
DOCKED: ATOM      4  C   UNL     1      33.318  17.779 125.741 -0.19 -0.00    +0.000 A 
DOCKED: ATOM      5  C   UNL     1      33.056  18.895 126.538 -0.26 -0.00    +0.000 A 
DOCKED: ATOM      6  C   UNL     1      34.058  19.834 126.783 -0.16 -0.00    +0.000 A 
DOCKED: ATOM      7  C   UNL     1      35.335  19.665 126.230 -0.15 -0.00    +0.000 A 
DOCKED: ATOM      8  C   UNL     1      36.341  20.609 126.478 -0.08 -0.00    +0.000 A 
DOCKED: ATOM      9  C   UNL     1      37.612  20.439 125.931 -0.07 -0.00    +0.000 A 
DOCKED: ATOM     10  C   UNL     1      37.894  19.330 125.132 -0.12 -0.00    +0.000 A 
DOCKED: ATOM     11  C   UNL     1      36.901  18.369 124.869 -0.17 -0.00    +0.000 A 
DOCKED: ATOM     12  C   UNL     1      35.611  18.534 125.419 -0.21 -0.00    +0.000 A 
DOCKED: ATOM     13  O   UNL     1      33.960  15.548 124.130 -0.66 -0.00    +0.000 OA
DOCKED: ATOM     14  C   UNL     1      37.200  17.193 124.020 -0.23 -0.00    +0.000 C 
DOCKED: ATOM     15  O   UNL     1      38.361  17.037 123.551 -0.27 -0.00    +0.000 OA
DOCKED: ATOM     16  CM  UNL     1      35.897  17.355 124.567 -0.19 -0.00    +0.000 AC
DOCKED: ATOM     17  CM  UNL     1      34.328  18.716 125.981 -0.12 -0.00    +0.000 AC
DOCKED: ATOM     18  CM  UNL     1      36.616  19.491 125.677 -0.00 -0.00    +0.000 AC
DOCKED: ENDROOT
DOCKED: BRANCH   1  16
DOCKED: ATOM     19  C   UNL     1      36.414  15.103 122.816 -0.40 -0.00    +0.000 C 
DOCKED: BRANCH  16  17
DOCKED: ATOM     20  C   UNL     1      36.177  13.750 123.508 -0.57 -0.00    +0.000 C 
DOCKED: BRANCH  17  18
DOCKED: ATOM     21  C   UNL     1      37.372  12.781 123.428 -0.59 -0.00    +0.000 C 
DOCKED: BRANCH  18  19
DOCKED: ATOM     22  C   UNL     1      37.418  11.917 122.151 -0.44 -0.00    +0.000 C 
DOCKED: BRANCH  19  20
DOCKED: ATOM     23  C   UNL     1      36.283  10.887 122.036 -0.61 -0.00    +0.000 C 
DOCKED: BRANCH  20  22
DOCKED: ATOM     24  O   UNL     1      37.015   8.839 121.045 -2.69 -0.00    +0.000 OA
DOCKED: ATOM     25  C   UNL     1      36.793   9.476 122.109 -0.68 -0.00    +0.000 C 
DOCKED: ATOM     26  N   UNL     1      36.995   8.844 123.376 -0.62 -0.00    +0.000 N 
DOCKED: ATOM     27  H   UNL     1      36.813   9.342 124.204 -0.51 -0.00    +0.000 HD
DOCKED: BRANCH  23  25
DOCKED: ATOM     28  O   UNL     1      37.433   7.564 123.444 -2.10 -0.00    +0.000 OA
DOCKED: ATOM     29  H   UNL     1      37.674   7.257 122.555 -0.27 -0.00    +0.000 HD
DOCKED: ENDBRANCH  23  25
DOCKED: ENDBRANCH  20  22
DOCKED: ENDBRANCH  19  20
DOCKED: ENDBRANCH  18  19
DOCKED: ENDBRANCH  17  18
DOCKED: ENDBRANCH  16  17
DOCKED: ENDBRANCH   1  16
DOCKED: TORSDOF 7DOCKED: TER
DOCKED: ENDMDL
________________________________________________________________________________


	BEGINNING GENETIC ALGORITHM DOCKING 99 of 100
Run: 99 Seed: 1174187160 1110098158 [ Run 99 of 100 GA/GALS ]
Beginning LAMARCKIAN GENETIC ALGORITHM (LGA), with a maximum of 2500000 energy evaluations.

Final-Value: -14.907


	FINAL GENETIC ALGORITHM DOCKED STATE
	_______________________________________________


Detailed state:  trans 37.778 16.243 121.823 quatxyzw 0.082063 -0.970322 0.128137 0.187940 center 0.154 0.111 -0.146 ntor 7 12.1854 77.2994 138.7232 179.3756 77.0216 166.7350 156.8062
State:	 37.778  16.243 121.823   0.084 -0.988  0.130 158.335     12.19   77.30  138.72  179.38   77.02  166.73  156.81

DOCKED: MODEL       99
DOCKED: USER    Run = 99
DOCKED: USER    DPF = ligand_dock.biased.dpf
DOCKED: USER  
DOCKED: USER    Estimated Free Energy of Binding    =  -11.58 kcal/mol  [=(1)+(2)+(3)-(4)]
DOCKED: USER    Estimated Inhibition Constant, Ki   =    3.23 nM (nanomolar)  [Temperature = 298.15 K]
DOCKED: USER    
DOCKED: USER    (1) Final Intermolecular Energy     =  -13.67 kcal/mol
DOCKED: USER        vdW + Hbond + desolv Energy     =  -13.67 kcal/mol
DOCKED: USER        Electrostatic Energy            =   +0.00 kcal/mol
DOCKED: USER    (2) Final Total Internal Energy     =   -1.23 kcal/mol
DOCKED: USER    (3) Torsional Free Energy           =   +2.09 kcal/mol
DOCKED: USER    (4) Unbound System's Energy  [=(2)] =   -1.23 kcal/mol
DOCKED: USER    
DOCKED: USER    
DOCKED: USER    NEWDPF move ligand.dum.pdbqt
DOCKED: USER    NEWDPF about 0.154000 0.111000 -0.146000
DOCKED: USER    NEWDPF tran0 37.777653 16.242638 121.822830
DOCKED: USER    NEWDPF quaternion0 0.082063 -0.970322 0.128137 0.187940
DOCKED: USER    NEWDPF axisangle0 0.083552 -0.987926 0.130462 158.334854
DOCKED: USER    NEWDPF quat0 0.083552 -0.987926 0.130462 158.334854
DOCKED: USER    NEWDPF dihe0 12.19 77.30 138.72 179.38 77.02 166.73 156.81 
DOCKED: USER  keepresnum = 1 
DOCKED: USER  
DOCKED: REMARK  Name = 
DOCKED: REMARK  7 active torsions:
DOCKED: REMARK  status: ('A' for Active; 'I' for Inactive)
DOCKED: REMARK    1  A    between atoms: C_2  and  C_5
DOCKED: REMARK    2  A    between atoms: N_3  and  O_4
DOCKED: REMARK    3  A    between atoms: C_5  and  C_6
DOCKED: REMARK    4  A    between atoms: C_6  and  C_7
DOCKED: REMARK    5  A    between atoms: C_7  and  C_8
DOCKED: REMARK    6  A    between atoms: C_8  and  C_9
DOCKED: REMARK    7  A    between atoms: C_9  and  N_10
DOCKED: REMARK                            x       y       z     vdW  Elec       q    Type
DOCKED: REMARK                         _______ _______ _______ _____ _____    ______ ____
DOCKED: USER                              x       y       z     vdW  Elec       q    Type
DOCKED: USER                           _______ _______ _______ _____ _____    ______ ____
DOCKED: ROOT
DOCKED: ATOM      1  N   UNL     1      37.974  15.935 123.276 -0.30 -0.00    +0.000 N 
DOCKED: ATOM      2  C   UNL     1      38.251  17.242 123.815 -0.24 -0.00    +0.000 C 
DOCKED: ATOM      3  C   UNL     1      39.617  17.808 123.727 -0.21 -0.00    +0.000 A 
DOCKED: ATOM      4  C   UNL     1      39.892  19.093 124.227 -0.14 -0.00    +0.000 A 
DOCKED: ATOM      5  C   UNL     1      41.178  19.628 124.142 -0.12 -0.00    +0.000 A 
DOCKED: ATOM      6  C   UNL     1      42.209  18.891 123.559 -0.11 -0.00    +0.000 A 
DOCKED: ATOM      7  C   UNL     1      41.960  17.607 123.053 -0.27 -0.00    +0.000 A 
DOCKED: ATOM      8  C   UNL     1      42.997  16.867 122.468 -0.33 -0.00    +0.000 A 
DOCKED: ATOM      9  C   UNL     1      42.751  15.589 121.968 -0.31 -0.00    +0.000 A 
DOCKED: ATOM     10  C   UNL     1      41.472  15.037 122.043 -0.38 -0.00    +0.000 A 
DOCKED: ATOM     11  C   UNL     1      40.415  15.760 122.625 -0.34 -0.00    +0.000 A 
DOCKED: ATOM     12  C   UNL     1      40.656  17.055 123.135 -0.27 -0.00    +0.000 A 
DOCKED: ATOM     13  O   UNL     1      37.330  17.907 124.365 -0.24 -0.00    +0.000 OA
DOCKED: ATOM     14  C   UNL     1      39.057  15.174 122.704 -0.38 -0.00    +0.000 C 
DOCKED: ATOM     15  O   UNL     1      38.853  14.007 122.271 -0.67 -0.00    +0.000 OA
DOCKED: ATOM     16  CM  UNL     1      39.292  16.480 123.215 +0.00 -0.00    +0.000 AC
DOCKED: ATOM     17  CM  UNL     1      40.919  18.347 123.640 +0.00 -0.00    +0.000 AC
DOCKED: ATOM     18  CM  UNL     1      41.709  16.319 122.549 +0.00 -0.00    +0.000 AC
DOCKED: ENDROOT
DOCKED: BRANCH   1  16
DOCKED: ATOM     19  C   UNL     1      36.599  15.410 123.281 -0.41 -0.00    +0.000 C 
DOCKED: BRANCH  16  17
DOCKED: ATOM     20  C   UNL     1      36.529  14.018 123.932 -0.39 -0.00    +0.000 C 
DOCKED: BRANCH  17  18
DOCKED: ATOM     21  C   UNL     1      35.791  12.962 123.086 -0.39 -0.00    +0.000 C 
DOCKED: BRANCH  18  19
DOCKED: ATOM     22  C   UNL     1      36.348  11.529 123.211 -0.70 -0.00    +0.000 C 
DOCKED: BRANCH  19  20
DOCKED: ATOM     23  C   UNL     1      36.970  10.970 121.921 -0.56 -0.00    +0.000 C 
DOCKED: BRANCH  20  22
DOCKED: ATOM     24  O   UNL     1      37.064   8.841 120.841 -2.72 -0.00    +0.000 OA
DOCKED: ATOM     25  C   UNL     1      37.037   9.470 121.932 -0.63 -0.00    +0.000 C 
DOCKED: ATOM     26  N   UNL     1      37.035   8.754 123.170 -0.68 -0.00    +0.000 N 
DOCKED: ATOM     27  H   UNL     1      37.005   9.248 124.020 -0.52 -0.00    +0.000 HD
DOCKED: BRANCH  23  25
DOCKED: ATOM     28  O   UNL     1      37.072   7.400 123.181 -2.17 -0.00    +0.000 OA
DOCKED: ATOM     29  H   UNL     1      37.291   7.075 122.293 -0.17 -0.00    +0.000 HD
DOCKED: ENDBRANCH  23  25
DOCKED: ENDBRANCH  20  22
DOCKED: ENDBRANCH  19  20
DOCKED: ENDBRANCH  18  19
DOCKED: ENDBRANCH  17  18
DOCKED: ENDBRANCH  16  17
DOCKED: ENDBRANCH   1  16
DOCKED: TORSDOF 7DOCKED: TER
DOCKED: ENDMDL
________________________________________________________________________________


	BEGINNING GENETIC ALGORITHM DOCKING 100 of 100
Run: 100 Seed: 370489569 2137413278 [ Run 100 of 100 GA/GALS ]
Beginning LAMARCKIAN GENETIC ALGORITHM (LGA), with a maximum of 2500000 energy evaluations.

Final-Value: -14.035


	FINAL GENETIC ALGORITHM DOCKED STATE
	_______________________________________________


Detailed state:  trans 35.591 10.797 121.227 quatxyzw 0.548200 -0.815883 -0.181342 -0.030431 center 0.154 0.111 -0.146 ntor 7 -22.2687 54.3231 46.3731 -160.8338 -172.8973 167.4726 -13.3764
State:	 35.591  10.797 121.227   0.548 -0.816 -0.181 -176.512    -22.27   54.32   46.37 -160.83 -172.90  167.47  -13.38

DOCKED: MODEL      100
DOCKED: USER    Run = 100
DOCKED: USER    DPF = ligand_dock.biased.dpf
DOCKED: USER  
DOCKED: USER    Estimated Free Energy of Binding    =  -10.70 kcal/mol  [=(1)+(2)+(3)-(4)]
DOCKED: USER    Estimated Inhibition Constant, Ki   =   14.33 nM (nanomolar)  [Temperature = 298.15 K]
DOCKED: USER    
DOCKED: USER    (1) Final Intermolecular Energy     =  -12.79 kcal/mol
DOCKED: USER        vdW + Hbond + desolv Energy     =  -12.79 kcal/mol
DOCKED: USER        Electrostatic Energy            =   +0.00 kcal/mol
DOCKED: USER    (2) Final Total Internal Energy     =   -1.25 kcal/mol
DOCKED: USER    (3) Torsional Free Energy           =   +2.09 kcal/mol
DOCKED: USER    (4) Unbound System's Energy  [=(2)] =   -1.25 kcal/mol
DOCKED: USER    
DOCKED: USER    
DOCKED: USER    NEWDPF move ligand.dum.pdbqt
DOCKED: USER    NEWDPF about 0.154000 0.111000 -0.146000
DOCKED: USER    NEWDPF tran0 35.590998 10.797498 121.226653
DOCKED: USER    NEWDPF quaternion0 0.548200 -0.815883 -0.181342 -0.030431
DOCKED: USER    NEWDPF axisangle0 0.548454 -0.816261 -0.181426 -176.512307
DOCKED: USER    NEWDPF quat0 0.548454 -0.816261 -0.181426 -176.512307
DOCKED: USER    NEWDPF dihe0 -22.27 54.32 46.37 -160.83 -172.90 167.47 -13.38 
DOCKED: USER  keepresnum = 1 
DOCKED: USER  
DOCKED: REMARK  Name = 
DOCKED: REMARK  7 active torsions:
DOCKED: REMARK  status: ('A' for Active; 'I' for Inactive)
DOCKED: REMARK    1  A    between atoms: C_2  and  C_5
DOCKED: REMARK    2  A    between atoms: N_3  and  O_4
DOCKED: REMARK    3  A    between atoms: C_5  and  C_6
DOCKED: REMARK    4  A    between atoms: C_6  and  C_7
DOCKED: REMARK    5  A    between atoms: C_7  and  C_8
DOCKED: REMARK    6  A    between atoms: C_8  and  C_9
DOCKED: REMARK    7  A    between atoms: C_9  and  N_10
DOCKED: REMARK                            x       y       z     vdW  Elec       q    Type
DOCKED: REMARK                         _______ _______ _______ _____ _____    ______ ____
DOCKED: USER                              x       y       z     vdW  Elec       q    Type
DOCKED: USER                           _______ _______ _______ _____ _____    ______ ____
DOCKED: ROOT
DOCKED: ATOM      1  N   UNL     1      36.761  10.811 122.163 -0.58 -0.00    +0.000 N 
DOCKED: ATOM      2  C   UNL     1      36.266  11.635 123.236 -0.70 -0.00    +0.000 C 
DOCKED: ATOM      3  C   UNL     1      36.313  13.111 123.120 -0.53 -0.00    +0.000 A 
DOCKED: ATOM      4  C   UNL     1      35.810  13.923 124.152 -0.39 -0.00    +0.000 A 
DOCKED: ATOM      5  C   UNL     1      35.852  15.314 124.043 -0.41 -0.00    +0.000 A 
DOCKED: ATOM      6  C   UNL     1      36.396  15.915 122.908 -0.31 -0.00    +0.000 A 
DOCKED: ATOM      7  C   UNL     1      36.904  15.126 121.867 -0.25 -0.00    +0.000 A 
DOCKED: ATOM      8  C   UNL     1      37.452  15.731 120.727 -0.19 -0.00    +0.000 A 
DOCKED: ATOM      9  C   UNL     1      37.960  14.946 119.692 -0.22 -0.00    +0.000 A 
DOCKED: ATOM     10  C   UNL     1      37.928  13.554 119.782 -0.31 -0.00    +0.000 A 
DOCKED: ATOM     11  C   UNL     1      37.384  12.924 120.915 -0.44 -0.00    +0.000 A 
DOCKED: ATOM     12  C   UNL     1      36.867  13.712 121.968 -0.34 -0.00    +0.000 A 
DOCKED: ATOM     13  O   UNL     1      35.792  11.100 124.276 -0.51 -0.00    +0.000 OA
DOCKED: ATOM     14  C   UNL     1      37.348  11.446 121.010 -0.44 -0.00    +0.000 C 
DOCKED: ATOM     15  O   UNL     1      37.835  10.748 120.078 -0.64 -0.00    +0.000 OA
DOCKED: ATOM     16  CM  UNL     1      36.822  12.233 122.071 +0.00 -0.00    +0.000 AC
DOCKED: ATOM     17  CM  UNL     1      36.356  14.517 123.009 +0.00 -0.00    +0.000 AC
DOCKED: ATOM     18  CM  UNL     1      37.416  14.332 120.825 +0.00 -0.00    +0.000 AC
DOCKED: ENDROOT
DOCKED: BRANCH   1  16
DOCKED: ATOM     19  C   UNL     1      36.632   9.345 122.236 -0.72 -0.00    +0.000 C 
DOCKED: BRANCH  16  17
DOCKED: ATOM     20  C   UNL     1      35.157   8.909 122.277 -0.66 -0.00    +0.000 C 
DOCKED: BRANCH  17  18
DOCKED: ATOM     21  C   UNL     1      34.816   7.942 123.426 -0.68 -0.00    +0.000 C 
DOCKED: BRANCH  18  19
DOCKED: ATOM     22  C   UNL     1      34.644   6.469 123.001 -0.77 -0.00    +0.000 C 
DOCKED: BRANCH  19  20
DOCKED: ATOM     23  C   UNL     1      33.193   6.052 122.717 -0.63 -0.00    +0.000 C 
DOCKED: BRANCH  20  22
DOCKED: ATOM     24  O   UNL     1      32.348   4.800 120.864 -0.78 -0.00    +0.000 OA
DOCKED: ATOM     25  C   UNL     1      32.944   5.841 121.251 -0.28 -0.00    +0.000 C 
DOCKED: ATOM     26  N   UNL     1      33.407   6.796 120.293 -0.51 -0.00    +0.000 N 
DOCKED: ATOM     27  H   UNL     1      33.879   7.603 120.597 -0.04 -0.00    +0.000 HD
DOCKED: BRANCH  23  25
DOCKED: ATOM     28  O   UNL     1      33.203   6.596 118.969 -1.02 +0.00    +0.000 OA
DOCKED: ATOM     29  H   UNL     1      33.062   5.651 118.802 -0.41 +0.00    +0.000 HD
DOCKED: ENDBRANCH  23  25
DOCKED: ENDBRANCH  20  22
DOCKED: ENDBRANCH  19  20
DOCKED: ENDBRANCH  18  19
DOCKED: ENDBRANCH  17  18
DOCKED: ENDBRANCH  16  17
DOCKED: ENDBRANCH   1  16
DOCKED: TORSDOF 7DOCKED: TER
DOCKED: ENDMDL
________________________________________________________________________________

DPF> analysis                             # perform a ranked cluster analysis


		CLUSTER ANALYSIS OF CONFORMATIONS
		_________________________________

Number of conformations = 100

RMSD cluster analysis will be performed using the ligand atoms only (29 / 29 total atoms).

Outputting structurally similar clusters, ranked in order of increasing energy.


________________________________________________________________________________

Number of distinct conformational clusters found = 7,  out of 100 runs,
Using an rmsd-tolerance of 2.0 A


	CLUSTERING HISTOGRAM
	____________________

________________________________________________________________________________
     |           |     |           |     |                                    
Clus | Lowest    | Run | Mean      | Num | Histogram                          
-ter | Binding   |     | Binding   | in  |                                    
Rank | Energy    |     | Energy    | Clus|    5    10   15   20   25   30   35
_____|___________|_____|___________|_____|____:____|____:____|____:____|____:___
   1 |    -12.53 |   9 |    -11.65 |  34 |##################################
   2 |    -12.48 |   6 |    -11.37 |  35 |###################################
   3 |    -12.20 |  37 |    -10.94 |   9 |#########
   4 |    -11.30 |   4 |    -11.12 |   4 |####
   5 |    -11.16 |  55 |    -10.77 |  11 |###########
   6 |    -11.11 |  19 |    -10.24 |   5 |#####
   7 |    -11.00 |  67 |    -10.85 |   2 |##
_____|___________|_____|___________|_____|______________________________________


Number of multi-member conformational clusters found = 7, out of 100 runs.

	RMSD TABLE
	__________

_____________________________________________________________________
     |      |      |           |         |                 |
Rank | Sub- | Run  | Binding   | Cluster | Reference       | Grep
     | Rank |      | Energy    | RMSD    | RMSD            | Pattern
_____|______|______|___________|_________|_________________|___________
   1      1      9      -12.53      0.00    128.71           RANKING
   1      2      7      -12.39      0.63    128.83           RANKING
   1      3     39      -12.29      0.69    128.84           RANKING
   1      4     61      -12.13      0.69    128.90           RANKING
   1      5     93      -12.12      0.44    128.62           RANKING
   1      6      5      -12.09      0.72    129.06           RANKING
   1      7     79      -12.04      1.59    128.52           RANKING
   1      8     18      -12.02      1.36    128.31           RANKING
   1      9     73      -11.93      1.83    127.90           RANKING
   1     10     47      -11.81      1.75    128.23           RANKING
   1     11     41      -11.79      0.83    128.78           RANKING
   1     12     34      -11.77      1.12    129.21           RANKING
   1     13     33      -11.76      0.84    128.52           RANKING
   1     14     29      -11.73      1.07    128.21           RANKING
   1     15     69      -11.71      0.79    128.32           RANKING
   1     16     15      -11.70      1.49    127.80           RANKING
   1     17     53      -11.61      1.91    127.91           RANKING
   1     18     85      -11.60      1.57    128.02           RANKING
   1     19     89      -11.59      0.64    128.99           RANKING
   1     20     90      -11.58      1.86    128.12           RANKING
   1     21     77      -11.57      1.99    128.09           RANKING
   1     22     92      -11.55      1.47    128.67           RANKING
   1     23     57      -11.53      1.33    128.98           RANKING
   1     24      2      -11.52      1.46    128.57           RANKING
   1     25     98      -11.46      1.42    128.92           RANKING
   1     26     80      -11.44      1.31    129.18           RANKING
   1     27     64      -11.43      1.62    128.58           RANKING
   1     28     14      -11.31      0.76    128.40           RANKING
   1     29     54      -11.30      1.71    128.08           RANKING
   1     30     87      -11.26      1.27    129.01           RANKING
   1     31     71      -11.24      1.32    129.29           RANKING
   1     32     40      -11.21      1.50    128.08           RANKING
   1     33     91      -10.61      1.58    128.41           RANKING
   1     34     26      -10.41      1.27    129.41           RANKING
   2      1      6      -12.48      0.00    128.62           RANKING
   2      2     78      -12.20      0.47    128.56           RANKING
   2      3     82      -12.19      0.67    128.42           RANKING
   2      4     58      -12.15      0.72    128.51           RANKING
   2      5     45      -12.14      0.75    128.52           RANKING
   2      6     56      -12.14      0.57    128.48           RANKING
   2      7     21      -12.12      0.56    128.57           RANKING
   2      8     23      -12.10      0.57    128.51           RANKING
   2      9     16      -12.09      0.50    128.60           RANKING
   2     10     62      -12.07      0.51    128.51           RANKING
   2     11     74      -11.90      0.72    128.52           RANKING
   2     12     42      -11.85      0.52    128.62           RANKING
   2     13     12      -11.85      0.72    128.49           RANKING
   2     14     48      -11.63      0.90    128.24           RANKING
   2     15     99      -11.58      0.71    128.49           RANKING
   2     16     66      -11.53      0.58    128.51           RANKING
   2     17     38      -11.34      1.39    128.24           RANKING
   2     18     43      -11.29      0.93    128.43           RANKING
   2     19     88      -11.29      0.76    128.57           RANKING
   2     20     72      -11.27      0.92    128.43           RANKING
   2     21     31      -11.22      0.94    128.47           RANKING
   2     22     52      -11.10      1.41    127.90           RANKING
   2     23     25      -11.10      1.55    128.18           RANKING
   2     24     30      -11.08      1.06    128.41           RANKING
   2     25     49      -10.96      1.06    128.54           RANKING
   2     26      3      -10.91      1.00    128.18           RANKING
   2     27     75      -10.81      1.00    128.50           RANKING
   2     28     81      -10.79      1.31    127.98           RANKING
   2     29     28      -10.71      1.35    127.96           RANKING
   2     30     84      -10.56      1.64    127.62           RANKING
   2     31     27      -10.55      1.73    127.76           RANKING
   2     32     51      -10.48      1.63    128.36           RANKING
   2     33     13      -10.46      1.42    128.94           RANKING
   2     34     36      -10.30      1.22    127.90           RANKING
   2     35     46       -9.88      1.53    128.11           RANKING
   3      1     37      -12.20      0.00    128.29           RANKING
   3      2     96      -12.05      0.47    128.36           RANKING
   3      3     20      -11.63      0.78    128.09           RANKING
   3      4     17      -11.34      1.66    127.95           RANKING
   3      5     10      -11.23      1.77    127.74           RANKING
   3      6     63      -10.91      2.00    127.91           RANKING
   3      7     86      -10.63      0.93    128.46           RANKING
   3      8     70      -10.13      1.98    127.74           RANKING
   3      9     76       -8.31      1.17    128.13           RANKING
   4      1      4      -11.30      0.00    127.05           RANKING
   4      2     97      -11.29      1.50    126.87           RANKING
   4      3      1      -11.21      0.50    127.17           RANKING
   4      4     68      -10.70      0.94    126.87           RANKING
   5      1     55      -11.16      0.00    125.18           RANKING
   5      2     35      -11.09      0.96    124.64           RANKING
   5      3     65      -11.08      1.89    125.08           RANKING
   5      4     50      -11.02      1.86    125.34           RANKING
   5      5     22      -11.01      1.96    124.92           RANKING
   5      6     60      -10.81      1.88    125.28           RANKING
   5      7     59      -10.71      1.94    124.69           RANKING
   5      8     95      -10.68      1.24    124.44           RANKING
   5      9     24      -10.45      1.47    123.86           RANKING
   5     10     32      -10.37      1.88    125.13           RANKING
   5     11     11      -10.11      0.97    124.87           RANKING
   6      1     19      -11.11      0.00    125.81           RANKING
   6      2     83      -10.67      1.66    126.76           RANKING
   6      3      8      -10.03      1.85    124.49           RANKING
   6      4     44       -9.94      1.01    125.35           RANKING
   6      5     94       -9.46      1.52    125.09           RANKING
   7      1     67      -11.00      0.00    126.12           RANKING
   7      2    100      -10.70      1.79    125.93           RANKING
_______________________________________________________________________



	INFORMATION ENTROPY ANALYSIS FOR THIS CLUSTERING
	________________________________________________


Information entropy for this clustering = 0.34  (rmstol = 2.00 Angstrom)

_______________________________________________________________________


	STATISTICAL MECHANICAL ANALYSIS
	_______________________________


Partition function, Q =   101.92            at Temperature, T = 298.15 K
Free energy,        A ~ -2739.76 kcal/mol   at Temperature, T = 298.15 K
Internal energy,    U =   -11.29 kcal/mol   at Temperature, T = 298.15 K
Entropy,            S =     9.15 kcal/mol/K at Temperature, T = 298.15 K

_______________________________________________________________________


	LOWEST ENERGY DOCKED CONFORMATION from EACH CLUSTER
	___________________________________________________



Keeping original residue number (specified in the input PDBQ file) for outputting.

MODEL        9
USER    Run = 9
USER    Cluster Rank = 1
USER    Number of conformations in this cluster = 34
USER  
USER    RMSD from reference structure       = 128.706 A
USER  
USER    Estimated Free Energy of Binding    =  -12.53 kcal/mol  [=(1)+(2)+(3)-(4)]
USER    Estimated Inhibition Constant, Ki   =  658.00 pM (picomolar)  [Temperature = 298.15 K]
USER    
USER    (1) Final Intermolecular Energy     =  -14.61 kcal/mol
USER        vdW + Hbond + desolv Energy     =  -14.61 kcal/mol
USER        Electrostatic Energy            =   +0.00 kcal/mol
USER    (2) Final Total Internal Energy     =   -0.98 kcal/mol
USER    (3) Torsional Free Energy           =   +2.09 kcal/mol
USER    (4) Unbound System's Energy  [=(2)] =   -0.98 kcal/mol
USER    
USER    
USER  
USER    DPF = ligand_dock.biased.dpf
USER    NEWDPF move	ligand.dum.pdbqt
USER    NEWDPF about	0.154000 0.111000 -0.146000
USER    NEWDPF tran0	35.815898 15.783409 124.993710
USER    NEWDPF axisangle0	0.181214 -0.209771 0.960811 79.962716
USER    NEWDPF quaternion0	0.116437 -0.134786 0.617358 0.766254
USER    NEWDPF dihe0	30.52 108.93 -179.72 -162.08 102.25 86.70 -15.21 
USER  
USER                              x       y       z    vdW   Elec        q     RMS 
ATOM      1  N   UNL     1      34.626  16.220 124.195 -0.49 -0.00    +0.000    128.706
ATOM      2  C   UNL     1      35.226  17.130 123.253 -0.37 -0.00    +0.000    128.706
ATOM      3  C   UNL     1      35.502  18.531 123.647 -0.24 -0.00    +0.000    128.706
ATOM      4  C   UNL     1      36.110  19.420 122.743 -0.17 -0.00    +0.000    128.706
ATOM      5  C   UNL     1      36.374  20.739 123.115 -0.14 -0.00    +0.000    128.706
ATOM      6  C   UNL     1      36.035  21.192 124.390 -0.14 -0.00    +0.000    128.706
ATOM      7  C   UNL     1      35.428  20.325 125.308 -0.15 -0.00    +0.000    128.706
ATOM      8  C   UNL     1      35.086  20.781 126.589 -0.11 -0.00    +0.000    128.706
ATOM      9  C   UNL     1      34.480  19.919 127.502 -0.10 -0.00    +0.000    128.706
ATOM     10  C   UNL     1      34.208  18.596 127.150 -0.20 -0.00    +0.000    128.706
ATOM     11  C   UNL     1      34.541  18.115 125.871 -0.29 -0.00    +0.000    128.706
ATOM     12  C   UNL     1      35.155  18.982 124.940 -0.23 -0.00    +0.000    128.706
ATOM     13  O   UNL     1      35.515  16.736 122.089 -0.31 -0.00    +0.000    128.706
ATOM     14  C   UNL     1      34.253  16.711 125.498 -0.44 -0.00    +0.000    128.706
ATOM     15  O   UNL     1      33.681  15.949 126.324 -1.03 -0.00    +0.000    128.706
ATOM     16  CM  UNL     1      34.877  17.577 124.558 -0.40 -0.00    +0.000    128.706
ATOM     17  CM  UNL     1      35.768  19.864 124.024 -0.00 -0.00    +0.000    128.706
ATOM     18  CM  UNL     1      34.816  19.453 126.227 -0.03 -0.00    +0.000    128.706
ATOM     19  C   UNL     1      34.434  14.805 123.835 -0.47 -0.00    +0.000    128.706
ATOM     20  C   UNL     1      35.773  14.113 123.527 -0.53 -0.00    +0.000    128.706
ATOM     21  C   UNL     1      35.791  12.605 123.842 -0.49 -0.00    +0.000    128.706
ATOM     22  C   UNL     1      37.046  11.857 123.344 -0.67 -0.00    +0.000    128.706
ATOM     23  C   UNL     1      36.878  11.163 121.983 -0.59 -0.00    +0.000    128.706
ATOM     24  O   UNL     1      37.064   8.977 121.037 -2.72 -0.00    +0.000    128.706
ATOM     25  C   UNL     1      37.043   9.674 122.086 -0.60 -0.00    +0.000    128.706
ATOM     26  N   UNL     1      37.143   9.043 123.365 -0.57 -0.00    +0.000    128.706
ATOM     27  H   UNL     1      37.119   9.589 124.182 -0.58 -0.00    +0.000    128.706
ATOM     28  O   UNL     1      37.270   7.697 123.460 -2.22 -0.00    +0.000    128.706
ATOM     29  H   UNL     1      37.743   7.361 122.682 -0.33 -0.00    +0.000    128.706
TER
ENDMDL
MODEL        6
USER    Run = 6
USER    Cluster Rank = 2
USER    Number of conformations in this cluster = 35
USER  
USER    RMSD from reference structure       = 128.619 A
USER  
USER    Estimated Free Energy of Binding    =  -12.48 kcal/mol  [=(1)+(2)+(3)-(4)]
USER    Estimated Inhibition Constant, Ki   =  716.33 pM (picomolar)  [Temperature = 298.15 K]
USER    
USER    (1) Final Intermolecular Energy     =  -14.56 kcal/mol
USER        vdW + Hbond + desolv Energy     =  -14.56 kcal/mol
USER        Electrostatic Energy            =   +0.00 kcal/mol
USER    (2) Final Total Internal Energy     =   -0.87 kcal/mol
USER    (3) Torsional Free Energy           =   +2.09 kcal/mol
USER    (4) Unbound System's Energy  [=(2)] =   -0.87 kcal/mol
USER    
USER    
USER  
USER    DPF = ligand_dock.biased.dpf
USER    NEWDPF move	ligand.dum.pdbqt
USER    NEWDPF about	0.154000 0.111000 -0.146000
USER    NEWDPF tran0	38.441149 16.001774 121.336829
USER    NEWDPF axisangle0	0.204682 -0.976892 0.061541 144.918313
USER    NEWDPF quaternion0	0.195164 -0.931469 0.058680 0.301386
USER    NEWDPF dihe0	72.15 137.08 162.60 176.67 -40.75 160.96 -131.62 
USER  
USER                              x       y       z    vdW   Elec        q     RMS 
ATOM      1  N   UNL     1      38.457  15.577 122.773 -0.31 -0.00    +0.000    128.619
ATOM      2  C   UNL     1      38.248  16.831 123.451 -0.27 -0.00    +0.000    128.619
ATOM      3  C   UNL     1      39.388  17.747 123.686 -0.20 -0.00    +0.000    128.619
ATOM      4  C   UNL     1      39.190  18.984 124.323 -0.13 -0.00    +0.000    128.619
ATOM      5  C   UNL     1      40.263  19.849 124.543 -0.10 -0.00    +0.000    128.619
ATOM      6  C   UNL     1      41.548  19.494 124.133 -0.14 -0.00    +0.000    128.619
ATOM      7  C   UNL     1      41.771  18.266 123.496 -0.23 -0.00    +0.000    128.619
ATOM      8  C   UNL     1      43.063  17.909 123.084 -0.19 -0.00    +0.000    128.619
ATOM      9  C   UNL     1      43.285  16.686 122.453 -0.35 -0.00    +0.000    128.619
ATOM     10  C   UNL     1      42.226  15.807 122.224 -0.40 -0.00    +0.000    128.619
ATOM     11  C   UNL     1      40.921  16.142 122.627 -0.34 -0.00    +0.000    128.619
ATOM     12  C   UNL     1      40.687  17.379 123.268 -0.25 -0.00    +0.000    128.619
ATOM     13  O   UNL     1      37.093  17.151 123.846 -0.28 -0.00    +0.000    128.619
ATOM     14  C   UNL     1      39.796  15.210 122.383 -0.41 -0.00    +0.000    128.619
ATOM     15  O   UNL     1      40.014  14.096 121.834 -0.98 -0.00    +0.000    128.619
ATOM     16  CM  UNL     1      39.553  16.456 123.024 +0.00 -0.00    +0.000    128.619
ATOM     17  CM  UNL     1      40.474  18.620 123.907 +0.00 -0.00    +0.000    128.619
ATOM     18  CM  UNL     1      41.993  17.031 122.859 +0.00 -0.00    +0.000    128.619
ATOM     19  C   UNL     1      37.311  14.707 122.458 -0.41 -0.00    +0.000    128.619
ATOM     20  C   UNL     1      36.497  14.366 123.718 -0.48 -0.00    +0.000    128.619
ATOM     21  C   UNL     1      36.102  12.881 123.832 -0.62 -0.00    +0.000    128.619
ATOM     22  C   UNL     1      37.072  11.900 123.142 -0.66 -0.00    +0.000    128.619
ATOM     23  C   UNL     1      36.454  11.097 121.986 -0.62 -0.00    +0.000    128.619
ATOM     24  O   UNL     1      37.016   9.007 120.973 -2.71 -0.00    +0.000    128.619
ATOM     25  C   UNL     1      36.833   9.645 122.044 -0.65 -0.00    +0.000    128.619
ATOM     26  N   UNL     1      36.954   8.977 123.302 -0.62 -0.00    +0.000    128.619
ATOM     27  H   UNL     1      36.802   9.476 124.136 -0.50 -0.00    +0.000    128.619
ATOM     28  O   UNL     1      37.273   7.662 123.355 -2.21 -0.00    +0.000    128.619
ATOM     29  H   UNL     1      38.207   7.545 123.117 -0.51 -0.00    +0.000    128.619
TER
ENDMDL
MODEL       37
USER    Run = 37
USER    Cluster Rank = 3
USER    Number of conformations in this cluster = 9
USER  
USER    RMSD from reference structure       = 128.295 A
USER  
USER    Estimated Free Energy of Binding    =  -12.20 kcal/mol  [=(1)+(2)+(3)-(4)]
USER    Estimated Inhibition Constant, Ki   =    1.14 nM (nanomolar)  [Temperature = 298.15 K]
USER    
USER    (1) Final Intermolecular Energy     =  -14.29 kcal/mol
USER        vdW + Hbond + desolv Energy     =  -14.29 kcal/mol
USER        Electrostatic Energy            =   +0.00 kcal/mol
USER    (2) Final Total Internal Energy     =   -0.87 kcal/mol
USER    (3) Torsional Free Energy           =   +2.09 kcal/mol
USER    (4) Unbound System's Energy  [=(2)] =   -0.87 kcal/mol
USER    
USER    
USER  
USER    DPF = ligand_dock.biased.dpf
USER    NEWDPF move	ligand.dum.pdbqt
USER    NEWDPF about	0.154000 0.111000 -0.146000
USER    NEWDPF tran0	37.687791 15.929217 121.830816
USER    NEWDPF axisangle0	0.734648 -0.650170 -0.193833 119.855752
USER    NEWDPF quaternion0	0.635761 -0.562654 -0.167742 0.501090
USER    NEWDPF dihe0	-176.31 -70.12 -178.54 -139.62 -10.13 149.90 5.54 
USER  
USER                              x       y       z    vdW   Elec        q     RMS 
ATOM      1  N   UNL     1      37.727  15.211 123.145 -0.36 -0.00    +0.000    128.295
ATOM      2  C   UNL     1      36.334  15.198 123.511 -0.46 -0.00    +0.000    128.295
ATOM      3  C   UNL     1      35.723  16.385 124.153 -0.35 -0.00    +0.000    128.295
ATOM      4  C   UNL     1      34.359  16.390 124.491 -0.47 -0.00    +0.000    128.295
ATOM      5  C   UNL     1      33.782  17.510 125.094 -0.31 -0.00    +0.000    128.295
ATOM      6  C   UNL     1      34.555  18.637 125.369 -0.27 -0.00    +0.000    128.295
ATOM      7  C   UNL     1      35.918  18.655 125.042 -0.20 -0.00    +0.000    128.295
ATOM      8  C   UNL     1      36.695  19.789 125.320 -0.12 -0.00    +0.000    128.295
ATOM      9  C   UNL     1      38.051  19.805 124.997 -0.09 -0.00    +0.000    128.295
ATOM     10  C   UNL     1      38.647  18.697 124.394 -0.15 -0.00    +0.000    128.295
ATOM     11  C   UNL     1      37.888  17.548 124.105 -0.18 -0.00    +0.000    128.295
ATOM     12  C   UNL     1      36.514  17.523 124.429 -0.21 -0.00    +0.000    128.295
ATOM     13  O   UNL     1      35.631  14.173 123.286 -0.55 -0.00    +0.000    128.295
ATOM     14  C   UNL     1      38.520  16.372 123.464 -0.24 -0.00    +0.000    128.295
ATOM     15  O   UNL     1      39.754  16.390 123.200 -0.32 -0.00    +0.000    128.295
ATOM     16  CM  UNL     1      37.134  16.341 123.784 +0.00 -0.00    +0.000    128.295
ATOM     17  CM  UNL     1      35.142  17.517 124.762 -0.42 -0.00    +0.000    128.295
ATOM     18  CM  UNL     1      37.286  18.670 124.715 -0.00 -0.00    +0.000    128.295
ATOM     19  C   UNL     1      38.313  14.067 122.425 -0.46 -0.00    +0.000    128.295
ATOM     20  C   UNL     1      38.019  14.138 120.917 -0.38 -0.00    +0.000    128.295
ATOM     21  C   UNL     1      37.830  12.764 120.246 -0.49 -0.00    +0.000    128.295
ATOM     22  C   UNL     1      36.687  11.911 120.832 -0.37 -0.00    +0.000    128.295
ATOM     23  C   UNL     1      36.988  11.301 122.211 -0.58 -0.00    +0.000    128.295
ATOM     24  O   UNL     1      36.939   9.206 121.061 -2.70 -0.00    +0.000    128.295
ATOM     25  C   UNL     1      37.008   9.800 122.170 -0.60 -0.00    +0.000    128.295
ATOM     26  N   UNL     1      37.071   9.043 123.382 -0.60 -0.00    +0.000    128.295
ATOM     27  H   UNL     1      37.117   9.509 124.247 -0.57 -0.00    +0.000    128.295
ATOM     28  O   UNL     1      37.067   7.689 123.348 -2.30 -0.00    +0.000    128.295
ATOM     29  H   UNL     1      37.054   7.343 124.255 -0.53 -0.00    +0.000    128.295
TER
ENDMDL
MODEL        4
USER    Run = 4
USER    Cluster Rank = 4
USER    Number of conformations in this cluster = 4
USER  
USER    RMSD from reference structure       = 127.052 A
USER  
USER    Estimated Free Energy of Binding    =  -11.30 kcal/mol  [=(1)+(2)+(3)-(4)]
USER    Estimated Inhibition Constant, Ki   =    5.25 nM (nanomolar)  [Temperature = 298.15 K]
USER    
USER    (1) Final Intermolecular Energy     =  -13.38 kcal/mol
USER        vdW + Hbond + desolv Energy     =  -13.38 kcal/mol
USER        Electrostatic Energy            =   +0.00 kcal/mol
USER    (2) Final Total Internal Energy     =   -1.04 kcal/mol
USER    (3) Torsional Free Energy           =   +2.09 kcal/mol
USER    (4) Unbound System's Energy  [=(2)] =   -1.04 kcal/mol
USER    
USER    
USER  
USER    DPF = ligand_dock.biased.dpf
USER    NEWDPF move	ligand.dum.pdbqt
USER    NEWDPF about	0.154000 0.111000 -0.146000
USER    NEWDPF tran0	39.708242 13.570887 120.621445
USER    NEWDPF axisangle0	-0.305992 0.595457 -0.742833 -133.234689
USER    NEWDPF quaternion0	-0.280862 0.546555 -0.681828 -0.396870
USER    NEWDPF dihe0	34.31 101.13 148.70 -139.30 -39.84 148.27 173.90 
USER  
USER                              x       y       z    vdW   Elec        q     RMS 
ATOM      1  N   UNL     1      38.917  14.762 121.067 -0.29 -0.00    +0.000    127.052
ATOM      2  C   UNL     1      39.000  15.617 119.910 -0.19 -0.00    +0.000    127.052
ATOM      3  C   UNL     1      40.197  16.463 119.697 -0.12 -0.00    +0.000    127.052
ATOM      4  C   UNL     1      40.299  17.282 118.558 -0.07 -0.00    +0.000    127.052
ATOM      5  C   UNL     1      41.427  18.078 118.355 -0.04 -0.00    +0.000    127.052
ATOM      6  C   UNL     1      42.469  18.072 119.283 -0.05 -0.00    +0.000    127.052
ATOM      7  C   UNL     1      42.390  17.265 120.427 -0.11 -0.00    +0.000    127.052
ATOM      8  C   UNL     1      43.436  17.260 121.360 -0.19 -0.00    +0.000    127.052
ATOM      9  C   UNL     1      43.357  16.459 122.499 -0.34 -0.00    +0.000    127.052
ATOM     10  C   UNL     1      42.237  15.656 122.720 -0.45 -0.00    +0.000    127.052
ATOM     11  C   UNL     1      41.174  15.644 121.799 -0.34 -0.00    +0.000    127.052
ATOM     12  C   UNL     1      41.247  16.452 120.642 -0.16 -0.00    +0.000    127.052
ATOM     13  O   UNL     1      38.053  15.646 119.076 -0.18 -0.00    +0.000    127.052
ATOM     14  C   UNL     1      39.987  14.790 122.033 -0.41 -0.00    +0.000    127.052
ATOM     15  O   UNL     1      39.916  14.090 123.080 -0.77 -0.00    +0.000    127.052
ATOM     16  CM  UNL     1      40.056  15.598 120.864 +0.00 -0.00    +0.000    127.052
ATOM     17  CM  UNL     1      41.338  17.268 119.494 +0.00 -0.00    +0.000    127.052
ATOM     18  CM  UNL     1      42.307  16.456 121.575 +0.00 -0.00    +0.000    127.052
ATOM     19  C   UNL     1      37.770  13.854 121.233 -0.42 -0.00    +0.000    127.052
ATOM     20  C   UNL     1      36.854  14.304 122.384 -0.42 -0.00    +0.000    127.052
ATOM     21  C   UNL     1      36.159  13.147 123.127 -0.56 -0.00    +0.000    127.052
ATOM     22  C   UNL     1      36.944  11.819 123.133 -0.67 -0.00    +0.000    127.052
ATOM     23  C   UNL     1      36.958  11.079 121.786 -0.55 -0.00    +0.000    127.052
ATOM     24  O   UNL     1      37.040   8.843 120.947 -2.70 -0.00    +0.000    127.052
ATOM     25  C   UNL     1      37.037   9.590 121.962 -0.61 -0.00    +0.000    127.052
ATOM     26  N   UNL     1      37.075   9.016 123.270 -0.63 -0.00    +0.000    127.052
ATOM     27  H   UNL     1      37.064   9.601 124.061 -0.54 -0.00    +0.000    127.052
ATOM     28  O   UNL     1      37.123   7.672 123.431 -2.25 -0.00    +0.000    127.052
ATOM     29  H   UNL     1      37.644   7.278 122.713 -0.32 -0.00    +0.000    127.052
TER
ENDMDL
MODEL       55
USER    Run = 55
USER    Cluster Rank = 5
USER    Number of conformations in this cluster = 11
USER  
USER    RMSD from reference structure       = 125.183 A
USER  
USER    Estimated Free Energy of Binding    =  -11.16 kcal/mol  [=(1)+(2)+(3)-(4)]
USER    Estimated Inhibition Constant, Ki   =    6.61 nM (nanomolar)  [Temperature = 298.15 K]
USER    
USER    (1) Final Intermolecular Energy     =  -13.25 kcal/mol
USER        vdW + Hbond + desolv Energy     =  -13.25 kcal/mol
USER        Electrostatic Energy            =   +0.00 kcal/mol
USER    (2) Final Total Internal Energy     =   -1.54 kcal/mol
USER    (3) Torsional Free Energy           =   +2.09 kcal/mol
USER    (4) Unbound System's Energy  [=(2)] =   -1.54 kcal/mol
USER    
USER    
USER  
USER    DPF = ligand_dock.biased.dpf
USER    NEWDPF move	ligand.dum.pdbqt
USER    NEWDPF about	0.154000 0.111000 -0.146000
USER    NEWDPF tran0	37.221005 15.175329 121.088489
USER    NEWDPF axisangle0	0.069654 0.997571 0.000261 109.979821
USER    NEWDPF quaternion0	0.057050 0.817062 0.000214 0.573721
USER    NEWDPF dihe0	-2.35 170.96 122.01 -175.55 -91.89 60.83 47.08 
USER  
USER                              x       y       z    vdW   Elec        q     RMS 
ATOM      1  N   UNL     1      38.448  14.325 120.954 -0.32 -0.00    +0.000    125.183
ATOM      2  C   UNL     1      39.405  15.274 120.445 -0.24 -0.00    +0.000    125.183
ATOM      3  C   UNL     1      39.439  15.591 118.999 -0.12 -0.00    +0.000    125.183
ATOM      4  C   UNL     1      40.353  16.534 118.496 -0.11 -0.00    +0.000    125.183
ATOM      5  C   UNL     1      40.384  16.835 117.133 -0.10 -0.00    +0.000    125.183
ATOM      6  C   UNL     1      39.508  16.201 116.253 -0.14 -0.00    +0.000    125.183
ATOM      7  C   UNL     1      38.588  15.257 116.730 -0.18 -0.00    +0.000    125.183
ATOM      8  C   UNL     1      37.708  14.620 115.844 -0.25 -0.00    +0.000    125.183
ATOM      9  C   UNL     1      36.795  13.679 116.318 -0.33 -0.00    +0.000    125.183
ATOM     10  C   UNL     1      36.748  13.364 117.676 -0.34 -0.00    +0.000    125.183
ATOM     11  C   UNL     1      37.620  13.989 118.585 -0.30 -0.00    +0.000    125.183
ATOM     12  C   UNL     1      38.548  14.944 118.113 -0.14 -0.00    +0.000    125.183
ATOM     13  O   UNL     1      40.217  15.836 121.231 -0.26 -0.00    +0.000    125.183
ATOM     14  C   UNL     1      37.569  13.656 120.027 -0.41 -0.00    +0.000    125.183
ATOM     15  O   UNL     1      36.756  12.784 120.440 -0.48 -0.00    +0.000    125.183
ATOM     16  CM  UNL     1      38.503  14.621 119.559 +0.00 -0.00    +0.000    125.183
ATOM     17  CM  UNL     1      39.470  15.894 117.621 +0.00 -0.00    +0.000    125.183
ATOM     18  CM  UNL     1      37.668  14.308 117.211 +0.00 -0.00    +0.000    125.183
ATOM     19  C   UNL     1      38.351  14.077 122.403 -0.46 -0.00    +0.000    125.183
ATOM     20  C   UNL     1      36.930  14.340 122.928 -0.48 -0.00    +0.000    125.183
ATOM     21  C   UNL     1      36.301  13.146 123.673 -0.61 -0.00    +0.000    125.183
ATOM     22  C   UNL     1      36.902  11.772 123.312 -0.68 -0.00    +0.000    125.183
ATOM     23  C   UNL     1      35.971  10.862 122.495 -0.67 -0.00    +0.000    125.183
ATOM     24  O   UNL     1      36.927   9.178 121.095 -2.69 -0.00    +0.000    125.183
ATOM     25  C   UNL     1      36.573   9.507 122.258 -0.71 -0.00    +0.000    125.183
ATOM     26  N   UNL     1      36.714   8.579 123.337 -0.66 -0.00    +0.000    125.183
ATOM     27  H   UNL     1      36.428   8.835 124.242 -0.35 -0.00    +0.000    125.183
ATOM     28  O   UNL     1      37.235   7.347 123.121 -2.06 -0.00    +0.000    125.183
ATOM     29  H   UNL     1      37.430   7.239 122.176 -0.16 -0.00    +0.000    125.183
TER
ENDMDL
MODEL       19
USER    Run = 19
USER    Cluster Rank = 6
USER    Number of conformations in this cluster = 5
USER  
USER    RMSD from reference structure       = 125.805 A
USER  
USER    Estimated Free Energy of Binding    =  -11.11 kcal/mol  [=(1)+(2)+(3)-(4)]
USER    Estimated Inhibition Constant, Ki   =    7.19 nM (nanomolar)  [Temperature = 298.15 K]
USER    
USER    (1) Final Intermolecular Energy     =  -13.20 kcal/mol
USER        vdW + Hbond + desolv Energy     =  -13.20 kcal/mol
USER        Electrostatic Energy            =   +0.00 kcal/mol
USER    (2) Final Total Internal Energy     =   -1.02 kcal/mol
USER    (3) Torsional Free Energy           =   +2.09 kcal/mol
USER    (4) Unbound System's Energy  [=(2)] =   -1.02 kcal/mol
USER    
USER    
USER  
USER    DPF = ligand_dock.biased.dpf
USER    NEWDPF move	ligand.dum.pdbqt
USER    NEWDPF about	0.154000 0.111000 -0.146000
USER    NEWDPF tran0	37.791766 16.290532 122.433741
USER    NEWDPF axisangle0	0.760951 0.395510 0.514321 103.232349
USER    NEWDPF quaternion0	0.596485 0.310028 0.403160 0.620927
USER    NEWDPF dihe0	176.24 133.20 -168.83 -162.69 -104.20 53.66 -174.98 
USER  
USER                              x       y       z    vdW   Elec        q     RMS 
ATOM      1  N   UNL     1      36.755  15.248 122.143 -0.29 -0.00    +0.000    125.805
ATOM      2  C   UNL     1      37.276  14.647 120.942 -0.30 -0.00    +0.000    125.805
ATOM      3  C   UNL     1      37.036  15.286 119.627 -0.20 -0.00    +0.000    125.805
ATOM      4  C   UNL     1      37.561  14.720 118.452 -0.24 -0.00    +0.000    125.805
ATOM      5  C   UNL     1      37.337  15.322 117.213 -0.17 -0.00    +0.000    125.805
ATOM      6  C   UNL     1      36.586  16.495 117.126 -0.10 -0.00    +0.000    125.805
ATOM      7  C   UNL     1      36.051  17.077 118.283 -0.12 -0.00    +0.000    125.805
ATOM      8  C   UNL     1      35.296  18.255 118.196 -0.11 -0.00    +0.000    125.805
ATOM      9  C   UNL     1      34.761  18.833 119.346 -0.20 -0.00    +0.000    125.805
ATOM     10  C   UNL     1      34.974  18.246 120.594 -0.25 -0.00    +0.000    125.805
ATOM     11  C   UNL     1      35.728  17.065 120.709 -0.16 -0.00    +0.000    125.805
ATOM     12  C   UNL     1      36.273  16.472 119.548 -0.14 -0.00    +0.000    125.805
ATOM     13  O   UNL     1      37.938  13.574 121.008 -0.43 -0.00    +0.000    125.805
ATOM     14  C   UNL     1      35.955  16.443 122.034 -0.26 -0.00    +0.000    125.805
ATOM     15  O   UNL     1      35.445  16.961 123.064 -0.33 -0.00    +0.000    125.805
ATOM     16  CM  UNL     1      36.511  15.844 120.869 +0.00 -0.00    +0.000    125.805
ATOM     17  CM  UNL     1      36.808  15.896 118.375 +0.00 -0.00    +0.000    125.805
ATOM     18  CM  UNL     1      35.514  17.658 119.446 +0.00 -0.00    +0.000    125.805
ATOM     19  C   UNL     1      37.070  14.665 123.458 -0.45 -0.00    +0.000    125.805
ATOM     20  C   UNL     1      35.921  13.783 123.975 -0.52 -0.00    +0.000    125.805
ATOM     21  C   UNL     1      36.297  12.301 124.162 -0.55 -0.00    +0.000    125.805
ATOM     22  C   UNL     1      37.294  11.752 123.121 -0.53 -0.00    +0.000    125.805
ATOM     23  C   UNL     1      36.643  11.009 121.943 -0.62 -0.00    +0.000    125.805
ATOM     24  O   UNL     1      36.932   8.843 120.974 -2.68 -0.00    +0.000    125.805
ATOM     25  C   UNL     1      36.847   9.524 122.032 -0.66 -0.00    +0.000    125.805
ATOM     26  N   UNL     1      36.911   8.876 123.305 -0.63 -0.00    +0.000    125.805
ATOM     27  H   UNL     1      36.836   9.409 124.128 -0.51 -0.00    +0.000    125.805
ATOM     28  O   UNL     1      37.072   7.533 123.386 -2.21 -0.00    +0.000    125.805
ATOM     29  H   UNL     1      37.152   7.273 124.317 -0.53 -0.00    +0.000    125.805
TER
ENDMDL
MODEL       67
USER    Run = 67
USER    Cluster Rank = 7
USER    Number of conformations in this cluster = 2
USER  
USER    RMSD from reference structure       = 126.119 A
USER  
USER    Estimated Free Energy of Binding    =  -11.00 kcal/mol  [=(1)+(2)+(3)-(4)]
USER    Estimated Inhibition Constant, Ki   =    8.66 nM (nanomolar)  [Temperature = 298.15 K]
USER    
USER    (1) Final Intermolecular Energy     =  -13.09 kcal/mol
USER        vdW + Hbond + desolv Energy     =  -13.09 kcal/mol
USER        Electrostatic Energy            =   +0.00 kcal/mol
USER    (2) Final Total Internal Energy     =   -1.35 kcal/mol
USER    (3) Torsional Free Energy           =   +2.09 kcal/mol
USER    (4) Unbound System's Energy  [=(2)] =   -1.35 kcal/mol
USER    
USER    
USER  
USER    DPF = ligand_dock.biased.dpf
USER    NEWDPF move	ligand.dum.pdbqt
USER    NEWDPF about	0.154000 0.111000 -0.146000
USER    NEWDPF tran0	38.301772 11.460409 123.207326
USER    NEWDPF axisangle0	0.650858 0.072828 0.755698 95.563074
USER    NEWDPF quaternion0	0.482018 0.053936 0.559661 0.671959
USER    NEWDPF dihe0	-6.54 3.13 17.59 -143.25 128.76 -52.31 -149.65 
USER  
USER                              x       y       z    vdW   Elec        q     RMS 
ATOM      1  N   UNL     1      36.954  11.136 122.640 -0.59 -0.00    +0.000    126.119
ATOM      2  C   UNL     1      37.240  11.068 121.229 -0.36 -0.00    +0.000    126.119
ATOM      3  C   UNL     1      37.305  12.309 120.424 -0.46 -0.00    +0.000    126.119
ATOM      4  C   UNL     1      37.609  12.255 119.052 +0.05 -0.00    +0.000    126.119
ATOM      5  C   UNL     1      37.673  13.424 118.293 -0.29 -0.00    +0.000    126.119
ATOM      6  C   UNL     1      37.434  14.663 118.888 -0.25 -0.00    +0.000    126.119
ATOM      7  C   UNL     1      37.129  14.743 120.254 -0.23 -0.00    +0.000    126.119
ATOM      8  C   UNL     1      36.889  15.988 120.851 -0.17 -0.00    +0.000    126.119
ATOM      9  C   UNL     1      36.582  16.068 122.209 -0.24 -0.00    +0.000    126.119
ATOM     10  C   UNL     1      36.513  14.910 122.985 -0.38 -0.00    +0.000    126.119
ATOM     11  C   UNL     1      36.751  13.649 122.409 -0.42 -0.00    +0.000    126.119
ATOM     12  C   UNL     1      37.062  13.560 121.034 -0.34 -0.00    +0.000    126.119
ATOM     13  O   UNL     1      37.435   9.950 120.678 -1.64 -0.00    +0.000    126.119
ATOM     14  C   UNL     1      36.679  12.421 123.234 -0.66 -0.00    +0.000    126.119
ATOM     15  O   UNL     1      36.376  12.504 124.455 -0.56 -0.00    +0.000    126.119
ATOM     16  CM  UNL     1      36.997  12.324 121.851 +0.00 -0.00    +0.000    126.119
ATOM     17  CM  UNL     1      37.369  13.492 119.658 +0.00 -0.00    +0.000    126.119
ATOM     18  CM  UNL     1      36.821  14.820 121.624 +0.00 -0.00    +0.000    126.119
ATOM     19  C   UNL     1      36.978   9.913 123.459 -0.33 -0.00    +0.000    126.119
ATOM     20  C   UNL     1      35.750   9.026 123.188 -0.58 -0.00    +0.000    126.119
ATOM     21  C   UNL     1      34.928   9.447 121.955 -0.53 -0.00    +0.000    126.119
ATOM     22  C   UNL     1      33.497   8.872 121.906 -0.69 -0.00    +0.000    126.119
ATOM     23  C   UNL     1      33.415   7.398 121.479 -0.57 -0.00    +0.000    126.119
ATOM     24  O   UNL     1      32.865   6.186 123.464 -0.81 -0.00    +0.000    126.119
ATOM     25  C   UNL     1      33.747   6.465 122.608 -0.76 -0.00    +0.000    126.119
ATOM     26  N   UNL     1      35.062   5.919 122.735 -0.66 -0.00    +0.000    126.119
ATOM     27  H   UNL     1      35.751   6.145 122.069 -0.03 -0.00    +0.000    126.119
ATOM     28  O   UNL     1      35.369   5.095 123.765 -0.97 -0.00    +0.000    126.119
ATOM     29  H   UNL     1      34.621   5.056 124.382 -0.61 -0.00    +0.000    126.119
TER
ENDMDL


AVSFLD: # AVS field file
AVSFLD: #
AVSFLD: # Created by AutoDock
AVSFLD: #
AVSFLD: ndim=2           # number of dimensions in the field
AVSFLD: nspace=1         # number of physical coordinates
AVSFLD: veclen=7         # vector size
AVSFLD: dim1=29          # atoms
AVSFLD: dim2=7           # conformations
AVSFLD: data=Real       # data type (byte,integer,Real,double)
AVSFLD: field=uniform    # field coordinate layout
AVSFLD: label= x y z vdW Elec q RMS
AVSFLD: variable 1 file = ligand_dock.biased.dlg.pdb filetype = ascii offset = 5 stride = 12
AVSFLD: variable 2 file = ligand_dock.biased.dlg.pdb filetype = ascii offset = 6 stride = 12
AVSFLD: variable 3 file = ligand_dock.biased.dlg.pdb filetype = ascii offset = 7 stride = 12
AVSFLD: variable 4 file = ligand_dock.biased.dlg.pdb filetype = ascii offset = 8 stride = 12
AVSFLD: variable 5 file = ligand_dock.biased.dlg.pdb filetype = ascii offset = 9 stride = 12
AVSFLD: variable 6 file = ligand_dock.biased.dlg.pdb filetype = ascii offset = 10 stride = 12
AVSFLD: variable 7 file = ligand_dock.biased.dlg.pdb filetype = ascii offset = 11 stride = 12
AVSFLD: # end of file

>>> Closing the docking parameter file (DPF)...
This docking finished at:			6:51 41" p.m., 11/08/2024


________________________________________________________________________________

autodock4: Successful Completion on "ThinkStation-P620"

Real= 12m 34.40s,  CPU= 12m 34.16s,  System= 0.18s
________________________________________________________________________________

