          AutoDock 4.2 Release 4.2.6   
         (C) 1989-2012 The Scripps Research Institute
        AutoDock comes with ABSOLUTELY NO WARRANTY.
        AutoDock is free software, and you are welcome
        to redistribute it under certain conditions;
        for details type 'autodock4 -C'

                     main.cc  $Revision: 1.213 $

                   Compiled on Feb 20 2022 at 09:48:33


This file was created at:			6:39 07" p.m., 11/08/2024
                   on host:		"ThinkStation-P620"
Current Working Directory = "/home/antonio/Documenti/buccheri/IDROSSAMICO HDAC/HDAC 8/P (copia)/Ligand_3"

      ________________________________________________________________

                   SETTING UP DEFAULT PARAMETER LIBRARY
      ________________________________________________________________


Random number generator was seeded with values 358149, 1731087547.
Docking parameter file (DPF) used for this docking:		ligand_dock.biased.dpf
DPF> parameter_file ad4_arom_params.dat

Using read_parameter_library() to try to open and read "ad4_arom_params.dat".

DPF> autodock_parameter_version 4.2       # used by autodock to validate parameter set

	Autodock parameter version 4.2.
DPF> outlev 1                             # diagnostic output level

Output Level = 1  ADT-COMPATIBLE OUTPUT DURING DOCKING.
DPF> intelec                              # calculate internal electrostatics

Electrostatic energies will be calculated for all non-bonds between moving atoms.
DPF> seed pid time                        # seeds for random generator

Random number generator was seeded with values 358149, 1731087547.
DPF> ligand_types A C HD OA N AC

WARNING: pairwise distance, Rij, 0.00, is not a very reasonable value for the equilibrium separation of two atoms! (0.90 Angstroms <= Rij <= 6.00 Angstroms)

Perhaps you meant to use "intnbp_coeffs" instead of "intnbp_r_eps"?

DPF> fld receptor.maps.fld                # grid_data_file

Opening Grid Map Dimensions file:		receptor.maps.fld
Grid Point Spacing =				0.375 Angstroms

Even Number of User-specified Grid Points =	70 x-points
						70 y-points
						70 z-points

Coordinates of Central Grid Point of Maps =	(36.691, 12.592, 124.207)
Macromolecule file used to create Grid Maps =	receptor.pdbqt
Grid Parameter file used to create Grid Maps =	receptor.gpf
Minimum coordinates in grid = (23.566, -0.533, 111.082)
Maximum coordinates in grid = (49.816, 25.717, 137.332)

DPF> map receptor.A.map                   # atom-specific affinity map

DPF> map receptor.C.map                   # atom-specific affinity map

DPF> map receptor.HD.map                  # atom-specific affinity map

DPF> map receptor.OA.biased.map

DPF> map receptor.N.map                   # atom-specific affinity map

DPF> map receptor.AC.biased.map

DPF> elecmap receptor.e.map               # electrostatics map

DPF> desolvmap receptor.d.map             # desolvation map

DPF> move ligand.dum.pdbqt

1,4-interactions will be _ignored_ in the non-bonded internal energy calculation.

Ligand PDBQT file = "ligand.dum.pdbqt"

INPUT LIGAND PDBQT FILE:
________________________

INPUT-LIGAND-PDBQT: REMARK  Name = 
INPUT-LIGAND-PDBQT: REMARK  11 active torsions:
INPUT-LIGAND-PDBQT: REMARK  status: ('A' for Active; 'I' for Inactive)
INPUT-LIGAND-PDBQT: REMARK    1  A    between atoms: C_1  and  N_2
INPUT-LIGAND-PDBQT: REMARK    2  A    between atoms: N_2  and  C_3
INPUT-LIGAND-PDBQT: REMARK    3  A    between atoms: N_2  and  C_22
INPUT-LIGAND-PDBQT: REMARK    4  A    between atoms: C_6  and  C_9
INPUT-LIGAND-PDBQT: REMARK    5  A    between atoms: C_9  and  C_10
INPUT-LIGAND-PDBQT: REMARK    6  A    between atoms: C_10  and  C_11
INPUT-LIGAND-PDBQT: REMARK    7  A    between atoms: C_10  and  C_20
INPUT-LIGAND-PDBQT: REMARK    8  A    between atoms: C_12  and  C_13
INPUT-LIGAND-PDBQT: REMARK    9  A    between atoms: C_12  and  C_19
INPUT-LIGAND-PDBQT: REMARK   10  A    between atoms: C_14  and  C_15
INPUT-LIGAND-PDBQT: REMARK   11  A    between atoms: N_16  and  O_17
INPUT-LIGAND-PDBQT: REMARK                            x       y       z     vdW  Elec       q    Type
INPUT-LIGAND-PDBQT: REMARK                         _______ _______ _______ _____ _____    ______ ____
INPUT-LIGAND-PDBQT: ROOT
INPUT-LIGAND-PDBQT: ATOM      1  C   UNL     1       0.900  -0.340   1.485  0.00  0.00     0.000 C 
INPUT-LIGAND-PDBQT: ATOM      2  C   UNL     1       0.879  -0.536   3.004  0.00  0.00     0.000 C 
INPUT-LIGAND-PDBQT: ENDROOT
INPUT-LIGAND-PDBQT: BRANCH   1   3
INPUT-LIGAND-PDBQT: ATOM      3  C   UNL     1       2.314  -0.090   1.003  0.00  0.00     0.000 C 
INPUT-LIGAND-PDBQT: ATOM      4  C   UNL     1       2.731  -0.270  -0.267  0.00  0.00     0.000 C 
INPUT-LIGAND-PDBQT: ATOM      5  C   UNL     1       1.797  -0.768  -1.349  0.00  0.00     0.000 C 
INPUT-LIGAND-PDBQT: BRANCH   4   6
INPUT-LIGAND-PDBQT: ATOM      6  C   UNL     1       4.166  -0.026  -0.569  0.00  0.00     0.000 C 
INPUT-LIGAND-PDBQT: ATOM      7  C   UNL     1       4.798  -0.575  -1.617  0.00  0.00     0.000 C 
INPUT-LIGAND-PDBQT: BRANCH   7   8
INPUT-LIGAND-PDBQT: ATOM      8  C   UNL     1       6.224  -0.337  -1.922  0.00  0.00     0.000 C 
INPUT-LIGAND-PDBQT: ATOM      9  N   UNL     1       7.142   0.178  -0.949  0.00  0.00     0.000 N 
INPUT-LIGAND-PDBQT: ATOM     10  O   UNL     1       6.646  -0.622  -3.075  0.00  0.00     0.000 OA
INPUT-LIGAND-PDBQT: ATOM     11  H   UNL     1       6.848   0.307  -0.018  0.00  0.00     0.000 HD
INPUT-LIGAND-PDBQT: BRANCH   9  12
INPUT-LIGAND-PDBQT: ATOM     12  O   UNL     1       8.411   0.485  -1.306  0.00  0.00     0.000 OA
INPUT-LIGAND-PDBQT: ATOM     13  H   UNL     1       8.536   0.300  -2.250  0.00  0.00     0.000 HD
INPUT-LIGAND-PDBQT: ENDBRANCH   9  12
INPUT-LIGAND-PDBQT: ENDBRANCH   7   8
INPUT-LIGAND-PDBQT: ENDBRANCH   4   6
INPUT-LIGAND-PDBQT: ENDBRANCH   1   3
INPUT-LIGAND-PDBQT: BRANCH   1  14
INPUT-LIGAND-PDBQT: ATOM     14  C   UNL     1      -0.001   0.818   1.111  0.00  0.00     0.000 C 
INPUT-LIGAND-PDBQT: ATOM     15  O   UNL     1       0.427   1.995   1.268  0.00  0.00     0.000 OA
INPUT-LIGAND-PDBQT: BRANCH  14  19
INPUT-LIGAND-PDBQT: ATOM     16  C   UNL     1      -4.000   0.273  -0.443  0.00  0.00     0.000 A 
INPUT-LIGAND-PDBQT: ATOM     17  C   UNL     1      -3.275   1.457  -0.687  0.00  0.00     0.000 A 
INPUT-LIGAND-PDBQT: ATOM     18  C   UNL     1      -1.985   1.625  -0.178  0.00  0.00     0.000 A 
INPUT-LIGAND-PDBQT: ATOM     19  C   UNL     1      -1.376   0.615   0.584  0.00  0.00     0.000 A 
INPUT-LIGAND-PDBQT: ATOM     20  C   UNL     1      -2.097  -0.564   0.839  0.00  0.00     0.000 A 
INPUT-LIGAND-PDBQT: ATOM     21  C   UNL     1      -3.389  -0.733   0.332  0.00  0.00     0.000 A 
INPUT-LIGAND-PDBQT: ATOM     25  CM  UNL     1      -2.687   0.446   0.075  1.00  0.00     0.000 AC
INPUT-LIGAND-PDBQT: BRANCH  16  23
INPUT-LIGAND-PDBQT: ATOM     22  C   UNL     1      -5.917  -1.246  -1.112  0.00  0.00     0.000 C 
INPUT-LIGAND-PDBQT: ATOM     23  N   UNL     1      -5.341   0.097  -0.971  0.00  0.00     0.000 N 
INPUT-LIGAND-PDBQT: ATOM     24  C   UNL     1      -6.143   1.258  -1.375  0.00  0.00     0.000 C 
INPUT-LIGAND-PDBQT: ENDBRANCH  16  23
INPUT-LIGAND-PDBQT: ENDBRANCH  14  19
INPUT-LIGAND-PDBQT: ENDBRANCH   1  14
INPUT-LIGAND-PDBQT: TORSDOF 7________________________________________________________________________________

Total charge on ligand                               =	+0.000 e
REMARK  Name = 
REMARK  11 active torsions:
REMARK  status: ('A' for Active; 'I' for Inactive)
REMARK    1  A    between atoms: C_1  and  N_2
REMARK    2  A    between atoms: N_2  and  C_3
REMARK    3  A    between atoms: N_2  and  C_22
REMARK    4  A    between atoms: C_6  and  C_9
REMARK    5  A    between atoms: C_9  and  C_10
REMARK    6  A    between atoms: C_10  and  C_11
REMARK    7  A    between atoms: C_10  and  C_20
REMARK    8  A    between atoms: C_12  and  C_13
REMARK    9  A    between atoms: C_12  and  C_19
REMARK   10  A    between atoms: C_14  and  C_15
REMARK   11  A    between atoms: N_16  and  O_17
REMARK                            x       y       z     vdW  Elec       q    Type
REMARK                         _______ _______ _______ _____ _____    ______ ____


Number of Rotatable Bonds in Small Molecule =	7 torsions
Number of atoms in ligand:  25

Number of non-hydrogen atoms in ligand:  23

Number of vibrational degrees of freedom of ligand:  69


Number of torsional degrees of freedom = 7
Estimated loss of torsional free energy upon binding = +2.0881 kcal/mol


DPF> about 1.179 0.138 -0.353            # small molecule center

Small molecule center of rotation =	(+1.179, +0.138, -0.353)

DPF> tran0 random                         # initial coordinates/A or random

Initial translation =			(45.349, 5.511, 123.420) Angstroms
DPF> quaternion0 random                   # initial orientation

Each run will begin with a new, random initial orientation.
Initial quaternion,  (x,y,z,w) =	( -0.871, 0.264, 0.358, 0.209 ),
DPF> dihe0 random                         # initial dihedrals (relative) or random

DPF> torsdof 7                            # torsional degrees of freedom

Number of torsional degrees of freedom = 7
Free energy coefficient for torsional degrees of freedom = 0.2983 as specified in parameter library "ad4_arom_params.dat".

Estimated loss of torsional free energy upon binding = +2.0881 kcal/mol

DPF> rmstol 2.0                           # cluster_tolerance/A

Maximum RMS tolerance for conformational cluster analysis = 2.00 Angstroms
DPF> extnrg 1000.0                        # external grid energy

External grid energy (beyond grid map walls) = 1000.00

DPF> e0max 0.0 10000                      # max initial energy; max number of retries

Using user-specified maximum number of retries for simanneal initialization, 10000 retries.
If the simanneal initial energy is greater than e0max, 0.000,
then a new, random initial state will be created.

DPF> ga_pop_size 150                      # number of individuals in population

A population of 150 individuals will be used
DPF> ga_num_evals 2500000                 # maximum number of energy evaluations

There will be at most 2500000 function evaluations used.
DPF> ga_num_generations 27000             # maximum number of generations

The GA will run for at most 27000 generations.
DPF> ga_elitism 1                         # number of top individuals to survive to next generation

The 1 best will be preserved each GA generation.
DPF> ga_mutation_rate 0.02                # rate of gene mutation

The mutation rate is 0.020000.
DPF> ga_crossover_rate 0.8                # rate of crossover

The crossover rate is 0.800000.
DPF> ga_window_size 10                    # 

The GA's selection window is 10 generations.
DPF> ga_cauchy_alpha 0.0                  # Alpha parameter of Cauchy distribution

The alpha parameter (for the Cauchy distribution) is being set to 0.000000.
DPF> ga_cauchy_beta 1.0                   # Beta parameter Cauchy distribution

The beta parameter (for the Cauchy distribution) is being set to 1.000000.
DPF> set_ga                               # set the above parameters for GA or LGA

DPF> sw_max_its 300                       # iterations of Solis & Wets local search

Solis & Wets algorithms will perform at most 300 iterations.
DPF> sw_max_succ 4                        # consecutive successes before changing rho

Solis & Wets algorithms expand rho every 4 in a row successes.
DPF> sw_max_fail 4                        # consecutive failures before changing rho

Solis & Wets algorithms contract rho every 4 in a row failures.
DPF> sw_rho 1.0                           # size of local search space to sample

rho is set to 1.000000.
DPF> sw_lb_rho 0.01                       # lower bound on rho

rho will never get smaller than 0.010000.
DPF> ls_search_freq 0.06                  # probability of performing local search on individual

Local search will be performed with frequency 0.060000.
DPF> set_psw1                             # set the above pseudo-Solis & Wets parameters

Creating a new Local Search object using the pseudo-Solis-Wets algorithm (pSW1) with the current settings.

DPF> unbound_model bound                  # state of unbound ligand

DPF> ga_run 100                           # do this many hybrid GA-LS runs

centering ligand on specified point: 1.179 0.138 -0.353
Furthest true ligand atom from "about" center is 7.599 Angstroms (maxrad).
Number of requested GA dockings = 100 runs
Unbound model to be used is 'same as bound' [AutoDock 4.2 default].

	BEGINNING GENETIC ALGORITHM DOCKING 1 of 100
Run: 1 Seed: 1820836827 1752260545 [ Run 1 of 100 GA/GALS ]
Beginning LAMARCKIAN GENETIC ALGORITHM (LGA), with a maximum of 2500000 energy evaluations.

Final-Value: -14.926


	FINAL GENETIC ALGORITHM DOCKED STATE
	_______________________________________________


Detailed state:  trans 36.559 14.378 120.786 quatxyzw 0.440133 -0.128835 0.667744 0.586347 center 1.179 0.138 -0.353 ntor 7 19.6067 139.2673 -27.0272 156.0006 -106.3940 -67.5441 -80.2463
State:	 36.559  14.378 120.786   0.543 -0.159  0.824 108.204     19.61  139.27  -27.03  156.00 -106.39  -67.54  -80.25

DOCKED: MODEL        1
DOCKED: USER    Run = 1
DOCKED: USER    DPF = ligand_dock.biased.dpf
DOCKED: USER  
DOCKED: USER    Estimated Free Energy of Binding    =  -11.08 kcal/mol  [=(1)+(2)+(3)-(4)]
DOCKED: USER    Estimated Inhibition Constant, Ki   =    7.60 nM (nanomolar)  [Temperature = 298.15 K]
DOCKED: USER    
DOCKED: USER    (1) Final Intermolecular Energy     =  -13.16 kcal/mol
DOCKED: USER        vdW + Hbond + desolv Energy     =  -13.16 kcal/mol
DOCKED: USER        Electrostatic Energy            =   +0.00 kcal/mol
DOCKED: USER    (2) Final Total Internal Energy     =   -1.76 kcal/mol
DOCKED: USER    (3) Torsional Free Energy           =   +2.09 kcal/mol
DOCKED: USER    (4) Unbound System's Energy  [=(2)] =   -1.76 kcal/mol
DOCKED: USER    
DOCKED: USER    
DOCKED: USER    NEWDPF move ligand.dum.pdbqt
DOCKED: USER    NEWDPF about 1.179000 0.138000 -0.353000
DOCKED: USER    NEWDPF tran0 36.558943 14.378321 120.785622
DOCKED: USER    NEWDPF quaternion0 0.440133 -0.128835 0.667744 0.586347
DOCKED: USER    NEWDPF axisangle0 0.543334 -0.159044 0.824314 108.203606
DOCKED: USER    NEWDPF quat0 0.543334 -0.159044 0.824314 108.203606
DOCKED: USER    NEWDPF dihe0 19.61 139.27 -27.03 156.00 -106.39 -67.54 -80.25 
DOCKED: USER  keepresnum = 1 
DOCKED: USER  
DOCKED: REMARK  Name = 
DOCKED: REMARK  11 active torsions:
DOCKED: REMARK  status: ('A' for Active; 'I' for Inactive)
DOCKED: REMARK    1  A    between atoms: C_1  and  N_2
DOCKED: REMARK    2  A    between atoms: N_2  and  C_3
DOCKED: REMARK    3  A    between atoms: N_2  and  C_22
DOCKED: REMARK    4  A    between atoms: C_6  and  C_9
DOCKED: REMARK    5  A    between atoms: C_9  and  C_10
DOCKED: REMARK    6  A    between atoms: C_10  and  C_11
DOCKED: REMARK    7  A    between atoms: C_10  and  C_20
DOCKED: REMARK    8  A    between atoms: C_12  and  C_13
DOCKED: REMARK    9  A    between atoms: C_12  and  C_19
DOCKED: REMARK   10  A    between atoms: C_14  and  C_15
DOCKED: REMARK   11  A    between atoms: N_16  and  O_17
DOCKED: REMARK                            x       y       z     vdW  Elec       q    Type
DOCKED: REMARK                         _______ _______ _______ _____ _____    ______ ____
DOCKED: USER                              x       y       z     vdW  Elec       q    Type
DOCKED: USER                           _______ _______ _______ _____ _____    ______ ____
DOCKED: ROOT
DOCKED: ATOM      1  C   UNL     1      37.576  15.394 122.058 -0.32 -0.00    +0.000 C 
DOCKED: ATOM      2  C   UNL     1      38.565  15.991 123.063 -0.30 -0.00    +0.000 C 
DOCKED: ENDROOT
DOCKED: BRANCH   1   3
DOCKED: ATOM      3  C   UNL     1      37.493  13.891 122.224 -0.47 -0.00    +0.000 C 
DOCKED: ATOM      4  C   UNL     1      36.604  13.258 123.016 -0.58 -0.00    +0.000 C 
DOCKED: ATOM      5  C   UNL     1      35.591  14.020 123.844 -0.55 -0.00    +0.000 C 
DOCKED: BRANCH   4   6
DOCKED: ATOM      6  C   UNL     1      36.685  11.776 123.107 -0.69 -0.00    +0.000 C 
DOCKED: ATOM      7  C   UNL     1      36.797  10.981 122.032 -0.60 -0.00    +0.000 C 
DOCKED: BRANCH   7   8
DOCKED: ATOM      8  C   UNL     1      36.877   9.508 122.116 -0.66 -0.00    +0.000 C 
DOCKED: ATOM      9  N   UNL     1      37.030   8.817 123.363 -0.63 -0.00    +0.000 N 
DOCKED: ATOM     10  O   UNL     1      36.784   8.841 121.051 -2.64 -0.00    +0.000 OA
DOCKED: ATOM     11  H   UNL     1      37.001   9.320 124.209 -0.56 -0.00    +0.000 HD
DOCKED: BRANCH   9  12
DOCKED: ATOM     12  O   UNL     1      37.211   7.476 123.379 -2.13 -0.00    +0.000 OA
DOCKED: ATOM     13  H   UNL     1      37.521   7.180 122.509 -0.24 -0.00    +0.000 HD
DOCKED: ENDBRANCH   9  12
DOCKED: ENDBRANCH   7   8
DOCKED: ENDBRANCH   4   6
DOCKED: ENDBRANCH   1   3
DOCKED: BRANCH   1  14
DOCKED: ATOM     14  C   UNL     1      38.007  15.750 120.651 -0.21 -0.00    +0.000 C 
DOCKED: ATOM     15  O   UNL     1      39.036  16.465 120.494 -0.14 -0.00    +0.000 OA
DOCKED: BRANCH  14  19
DOCKED: ATOM     16  C   UNL     1      35.783  14.490 117.162 -0.30 -0.00    +0.000 A 
DOCKED: ATOM     17  C   UNL     1      35.591  15.765 117.732 -0.17 -0.00    +0.000 A 
DOCKED: ATOM     18  C   UNL     1      36.312  16.161 118.860 -0.15 -0.00    +0.000 A 
DOCKED: ATOM     19  C   UNL     1      37.251  15.302 119.452 -0.20 -0.00    +0.000 A 
DOCKED: ATOM     20  C   UNL     1      37.441  14.025 118.895 -0.33 -0.00    +0.000 A 
DOCKED: ATOM     21  C   UNL     1      36.719  13.626 117.766 -0.36 -0.00    +0.000 A 
DOCKED: ATOM     22  CM  UNL     1      36.516  14.895 118.312 +0.00 -0.00    +0.000 AC
DOCKED: BRANCH  16  23
DOCKED: ATOM     23  C   UNL     1      33.569  13.990 116.031 -0.36 -0.00    +0.000 C 
DOCKED: ATOM     24  N   UNL     1      35.035  14.075 115.989 -0.30 -0.00    +0.000 N 
DOCKED: ATOM     25  C   UNL     1      35.729  13.733 114.742 -0.28 -0.00    +0.000 C 
DOCKED: ENDBRANCH  16  23
DOCKED: ENDBRANCH  14  19
DOCKED: ENDBRANCH   1  14
DOCKED: TORSDOF 7DOCKED: TER
DOCKED: ENDMDL
________________________________________________________________________________


	BEGINNING GENETIC ALGORITHM DOCKING 2 of 100
Run: 2 Seed: 1782064345 494475015 [ Run 2 of 100 GA/GALS ]
Beginning LAMARCKIAN GENETIC ALGORITHM (LGA), with a maximum of 2500000 energy evaluations.

Final-Value: -14.593


	FINAL GENETIC ALGORITHM DOCKED STATE
	_______________________________________________


Detailed state:  trans 36.734 14.543 120.509 quatxyzw 0.321400 -0.080714 0.744075 0.580120 center 1.179 0.138 -0.353 ntor 7 10.0207 53.9683 -73.5625 -149.7611 175.5291 -91.1533 -92.2900
State:	 36.734  14.543 120.509   0.395 -0.099  0.914 109.082     10.02   53.97  -73.56 -149.76  175.53  -91.15  -92.29

DOCKED: MODEL        2
DOCKED: USER    Run = 2
DOCKED: USER    DPF = ligand_dock.biased.dpf
DOCKED: USER  
DOCKED: USER    Estimated Free Energy of Binding    =  -10.86 kcal/mol  [=(1)+(2)+(3)-(4)]
DOCKED: USER    Estimated Inhibition Constant, Ki   =   11.00 nM (nanomolar)  [Temperature = 298.15 K]
DOCKED: USER    
DOCKED: USER    (1) Final Intermolecular Energy     =  -12.95 kcal/mol
DOCKED: USER        vdW + Hbond + desolv Energy     =  -12.95 kcal/mol
DOCKED: USER        Electrostatic Energy            =   +0.00 kcal/mol
DOCKED: USER    (2) Final Total Internal Energy     =   -1.65 kcal/mol
DOCKED: USER    (3) Torsional Free Energy           =   +2.09 kcal/mol
DOCKED: USER    (4) Unbound System's Energy  [=(2)] =   -1.65 kcal/mol
DOCKED: USER    
DOCKED: USER    
DOCKED: USER    NEWDPF move ligand.dum.pdbqt
DOCKED: USER    NEWDPF about 1.179000 0.138000 -0.353000
DOCKED: USER    NEWDPF tran0 36.733886 14.542961 120.508933
DOCKED: USER    NEWDPF quaternion0 0.321400 -0.080714 0.744075 0.580120
DOCKED: USER    NEWDPF axisangle0 0.394583 -0.099092 0.913502 109.081986
DOCKED: USER    NEWDPF quat0 0.394583 -0.099092 0.913502 109.081986
DOCKED: USER    NEWDPF dihe0 10.02 53.97 -73.56 -149.76 175.53 -91.15 -92.29 
DOCKED: USER  keepresnum = 1 
DOCKED: USER  
DOCKED: REMARK  Name = 
DOCKED: REMARK  11 active torsions:
DOCKED: REMARK  status: ('A' for Active; 'I' for Inactive)
DOCKED: REMARK    1  A    between atoms: C_1  and  N_2
DOCKED: REMARK    2  A    between atoms: N_2  and  C_3
DOCKED: REMARK    3  A    between atoms: N_2  and  C_22
DOCKED: REMARK    4  A    between atoms: C_6  and  C_9
DOCKED: REMARK    5  A    between atoms: C_9  and  C_10
DOCKED: REMARK    6  A    between atoms: C_10  and  C_11
DOCKED: REMARK    7  A    between atoms: C_10  and  C_20
DOCKED: REMARK    8  A    between atoms: C_12  and  C_13
DOCKED: REMARK    9  A    between atoms: C_12  and  C_19
DOCKED: REMARK   10  A    between atoms: C_14  and  C_15
DOCKED: REMARK   11  A    between atoms: N_16  and  O_17
DOCKED: REMARK                            x       y       z     vdW  Elec       q    Type
DOCKED: REMARK                         _______ _______ _______ _____ _____    ______ ____
DOCKED: USER                              x       y       z     vdW  Elec       q    Type
DOCKED: USER                           _______ _______ _______ _____ _____    ______ ____
DOCKED: ROOT
DOCKED: ATOM      1  C   UNL     1      37.431  15.413 122.072 -0.32 -0.00    +0.000 C 
DOCKED: ATOM      2  C   UNL     1      38.143  15.878 123.346 -0.27 -0.00    +0.000 C 
DOCKED: ENDROOT
DOCKED: BRANCH   1   3
DOCKED: ATOM      3  C   UNL     1      37.188  13.919 122.116 -0.45 -0.00    +0.000 C 
DOCKED: ATOM      4  C   UNL     1      36.331  13.309 122.960 -0.55 -0.00    +0.000 C 
DOCKED: ATOM      5  C   UNL     1      35.525  14.088 123.978 -0.51 -0.00    +0.000 C 
DOCKED: BRANCH   4   6
DOCKED: ATOM      6  C   UNL     1      36.242  11.826 122.911 -0.67 -0.00    +0.000 C 
DOCKED: ATOM      7  C   UNL     1      37.065  11.067 122.172 -0.56 -0.00    +0.000 C 
DOCKED: BRANCH   7   8
DOCKED: ATOM      8  C   UNL     1      36.982   9.593 122.118 -0.63 -0.00    +0.000 C 
DOCKED: ATOM      9  N   UNL     1      37.042   8.776 123.295 -0.65 -0.00    +0.000 N 
DOCKED: ATOM     10  O   UNL     1      36.829   9.042 120.995 -2.65 -0.00    +0.000 OA
DOCKED: ATOM     11  H   UNL     1      37.058   9.199 124.184 -0.57 -0.00    +0.000 HD
DOCKED: BRANCH   9  12
DOCKED: ATOM     12  O   UNL     1      37.075   7.428 123.187 -2.19 -0.00    +0.000 OA
DOCKED: ATOM     13  H   UNL     1      37.212   7.180 122.259 -0.13 -0.00    +0.000 HD
DOCKED: ENDBRANCH   9  12
DOCKED: ENDBRANCH   7   8
DOCKED: ENDBRANCH   4   6
DOCKED: ENDBRANCH   1   3
DOCKED: BRANCH   1  14
DOCKED: ATOM     14  C   UNL     1      38.265  15.780 120.862 -0.22 -0.00    +0.000 C 
DOCKED: ATOM     15  O   UNL     1      39.220  16.592 121.007 -0.14 -0.00    +0.000 OA
DOCKED: BRANCH  14  19
DOCKED: ATOM     16  C   UNL     1      37.407  14.166 116.943 -0.31 -0.00    +0.000 A 
DOCKED: ATOM     17  C   UNL     1      36.443  14.142 117.971 -0.34 -0.00    +0.000 A 
DOCKED: ATOM     18  C   UNL     1      36.731  14.663 119.235 -0.22 -0.00    +0.000 A 
DOCKED: ATOM     19  C   UNL     1      37.986  15.229 119.510 -0.20 -0.00    +0.000 A 
DOCKED: ATOM     20  C   UNL     1      38.954  15.247 118.492 -0.11 -0.00    +0.000 A 
DOCKED: ATOM     21  C   UNL     1      38.669  14.725 117.227 -0.14 -0.00    +0.000 A 
DOCKED: ATOM     22  CM  UNL     1      37.698  14.695 118.230 +0.00 -0.00    +0.000 AC
DOCKED: BRANCH  16  23
DOCKED: ATOM     23  C   UNL     1      38.159  12.977 114.833 -0.50 -0.00    +0.000 C 
DOCKED: ATOM     24  N   UNL     1      37.109  13.624 115.629 -0.36 -0.00    +0.000 N 
DOCKED: ATOM     25  C   UNL     1      35.754  13.718 115.072 -0.28 -0.00    +0.000 C 
DOCKED: ENDBRANCH  16  23
DOCKED: ENDBRANCH  14  19
DOCKED: ENDBRANCH   1  14
DOCKED: TORSDOF 7DOCKED: TER
DOCKED: ENDMDL
________________________________________________________________________________


	BEGINNING GENETIC ALGORITHM DOCKING 3 of 100
Run: 3 Seed: 1009349484 1711111308 [ Run 3 of 100 GA/GALS ]
Beginning LAMARCKIAN GENETIC ALGORITHM (LGA), with a maximum of 2500000 energy evaluations.

Final-Value: -14.794


	FINAL GENETIC ALGORITHM DOCKED STATE
	_______________________________________________


Detailed state:  trans 36.583 14.329 120.646 quatxyzw -0.411392 0.118043 -0.695762 -0.576835 center 1.179 0.138 -0.353 ntor 7 9.9535 156.0933 -41.4409 -180.0000 -121.8011 -82.5300 -80.1906
State:	 36.583  14.329 120.646  -0.504  0.145 -0.852 -109.544      9.95  156.09  -41.44 -180.00 -121.80  -82.53  -80.19

DOCKED: MODEL        3
DOCKED: USER    Run = 3
DOCKED: USER    DPF = ligand_dock.biased.dpf
DOCKED: USER  
DOCKED: USER    Estimated Free Energy of Binding    =  -10.94 kcal/mol  [=(1)+(2)+(3)-(4)]
DOCKED: USER    Estimated Inhibition Constant, Ki   =    9.54 nM (nanomolar)  [Temperature = 298.15 K]
DOCKED: USER    
DOCKED: USER    (1) Final Intermolecular Energy     =  -13.03 kcal/mol
DOCKED: USER        vdW + Hbond + desolv Energy     =  -13.03 kcal/mol
DOCKED: USER        Electrostatic Energy            =   +0.00 kcal/mol
DOCKED: USER    (2) Final Total Internal Energy     =   -1.76 kcal/mol
DOCKED: USER    (3) Torsional Free Energy           =   +2.09 kcal/mol
DOCKED: USER    (4) Unbound System's Energy  [=(2)] =   -1.76 kcal/mol
DOCKED: USER    
DOCKED: USER    
DOCKED: USER    NEWDPF move ligand.dum.pdbqt
DOCKED: USER    NEWDPF about 1.179000 0.138000 -0.353000
DOCKED: USER    NEWDPF tran0 36.582557 14.328611 120.645671
DOCKED: USER    NEWDPF quaternion0 -0.411392 0.118043 -0.695762 -0.576835
DOCKED: USER    NEWDPF axisangle0 -0.503625 0.144508 -0.851751 -109.543565
DOCKED: USER    NEWDPF quat0 -0.503625 0.144508 -0.851751 -109.543565
DOCKED: USER    NEWDPF dihe0 9.95 156.09 -41.44 -180.00 -121.80 -82.53 -80.19 
DOCKED: USER  keepresnum = 1 
DOCKED: USER  
DOCKED: REMARK  Name = 
DOCKED: REMARK  11 active torsions:
DOCKED: REMARK  status: ('A' for Active; 'I' for Inactive)
DOCKED: REMARK    1  A    between atoms: C_1  and  N_2
DOCKED: REMARK    2  A    between atoms: N_2  and  C_3
DOCKED: REMARK    3  A    between atoms: N_2  and  C_22
DOCKED: REMARK    4  A    between atoms: C_6  and  C_9
DOCKED: REMARK    5  A    between atoms: C_9  and  C_10
DOCKED: REMARK    6  A    between atoms: C_10  and  C_11
DOCKED: REMARK    7  A    between atoms: C_10  and  C_20
DOCKED: REMARK    8  A    between atoms: C_12  and  C_13
DOCKED: REMARK    9  A    between atoms: C_12  and  C_19
DOCKED: REMARK   10  A    between atoms: C_14  and  C_15
DOCKED: REMARK   11  A    between atoms: N_16  and  O_17
DOCKED: REMARK                            x       y       z     vdW  Elec       q    Type
DOCKED: REMARK                         _______ _______ _______ _____ _____    ______ ____
DOCKED: USER                              x       y       z     vdW  Elec       q    Type
DOCKED: USER                           _______ _______ _______ _____ _____    ______ ____
DOCKED: ROOT
DOCKED: ATOM      1  C   UNL     1      37.547  15.297 121.994 -0.32 -0.00    +0.000 C 
DOCKED: ATOM      2  C   UNL     1      38.485  15.847 123.073 -0.31 -0.00    +0.000 C 
DOCKED: ENDROOT
DOCKED: BRANCH   1   3
DOCKED: ATOM      3  C   UNL     1      37.387  13.798 122.146 -0.47 -0.00    +0.000 C 
DOCKED: ATOM      4  C   UNL     1      36.615  13.203 123.078 -0.60 -0.00    +0.000 C 
DOCKED: ATOM      5  C   UNL     1      35.830  14.006 124.093 -0.49 -0.00    +0.000 C 
DOCKED: BRANCH   4   6
DOCKED: ATOM      6  C   UNL     1      36.603  11.717 123.125 -0.69 -0.00    +0.000 C 
DOCKED: ATOM      7  C   UNL     1      36.924  10.947 122.075 -0.58 -0.00    +0.000 C 
DOCKED: BRANCH   7   8
DOCKED: ATOM      8  C   UNL     1      36.914   9.470 122.116 -0.65 -0.00    +0.000 C 
DOCKED: ATOM      9  N   UNL     1      37.045   8.735 123.339 -0.65 -0.00    +0.000 N 
DOCKED: ATOM     10  O   UNL     1      36.759   8.842 121.034 -2.63 -0.00    +0.000 OA
DOCKED: ATOM     11  H   UNL     1      37.063   9.214 124.199 -0.58 -0.00    +0.000 HD
DOCKED: BRANCH   9  12
DOCKED: ATOM     12  O   UNL     1      37.143   7.385 123.315 -2.11 -0.00    +0.000 OA
DOCKED: ATOM     13  H   UNL     1      37.267   7.086 122.401 -0.17 -0.00    +0.000 HD
DOCKED: ENDBRANCH   9  12
DOCKED: ENDBRANCH   7   8
DOCKED: ENDBRANCH   4   6
DOCKED: ENDBRANCH   1   3
DOCKED: BRANCH   1  14
DOCKED: ATOM     14  C   UNL     1      38.095  15.636 120.624 -0.22 -0.00    +0.000 C 
DOCKED: ATOM     15  O   UNL     1      39.163  16.305 120.547 -0.15 -0.00    +0.000 OA
DOCKED: BRANCH  14  19
DOCKED: ATOM     16  C   UNL     1      36.069  14.478 116.983 -0.29 -0.00    +0.000 A 
DOCKED: ATOM     17  C   UNL     1      35.665  15.612 117.717 -0.18 -0.00    +0.000 A 
DOCKED: ATOM     18  C   UNL     1      36.324  15.976 118.893 -0.16 -0.00    +0.000 A 
DOCKED: ATOM     19  C   UNL     1      37.410  15.225 119.371 -0.21 -0.00    +0.000 A 
DOCKED: ATOM     20  C   UNL     1      37.811  14.088 118.650 -0.28 -0.00    +0.000 A 
DOCKED: ATOM     21  C   UNL     1      37.152  13.720 117.473 -0.36 -0.00    +0.000 A 
DOCKED: ATOM     22  CM  UNL     1      36.738  14.850 118.182 +0.00 -0.00    +0.000 AC
DOCKED: BRANCH  16  23
DOCKED: ATOM     23  C   UNL     1      33.918  14.108 115.691 -0.33 -0.00    +0.000 C 
DOCKED: ATOM     24  N   UNL     1      35.385  14.098 115.760 -0.29 -0.00    +0.000 N 
DOCKED: ATOM     25  C   UNL     1      36.147  13.695 114.572 -0.32 -0.00    +0.000 C 
DOCKED: ENDBRANCH  16  23
DOCKED: ENDBRANCH  14  19
DOCKED: ENDBRANCH   1  14
DOCKED: TORSDOF 7DOCKED: TER
DOCKED: ENDMDL
________________________________________________________________________________


	BEGINNING GENETIC ALGORITHM DOCKING 4 of 100
Run: 4 Seed: 369596573 356088536 [ Run 4 of 100 GA/GALS ]
Beginning LAMARCKIAN GENETIC ALGORITHM (LGA), with a maximum of 2500000 energy evaluations.

Final-Value: -13.675


	FINAL GENETIC ALGORITHM DOCKED STATE
	_______________________________________________


Detailed state:  trans 36.346 14.648 122.277 quatxyzw -0.046195 0.239095 0.704081 0.667061 center 1.179 0.138 -0.353 ntor 7 21.4880 156.2860 -43.6918 7.1293 147.9853 31.1535 4.6419
State:	 36.346  14.648 122.277  -0.062  0.321  0.945 96.319     21.49  156.29  -43.69    7.13  147.99   31.15    4.64

DOCKED: MODEL        4
DOCKED: USER    Run = 4
DOCKED: USER    DPF = ligand_dock.biased.dpf
DOCKED: USER  
DOCKED: USER    Estimated Free Energy of Binding    =  -10.22 kcal/mol  [=(1)+(2)+(3)-(4)]
DOCKED: USER    Estimated Inhibition Constant, Ki   =   32.31 nM (nanomolar)  [Temperature = 298.15 K]
DOCKED: USER    
DOCKED: USER    (1) Final Intermolecular Energy     =  -12.31 kcal/mol
DOCKED: USER        vdW + Hbond + desolv Energy     =  -12.31 kcal/mol
DOCKED: USER        Electrostatic Energy            =   +0.00 kcal/mol
DOCKED: USER    (2) Final Total Internal Energy     =   -1.37 kcal/mol
DOCKED: USER    (3) Torsional Free Energy           =   +2.09 kcal/mol
DOCKED: USER    (4) Unbound System's Energy  [=(2)] =   -1.37 kcal/mol
DOCKED: USER    
DOCKED: USER    
DOCKED: USER    NEWDPF move ligand.dum.pdbqt
DOCKED: USER    NEWDPF about 1.179000 0.138000 -0.353000
DOCKED: USER    NEWDPF tran0 36.346301 14.647679 122.277048
DOCKED: USER    NEWDPF quaternion0 -0.046195 0.239095 0.704081 0.667061
DOCKED: USER    NEWDPF axisangle0 -0.062006 0.320931 0.945071 96.318771
DOCKED: USER    NEWDPF quat0 -0.062006 0.320931 0.945071 96.318771
DOCKED: USER    NEWDPF dihe0 21.49 156.29 -43.69 7.13 147.99 31.15 4.64 
DOCKED: USER  keepresnum = 1 
DOCKED: USER  
DOCKED: REMARK  Name = 
DOCKED: REMARK  11 active torsions:
DOCKED: REMARK  status: ('A' for Active; 'I' for Inactive)
DOCKED: REMARK    1  A    between atoms: C_1  and  N_2
DOCKED: REMARK    2  A    between atoms: N_2  and  C_3
DOCKED: REMARK    3  A    between atoms: N_2  and  C_22
DOCKED: REMARK    4  A    between atoms: C_6  and  C_9
DOCKED: REMARK    5  A    between atoms: C_9  and  C_10
DOCKED: REMARK    6  A    between atoms: C_10  and  C_11
DOCKED: REMARK    7  A    between atoms: C_10  and  C_20
DOCKED: REMARK    8  A    between atoms: C_12  and  C_13
DOCKED: REMARK    9  A    between atoms: C_12  and  C_19
DOCKED: REMARK   10  A    between atoms: C_14  and  C_15
DOCKED: REMARK   11  A    between atoms: N_16  and  O_17
DOCKED: REMARK                            x       y       z     vdW  Elec       q    Type
DOCKED: REMARK                         _______ _______ _______ _____ _____    ______ ____
DOCKED: USER                              x       y       z     vdW  Elec       q    Type
DOCKED: USER                           _______ _______ _______ _____ _____    ______ ____
DOCKED: ROOT
DOCKED: ATOM      1  C   UNL     1      35.232  15.419 123.636 -0.52 -0.00    +0.000 C 
DOCKED: ATOM      2  C   UNL     1      34.471  15.857 124.891 -0.55 -0.00    +0.000 C 
DOCKED: ENDROOT
DOCKED: BRANCH   1   3
DOCKED: ATOM      3  C   UNL     1      35.496  13.928 123.670 -0.48 -0.00    +0.000 C 
DOCKED: ATOM      4  C   UNL     1      36.315  13.279 122.817 -0.52 -0.00    +0.000 C 
DOCKED: ATOM      5  C   UNL     1      37.050  14.004 121.710 -0.38 -0.00    +0.000 C 
DOCKED: BRANCH   4   6
DOCKED: ATOM      6  C   UNL     1      36.431  11.803 122.953 -0.68 -0.00    +0.000 C 
DOCKED: ATOM      7  C   UNL     1      36.949  11.017 121.997 -0.57 -0.00    +0.000 C 
DOCKED: BRANCH   7   8
DOCKED: ATOM      8  C   UNL     1      37.065   9.550 122.125 -0.61 -0.00    +0.000 C 
DOCKED: ATOM      9  N   UNL     1      37.154   8.895 123.397 -0.59 -0.00    +0.000 N 
DOCKED: ATOM     10  O   UNL     1      37.062   8.854 121.074 -2.70 -0.00    +0.000 OA
DOCKED: ATOM     11  H   UNL     1      37.055   9.418 124.226 -0.57 -0.00    +0.000 HD
DOCKED: BRANCH   9  12
DOCKED: ATOM     12  O   UNL     1      37.373   7.561 123.462 -2.11 -0.00    +0.000 OA
DOCKED: ATOM     13  H   UNL     1      37.775   7.258 122.633 -0.35 -0.00    +0.000 HD
DOCKED: ENDBRANCH   9  12
DOCKED: ENDBRANCH   7   8
DOCKED: ENDBRANCH   4   6
DOCKED: ENDBRANCH   1   3
DOCKED: BRANCH   1  14
DOCKED: ATOM     14  C   UNL     1      36.533  16.188 123.539 -0.36 -0.00    +0.000 C 
DOCKED: ATOM     15  O   UNL     1      37.533  15.772 124.187 -0.14 -0.00    +0.000 OA
DOCKED: BRANCH  14  19
DOCKED: ATOM     16  C   UNL     1      36.874  19.772 121.143 -0.11 -0.00    +0.000 A 
DOCKED: ATOM     17  C   UNL     1      35.725  18.958 121.082 -0.18 -0.00    +0.000 A 
DOCKED: ATOM     18  C   UNL     1      35.625  17.800 121.858 -0.24 -0.00    +0.000 A 
DOCKED: ATOM     19  C   UNL     1      36.665  17.423 122.722 -0.19 -0.00    +0.000 A 
DOCKED: ATOM     20  C   UNL     1      37.818  18.225 122.780 -0.12 -0.00    +0.000 A 
DOCKED: ATOM     21  C   UNL     1      37.920  19.383 122.003 -0.07 -0.00    +0.000 A 
DOCKED: ATOM     22  CM  UNL     1      36.771  18.593 121.931 +0.00 -0.00    +0.000 AC
DOCKED: BRANCH  16  23
DOCKED: ATOM     23  C   UNL     1      36.575  20.966 118.926 -0.09 -0.00    +0.000 C 
DOCKED: ATOM     24  N   UNL     1      36.979  20.975 120.337 -0.09 -0.00    +0.000 N 
DOCKED: ATOM     25  C   UNL     1      37.492  22.221 120.919 -0.08 -0.00    +0.000 C 
DOCKED: ENDBRANCH  16  23
DOCKED: ENDBRANCH  14  19
DOCKED: ENDBRANCH   1  14
DOCKED: TORSDOF 7DOCKED: TER
DOCKED: ENDMDL
________________________________________________________________________________


	BEGINNING GENETIC ALGORITHM DOCKING 5 of 100
Run: 5 Seed: 1630691470 404751386 [ Run 5 of 100 GA/GALS ]
Beginning LAMARCKIAN GENETIC ALGORITHM (LGA), with a maximum of 2500000 energy evaluations.

Final-Value: -15.113


	FINAL GENETIC ALGORITHM DOCKED STATE
	_______________________________________________


Detailed state:  trans 36.278 14.580 122.876 quatxyzw -0.642004 0.507290 -0.387535 -0.424623 center 1.179 0.138 -0.353 ntor 7 8.5128 -15.3286 -48.9053 160.0965 163.5160 8.1598 172.4810
State:	 36.278  14.580 122.876  -0.709  0.560 -0.428 -129.746      8.51  -15.33  -48.91  160.10  163.52    8.16  172.48

DOCKED: MODEL        5
DOCKED: USER    Run = 5
DOCKED: USER    DPF = ligand_dock.biased.dpf
DOCKED: USER  
DOCKED: USER    Estimated Free Energy of Binding    =  -11.33 kcal/mol  [=(1)+(2)+(3)-(4)]
DOCKED: USER    Estimated Inhibition Constant, Ki   =    4.95 nM (nanomolar)  [Temperature = 298.15 K]
DOCKED: USER    
DOCKED: USER    (1) Final Intermolecular Energy     =  -13.42 kcal/mol
DOCKED: USER        vdW + Hbond + desolv Energy     =  -13.42 kcal/mol
DOCKED: USER        Electrostatic Energy            =   +0.00 kcal/mol
DOCKED: USER    (2) Final Total Internal Energy     =   -1.70 kcal/mol
DOCKED: USER    (3) Torsional Free Energy           =   +2.09 kcal/mol
DOCKED: USER    (4) Unbound System's Energy  [=(2)] =   -1.70 kcal/mol
DOCKED: USER    
DOCKED: USER    
DOCKED: USER    NEWDPF move ligand.dum.pdbqt
DOCKED: USER    NEWDPF about 1.179000 0.138000 -0.353000
DOCKED: USER    NEWDPF tran0 36.278324 14.579661 122.876029
DOCKED: USER    NEWDPF quaternion0 -0.642004 0.507290 -0.387535 -0.424623
DOCKED: USER    NEWDPF axisangle0 -0.709107 0.560312 -0.428040 -129.746392
DOCKED: USER    NEWDPF quat0 -0.709107 0.560312 -0.428040 -129.746392
DOCKED: USER    NEWDPF dihe0 8.51 -15.33 -48.91 160.10 163.52 8.16 172.48 
DOCKED: USER  keepresnum = 1 
DOCKED: USER  
DOCKED: REMARK  Name = 
DOCKED: REMARK  11 active torsions:
DOCKED: REMARK  status: ('A' for Active; 'I' for Inactive)
DOCKED: REMARK    1  A    between atoms: C_1  and  N_2
DOCKED: REMARK    2  A    between atoms: N_2  and  C_3
DOCKED: REMARK    3  A    between atoms: N_2  and  C_22
DOCKED: REMARK    4  A    between atoms: C_6  and  C_9
DOCKED: REMARK    5  A    between atoms: C_9  and  C_10
DOCKED: REMARK    6  A    between atoms: C_10  and  C_11
DOCKED: REMARK    7  A    between atoms: C_10  and  C_20
DOCKED: REMARK    8  A    between atoms: C_12  and  C_13
DOCKED: REMARK    9  A    between atoms: C_12  and  C_19
DOCKED: REMARK   10  A    between atoms: C_14  and  C_15
DOCKED: REMARK   11  A    between atoms: N_16  and  O_17
DOCKED: REMARK                            x       y       z     vdW  Elec       q    Type
DOCKED: REMARK                         _______ _______ _______ _____ _____    ______ ____
DOCKED: USER                              x       y       z     vdW  Elec       q    Type
DOCKED: USER                           _______ _______ _______ _____ _____    ______ ____
DOCKED: ROOT
DOCKED: ATOM      1  C   UNL     1      38.087  15.192 122.683 -0.38 -0.00    +0.000 C 
DOCKED: ATOM      2  C   UNL     1      39.557  15.468 122.350 -0.37 -0.00    +0.000 C 
DOCKED: ENDROOT
DOCKED: BRANCH   1   3
DOCKED: ATOM      3  C   UNL     1      37.821  13.701 122.706 -0.51 -0.00    +0.000 C 
DOCKED: ATOM      4  C   UNL     1      36.700  13.134 123.196 -0.61 -0.00    +0.000 C 
DOCKED: ATOM      5  C   UNL     1      35.585  13.962 123.797 -0.54 -0.00    +0.000 C 
DOCKED: BRANCH   4   6
DOCKED: ATOM      6  C   UNL     1      36.612  11.650 123.190 -0.70 -0.00    +0.000 C 
DOCKED: ATOM      7  C   UNL     1      36.998  10.897 122.149 -0.57 -0.00    +0.000 C 
DOCKED: BRANCH   7   8
DOCKED: ATOM      8  C   UNL     1      36.913   9.422 122.136 -0.66 -0.00    +0.000 C 
DOCKED: ATOM      9  N   UNL     1      37.043   8.635 123.327 -0.67 -0.00    +0.000 N 
DOCKED: ATOM     10  O   UNL     1      36.693   8.844 121.038 -2.62 -0.00    +0.000 OA
DOCKED: ATOM     11  H   UNL     1      37.111   9.079 124.203 -0.57 -0.00    +0.000 HD
DOCKED: BRANCH   9  12
DOCKED: ATOM     12  O   UNL     1      37.070   7.284 123.250 -2.08 -0.00    +0.000 OA
DOCKED: ATOM     13  H   UNL     1      37.127   7.013 122.321 -0.13 -0.00    +0.000 HD
DOCKED: ENDBRANCH   9  12
DOCKED: ENDBRANCH   7   8
DOCKED: ENDBRANCH   4   6
DOCKED: ENDBRANCH   1   3
DOCKED: BRANCH   1  14
DOCKED: ATOM     14  C   UNL     1      37.200  15.874 121.663 -0.25 -0.00    +0.000 C 
DOCKED: ATOM     15  O   UNL     1      36.531  16.884 122.019 -0.22 -0.00    +0.000 OA
DOCKED: BRANCH  14  19
DOCKED: ATOM     16  C   UNL     1      36.872  14.410 117.607 -0.30 -0.00    +0.000 A 
DOCKED: ATOM     17  C   UNL     1      37.594  13.698 118.586 -0.32 -0.00    +0.000 A 
DOCKED: ATOM     18  C   UNL     1      37.697  14.181 119.893 -0.31 -0.00    +0.000 A 
DOCKED: ATOM     19  C   UNL     1      37.078  15.385 120.265 -0.20 -0.00    +0.000 A 
DOCKED: ATOM     20  C   UNL     1      36.364  16.105 119.291 -0.15 -0.00    +0.000 A 
DOCKED: ATOM     21  C   UNL     1      36.262  15.624 117.982 -0.18 -0.00    +0.000 A 
DOCKED: ATOM     22  CM  UNL     1      36.978  14.900 118.937 +0.00 -0.00    +0.000 AC
DOCKED: BRANCH  16  23
DOCKED: ATOM     23  C   UNL     1      35.528  14.101 115.478 -0.30 -0.00    +0.000 C 
DOCKED: ATOM     24  N   UNL     1      36.764  13.910 116.248 -0.33 -0.00    +0.000 N 
DOCKED: ATOM     25  C   UNL     1      37.887  13.203 115.621 -0.47 -0.00    +0.000 C 
DOCKED: ENDBRANCH  16  23
DOCKED: ENDBRANCH  14  19
DOCKED: ENDBRANCH   1  14
DOCKED: TORSDOF 7DOCKED: TER
DOCKED: ENDMDL
________________________________________________________________________________


	BEGINNING GENETIC ALGORITHM DOCKING 6 of 100
Run: 6 Seed: 1819854404 1383409371 [ Run 6 of 100 GA/GALS ]
Beginning LAMARCKIAN GENETIC ALGORITHM (LGA), with a maximum of 2500000 energy evaluations.

Final-Value: -14.714


	FINAL GENETIC ALGORITHM DOCKED STATE
	_______________________________________________


Detailed state:  trans 38.169 15.075 122.338 quatxyzw -0.247343 0.374694 0.654942 0.607846 center 1.179 0.138 -0.353 ntor 7 13.2473 77.9667 29.5080 -30.6454 -62.4835 -31.2035 -80.9661
State:	 38.169  15.075 122.338  -0.311  0.472  0.825 105.132     13.25   77.97   29.51  -30.65  -62.48  -31.20  -80.97

DOCKED: MODEL        6
DOCKED: USER    Run = 6
DOCKED: USER    DPF = ligand_dock.biased.dpf
DOCKED: USER  
DOCKED: USER    Estimated Free Energy of Binding    =  -11.08 kcal/mol  [=(1)+(2)+(3)-(4)]
DOCKED: USER    Estimated Inhibition Constant, Ki   =    7.60 nM (nanomolar)  [Temperature = 298.15 K]
DOCKED: USER    
DOCKED: USER    (1) Final Intermolecular Energy     =  -13.16 kcal/mol
DOCKED: USER        vdW + Hbond + desolv Energy     =  -13.16 kcal/mol
DOCKED: USER        Electrostatic Energy            =   +0.00 kcal/mol
DOCKED: USER    (2) Final Total Internal Energy     =   -1.55 kcal/mol
DOCKED: USER    (3) Torsional Free Energy           =   +2.09 kcal/mol
DOCKED: USER    (4) Unbound System's Energy  [=(2)] =   -1.55 kcal/mol
DOCKED: USER    
DOCKED: USER    
DOCKED: USER    NEWDPF move ligand.dum.pdbqt
DOCKED: USER    NEWDPF about 1.179000 0.138000 -0.353000
DOCKED: USER    NEWDPF tran0 38.169177 15.075031 122.337596
DOCKED: USER    NEWDPF quaternion0 -0.247343 0.374694 0.654942 0.607846
DOCKED: USER    NEWDPF axisangle0 -0.311494 0.471874 0.824807 105.132106
DOCKED: USER    NEWDPF quat0 -0.311494 0.471874 0.824807 105.132106
DOCKED: USER    NEWDPF dihe0 13.25 77.97 29.51 -30.65 -62.48 -31.20 -80.97 
DOCKED: USER  keepresnum = 1 
DOCKED: USER  
DOCKED: REMARK  Name = 
DOCKED: REMARK  11 active torsions:
DOCKED: REMARK  status: ('A' for Active; 'I' for Inactive)
DOCKED: REMARK    1  A    between atoms: C_1  and  N_2
DOCKED: REMARK    2  A    between atoms: N_2  and  C_3
DOCKED: REMARK    3  A    between atoms: N_2  and  C_22
DOCKED: REMARK    4  A    between atoms: C_6  and  C_9
DOCKED: REMARK    5  A    between atoms: C_9  and  C_10
DOCKED: REMARK    6  A    between atoms: C_10  and  C_11
DOCKED: REMARK    7  A    between atoms: C_10  and  C_20
DOCKED: REMARK    8  A    between atoms: C_12  and  C_13
DOCKED: REMARK    9  A    between atoms: C_12  and  C_19
DOCKED: REMARK   10  A    between atoms: C_14  and  C_15
DOCKED: REMARK   11  A    between atoms: N_16  and  O_17
DOCKED: REMARK                            x       y       z     vdW  Elec       q    Type
DOCKED: REMARK                         _______ _______ _______ _____ _____    ______ ____
DOCKED: USER                              x       y       z     vdW  Elec       q    Type
DOCKED: USER                           _______ _______ _______ _____ _____    ______ ____
DOCKED: ROOT
DOCKED: ATOM      1  C   UNL     1      36.483  15.689 123.020 -0.38 -0.00    +0.000 C 
DOCKED: ATOM      2  C   UNL     1      35.182  15.994 123.768 -0.50 -0.00    +0.000 C 
DOCKED: ENDROOT
DOCKED: BRANCH   1   3
DOCKED: ATOM      3  C   UNL     1      36.815  14.214 123.116 -0.51 -0.00    +0.000 C 
DOCKED: ATOM      4  C   UNL     1      37.095  13.424 122.059 -0.49 -0.00    +0.000 C 
DOCKED: ATOM      5  C   UNL     1      37.084  13.955 120.642 -0.33 -0.00    +0.000 C 
DOCKED: BRANCH   4   6
DOCKED: ATOM      6  C   UNL     1      37.354  11.983 122.318 -0.48 -0.00    +0.000 C 
DOCKED: ATOM      7  C   UNL     1      36.692  10.996 121.695 -0.55 -0.00    +0.000 C 
DOCKED: BRANCH   7   8
DOCKED: ATOM      8  C   UNL     1      36.945   9.563 121.949 -0.63 -0.00    +0.000 C 
DOCKED: ATOM      9  N   UNL     1      37.034   9.020 123.272 -0.63 -0.00    +0.000 N 
DOCKED: ATOM     10  O   UNL     1      37.061   8.791 120.959 -2.65 -0.00    +0.000 OA
DOCKED: ATOM     11  H   UNL     1      36.843   9.593 124.050 -0.49 -0.00    +0.000 HD
DOCKED: BRANCH   9  12
DOCKED: ATOM     12  O   UNL     1      37.378   7.724 123.455 -2.20 -0.00    +0.000 OA
DOCKED: ATOM     13  H   UNL     1      37.730   7.362 122.627 -0.29 -0.00    +0.000 HD
DOCKED: ENDBRANCH   9  12
DOCKED: ENDBRANCH   7   8
DOCKED: ENDBRANCH   4   6
DOCKED: ENDBRANCH   1   3
DOCKED: BRANCH   1  14
DOCKED: ATOM     14  C   UNL     1      37.607  16.525 123.594 -0.27 -0.00    +0.000 C 
DOCKED: ATOM     15  O   UNL     1      37.343  17.341 124.520 -0.24 -0.00    +0.000 OA
DOCKED: BRANCH  14  19
DOCKED: ATOM     16  C   UNL     1      41.673  16.298 122.138 -0.32 -0.00    +0.000 A 
DOCKED: ATOM     17  C   UNL     1      41.089  17.532 122.489 -0.19 -0.00    +0.000 A 
DOCKED: ATOM     18  C   UNL     1      39.774  17.596 122.955 -0.18 -0.00    +0.000 A 
DOCKED: ATOM     19  C   UNL     1      39.003  16.430 123.093 -0.23 -0.00    +0.000 A 
DOCKED: ATOM     20  C   UNL     1      39.576  15.197 122.736 -0.30 -0.00    +0.000 A 
DOCKED: ATOM     21  C   UNL     1      40.892  15.132 122.267 -0.43 -0.00    +0.000 A 
DOCKED: ATOM     22  CM  UNL     1      40.334  16.364 122.613 +0.00 -0.00    +0.000 AC
DOCKED: BRANCH  16  23
DOCKED: ATOM     23  C   UNL     1      43.338  15.641 120.342 -0.24 -0.00    +0.000 C 
DOCKED: ATOM     24  N   UNL     1      43.040  16.230 121.653 -0.31 -0.00    +0.000 N 
DOCKED: ATOM     25  C   UNL     1      44.147  16.748 122.466 -0.34 -0.00    +0.000 C 
DOCKED: ENDBRANCH  16  23
DOCKED: ENDBRANCH  14  19
DOCKED: ENDBRANCH   1  14
DOCKED: TORSDOF 7DOCKED: TER
DOCKED: ENDMDL
________________________________________________________________________________


	BEGINNING GENETIC ALGORITHM DOCKING 7 of 100
Run: 7 Seed: 1489955303 616146457 [ Run 7 of 100 GA/GALS ]
Beginning LAMARCKIAN GENETIC ALGORITHM (LGA), with a maximum of 2500000 energy evaluations.

Final-Value: -14.550


	FINAL GENETIC ALGORITHM DOCKED STATE
	_______________________________________________


Detailed state:  trans 38.831 14.568 121.417 quatxyzw -0.279018 0.395375 0.730932 0.481214 center 1.179 0.138 -0.353 ntor 7 8.5657 174.9484 154.1487 -158.0972 -179.9888 -41.3267 -61.7423
State:	 38.831  14.568 121.417  -0.318  0.451  0.834 122.471      8.57  174.95  154.15 -158.10 -179.99  -41.33  -61.74

DOCKED: MODEL        7
DOCKED: USER    Run = 7
DOCKED: USER    DPF = ligand_dock.biased.dpf
DOCKED: USER  
DOCKED: USER    Estimated Free Energy of Binding    =  -10.67 kcal/mol  [=(1)+(2)+(3)-(4)]
DOCKED: USER    Estimated Inhibition Constant, Ki   =   15.06 nM (nanomolar)  [Temperature = 298.15 K]
DOCKED: USER    
DOCKED: USER    (1) Final Intermolecular Energy     =  -12.76 kcal/mol
DOCKED: USER        vdW + Hbond + desolv Energy     =  -12.76 kcal/mol
DOCKED: USER        Electrostatic Energy            =   +0.00 kcal/mol
DOCKED: USER    (2) Final Total Internal Energy     =   -1.79 kcal/mol
DOCKED: USER    (3) Torsional Free Energy           =   +2.09 kcal/mol
DOCKED: USER    (4) Unbound System's Energy  [=(2)] =   -1.79 kcal/mol
DOCKED: USER    
DOCKED: USER    
DOCKED: USER    NEWDPF move ligand.dum.pdbqt
DOCKED: USER    NEWDPF about 1.179000 0.138000 -0.353000
DOCKED: USER    NEWDPF tran0 38.831175 14.568494 121.417022
DOCKED: USER    NEWDPF quaternion0 -0.279018 0.395375 0.730932 0.481214
DOCKED: USER    NEWDPF axisangle0 -0.318294 0.451031 0.833823 122.470573
DOCKED: USER    NEWDPF quat0 -0.318294 0.451031 0.833823 122.470573
DOCKED: USER    NEWDPF dihe0 8.57 174.95 154.15 -158.10 -179.99 -41.33 -61.74 
DOCKED: USER  keepresnum = 1 
DOCKED: USER  
DOCKED: REMARK  Name = 
DOCKED: REMARK  11 active torsions:
DOCKED: REMARK  status: ('A' for Active; 'I' for Inactive)
DOCKED: REMARK    1  A    between atoms: C_1  and  N_2
DOCKED: REMARK    2  A    between atoms: N_2  and  C_3
DOCKED: REMARK    3  A    between atoms: N_2  and  C_22
DOCKED: REMARK    4  A    between atoms: C_6  and  C_9
DOCKED: REMARK    5  A    between atoms: C_9  and  C_10
DOCKED: REMARK    6  A    between atoms: C_10  and  C_11
DOCKED: REMARK    7  A    between atoms: C_10  and  C_20
DOCKED: REMARK    8  A    between atoms: C_12  and  C_13
DOCKED: REMARK    9  A    between atoms: C_12  and  C_19
DOCKED: REMARK   10  A    between atoms: C_14  and  C_15
DOCKED: REMARK   11  A    between atoms: N_16  and  O_17
DOCKED: REMARK                            x       y       z     vdW  Elec       q    Type
DOCKED: REMARK                         _______ _______ _______ _____ _____    ______ ____
DOCKED: USER                              x       y       z     vdW  Elec       q    Type
DOCKED: USER                           _______ _______ _______ _____ _____    ______ ____
DOCKED: ROOT
DOCKED: ATOM      1  C   UNL     1      37.258  15.502 121.997 -0.30 -0.00    +0.000 C 
DOCKED: ATOM      2  C   UNL     1      35.973  16.036 122.639 -0.33 -0.00    +0.000 C 
DOCKED: ENDROOT
DOCKED: BRANCH   1   3
DOCKED: ATOM      3  C   UNL     1      37.219  13.990 121.914 -0.42 -0.00    +0.000 C 
DOCKED: ATOM      4  C   UNL     1      37.256  13.288 120.763 -0.45 -0.00    +0.000 C 
DOCKED: ATOM      5  C   UNL     1      37.323  13.971 119.414 -0.37 -0.00    +0.000 C 
DOCKED: BRANCH   4   6
DOCKED: ATOM      6  C   UNL     1      37.161  11.807 120.849 -0.51 -0.00    +0.000 C 
DOCKED: ATOM      7  C   UNL     1      37.067  11.145 122.012 -0.55 -0.00    +0.000 C 
DOCKED: BRANCH   7   8
DOCKED: ATOM      8  C   UNL     1      36.974   9.673 122.104 -0.62 -0.00    +0.000 C 
DOCKED: ATOM      9  N   UNL     1      37.039   8.976 123.355 -0.61 -0.00    +0.000 N 
DOCKED: ATOM     10  O   UNL     1      36.807   9.015 121.042 -2.64 -0.00    +0.000 OA
DOCKED: ATOM     11  H   UNL     1      37.066   9.484 124.199 -0.58 -0.00    +0.000 HD
DOCKED: BRANCH   9  12
DOCKED: ATOM     12  O   UNL     1      37.062   7.623 123.380 -2.25 -0.00    +0.000 OA
DOCKED: ATOM     13  H   UNL     1      37.165   7.284 122.477 -0.11 -0.00    +0.000 HD
DOCKED: ENDBRANCH   9  12
DOCKED: ENDBRANCH   7   8
DOCKED: ENDBRANCH   4   6
DOCKED: ENDBRANCH   1   3
DOCKED: BRANCH   1  14
DOCKED: ATOM     14  C   UNL     1      38.455  15.959 122.803 -0.30 -0.00    +0.000 C 
DOCKED: ATOM     15  O   UNL     1      38.270  16.379 123.979 -0.26 -0.00    +0.000 OA
DOCKED: BRANCH  14  19
DOCKED: ATOM     16  C   UNL     1      42.450  15.928 121.147 -0.26 -0.00    +0.000 A 
DOCKED: ATOM     17  C   UNL     1      41.313  15.967 120.315 -0.15 -0.00    +0.000 A 
DOCKED: ATOM     18  C   UNL     1      40.027  15.974 120.859 -0.19 -0.00    +0.000 A 
DOCKED: ATOM     19  C   UNL     1      39.835  15.948 122.250 -0.28 -0.00    +0.000 A 
DOCKED: ATOM     20  C   UNL     1      40.964  15.899 123.085 -0.32 -0.00    +0.000 A 
DOCKED: ATOM     21  C   UNL     1      42.252  15.890 122.542 -0.43 -0.00    +0.000 A 
DOCKED: ATOM     22  CM  UNL     1      41.140  15.934 121.700 +0.00 -0.00    +0.000 AC
DOCKED: BRANCH  16  23
DOCKED: ATOM     23  C   UNL     1      44.023  15.407 119.228 -0.30 -0.00    +0.000 C 
DOCKED: ATOM     24  N   UNL     1      43.788  15.920 120.583 -0.26 -0.00    +0.000 N 
DOCKED: ATOM     25  C   UNL     1      44.928  16.423 121.358 -0.26 +0.00    +0.000 C 
DOCKED: ENDBRANCH  16  23
DOCKED: ENDBRANCH  14  19
DOCKED: ENDBRANCH   1  14
DOCKED: TORSDOF 7DOCKED: TER
DOCKED: ENDMDL
________________________________________________________________________________


	BEGINNING GENETIC ALGORITHM DOCKING 8 of 100
Run: 8 Seed: 68576282 1195153534 [ Run 8 of 100 GA/GALS ]
Beginning LAMARCKIAN GENETIC ALGORITHM (LGA), with a maximum of 2500000 energy evaluations.

Final-Value: -14.957


	FINAL GENETIC ALGORITHM DOCKED STATE
	_______________________________________________


Detailed state:  trans 36.174 14.404 123.799 quatxyzw 0.692043 -0.602905 0.087348 0.387237 center 1.179 0.138 -0.353 ntor 7 14.8836 -131.1197 160.7472 -153.3947 -106.3294 152.3655 -34.1184
State:	 36.174  14.404 123.799   0.751 -0.654  0.095 134.435     14.88 -131.12  160.75 -153.39 -106.33  152.37  -34.12

DOCKED: MODEL        8
DOCKED: USER    Run = 8
DOCKED: USER    DPF = ligand_dock.biased.dpf
DOCKED: USER  
DOCKED: USER    Estimated Free Energy of Binding    =  -11.55 kcal/mol  [=(1)+(2)+(3)-(4)]
DOCKED: USER    Estimated Inhibition Constant, Ki   =    3.44 nM (nanomolar)  [Temperature = 298.15 K]
DOCKED: USER    
DOCKED: USER    (1) Final Intermolecular Energy     =  -13.63 kcal/mol
DOCKED: USER        vdW + Hbond + desolv Energy     =  -13.63 kcal/mol
DOCKED: USER        Electrostatic Energy            =   +0.00 kcal/mol
DOCKED: USER    (2) Final Total Internal Energy     =   -1.32 kcal/mol
DOCKED: USER    (3) Torsional Free Energy           =   +2.09 kcal/mol
DOCKED: USER    (4) Unbound System's Energy  [=(2)] =   -1.32 kcal/mol
DOCKED: USER    
DOCKED: USER    
DOCKED: USER    NEWDPF move ligand.dum.pdbqt
DOCKED: USER    NEWDPF about 1.179000 0.138000 -0.353000
DOCKED: USER    NEWDPF tran0 36.173563 14.404282 123.798976
DOCKED: USER    NEWDPF quaternion0 0.692043 -0.602905 0.087348 0.387237
DOCKED: USER    NEWDPF axisangle0 0.750605 -0.653924 0.094740 134.434635
DOCKED: USER    NEWDPF quat0 0.750605 -0.653924 0.094740 134.434635
DOCKED: USER    NEWDPF dihe0 14.88 -131.12 160.75 -153.39 -106.33 152.37 -34.12 
DOCKED: USER  keepresnum = 1 
DOCKED: USER  
DOCKED: REMARK  Name = 
DOCKED: REMARK  11 active torsions:
DOCKED: REMARK  status: ('A' for Active; 'I' for Inactive)
DOCKED: REMARK    1  A    between atoms: C_1  and  N_2
DOCKED: REMARK    2  A    between atoms: N_2  and  C_3
DOCKED: REMARK    3  A    between atoms: N_2  and  C_22
DOCKED: REMARK    4  A    between atoms: C_6  and  C_9
DOCKED: REMARK    5  A    between atoms: C_9  and  C_10
DOCKED: REMARK    6  A    between atoms: C_10  and  C_11
DOCKED: REMARK    7  A    between atoms: C_10  and  C_20
DOCKED: REMARK    8  A    between atoms: C_12  and  C_13
DOCKED: REMARK    9  A    between atoms: C_12  and  C_19
DOCKED: REMARK   10  A    between atoms: C_14  and  C_15
DOCKED: REMARK   11  A    between atoms: N_16  and  O_17
DOCKED: REMARK                            x       y       z     vdW  Elec       q    Type
DOCKED: REMARK                         _______ _______ _______ _____ _____    ______ ____
DOCKED: USER                              x       y       z     vdW  Elec       q    Type
DOCKED: USER                           _______ _______ _______ _____ _____    ______ ____
DOCKED: ROOT
DOCKED: ATOM      1  C   UNL     1      37.549  15.435 122.943 -0.37 -0.00    +0.000 C 
DOCKED: ATOM      2  C   UNL     1      38.586  16.102 122.036 -0.25 -0.00    +0.000 C 
DOCKED: ENDROOT
DOCKED: BRANCH   1   3
DOCKED: ATOM      3  C   UNL     1      37.438  13.958 122.624 -0.50 -0.00    +0.000 C 
DOCKED: ATOM      4  C   UNL     1      37.306  13.454 121.380 -0.45 -0.00    +0.000 C 
DOCKED: ATOM      5  C   UNL     1      37.238  14.348 120.161 -0.31 -0.00    +0.000 C 
DOCKED: BRANCH   4   6
DOCKED: ATOM      6  C   UNL     1      37.161  11.981 121.238 -0.54 -0.00    +0.000 C 
DOCKED: ATOM      7  C   UNL     1      37.090  11.148 122.287 -0.54 -0.00    +0.000 C 
DOCKED: BRANCH   7   8
DOCKED: ATOM      8  C   UNL     1      36.947   9.683 122.153 -0.63 -0.00    +0.000 C 
DOCKED: ATOM      9  N   UNL     1      36.898   8.809 123.288 -0.64 -0.00    +0.000 N 
DOCKED: ATOM     10  O   UNL     1      36.840   9.195 120.996 -2.65 -0.00    +0.000 OA
DOCKED: ATOM     11  H   UNL     1      36.877   9.187 124.197 -0.52 -0.00    +0.000 HD
DOCKED: BRANCH   9  12
DOCKED: ATOM     12  O   UNL     1      36.879   7.467 123.113 -2.15 -0.00    +0.000 OA
DOCKED: ATOM     13  H   UNL     1      37.138   7.255 122.202 -0.10 -0.00    +0.000 HD
DOCKED: ENDBRANCH   9  12
DOCKED: ENDBRANCH   7   8
DOCKED: ENDBRANCH   4   6
DOCKED: ENDBRANCH   1   3
DOCKED: BRANCH   1  14
DOCKED: ATOM     14  C   UNL     1      36.209  16.118 122.769 -0.34 -0.00    +0.000 C 
DOCKED: ATOM     15  O   UNL     1      35.811  16.383 121.601 -0.26 -0.00    +0.000 OA
DOCKED: BRANCH  14  19
DOCKED: ATOM     16  C   UNL     1      33.750  17.279 126.132 -0.36 -0.00    +0.000 A 
DOCKED: ATOM     17  C   UNL     1      34.619  18.197 125.509 -0.30 -0.00    +0.000 A 
DOCKED: ATOM     18  C   UNL     1      35.412  17.812 124.425 -0.28 -0.00    +0.000 A 
DOCKED: ATOM     19  C   UNL     1      35.357  16.501 123.925 -0.39 -0.00    +0.000 A 
DOCKED: ATOM     20  C   UNL     1      34.500  15.578 124.548 -0.52 -0.00    +0.000 A 
DOCKED: ATOM     21  C   UNL     1      33.707  15.961 125.634 -0.25 -0.00    +0.000 A 
DOCKED: ATOM     22  CM  UNL     1      34.558  16.888 125.029 -0.26 -0.00    +0.000 AC
DOCKED: BRANCH  16  23
DOCKED: ATOM     23  C   UNL     1      32.483  19.070 127.403 -0.25 -0.00    +0.000 C 
DOCKED: ATOM     24  N   UNL     1      32.926  17.678 127.258 -0.33 -0.00    +0.000 N 
DOCKED: ATOM     25  C   UNL     1      32.523  16.697 128.274 -0.45 -0.00    +0.000 C 
DOCKED: ENDBRANCH  16  23
DOCKED: ENDBRANCH  14  19
DOCKED: ENDBRANCH   1  14
DOCKED: TORSDOF 7DOCKED: TER
DOCKED: ENDMDL
________________________________________________________________________________


	BEGINNING GENETIC ALGORITHM DOCKING 9 of 100
Run: 9 Seed: 711760421 1308542302 [ Run 9 of 100 GA/GALS ]
Beginning LAMARCKIAN GENETIC ALGORITHM (LGA), with a maximum of 2500000 energy evaluations.

Final-Value: -14.453


	FINAL GENETIC ALGORITHM DOCKED STATE
	_______________________________________________


Detailed state:  trans 36.556 14.532 122.084 quatxyzw -0.607447 0.379178 -0.419491 -0.557906 center 1.179 0.138 -0.353 ntor 7 34.2763 60.5046 69.7910 44.5487 -106.4237 -1.6895 -171.9073
State:	 36.556  14.532 122.084  -0.732  0.457 -0.505 -112.178     34.28   60.50   69.79   44.55 -106.42   -1.69 -171.91

DOCKED: MODEL        9
DOCKED: USER    Run = 9
DOCKED: USER    DPF = ligand_dock.biased.dpf
DOCKED: USER  
DOCKED: USER    Estimated Free Energy of Binding    =  -10.61 kcal/mol  [=(1)+(2)+(3)-(4)]
DOCKED: USER    Estimated Inhibition Constant, Ki   =   16.76 nM (nanomolar)  [Temperature = 298.15 K]
DOCKED: USER    
DOCKED: USER    (1) Final Intermolecular Energy     =  -12.70 kcal/mol
DOCKED: USER        vdW + Hbond + desolv Energy     =  -12.70 kcal/mol
DOCKED: USER        Electrostatic Energy            =   +0.00 kcal/mol
DOCKED: USER    (2) Final Total Internal Energy     =   -1.76 kcal/mol
DOCKED: USER    (3) Torsional Free Energy           =   +2.09 kcal/mol
DOCKED: USER    (4) Unbound System's Energy  [=(2)] =   -1.76 kcal/mol
DOCKED: USER    
DOCKED: USER    
DOCKED: USER    NEWDPF move ligand.dum.pdbqt
DOCKED: USER    NEWDPF about 1.179000 0.138000 -0.353000
DOCKED: USER    NEWDPF tran0 36.555613 14.532498 122.084161
DOCKED: USER    NEWDPF quaternion0 -0.607447 0.379178 -0.419491 -0.557906
DOCKED: USER    NEWDPF axisangle0 -0.731948 0.456894 -0.505469 -112.177791
DOCKED: USER    NEWDPF quat0 -0.731948 0.456894 -0.505469 -112.177791
DOCKED: USER    NEWDPF dihe0 34.28 60.50 69.79 44.55 -106.42 -1.69 -171.91 
DOCKED: USER  keepresnum = 1 
DOCKED: USER  
DOCKED: REMARK  Name = 
DOCKED: REMARK  11 active torsions:
DOCKED: REMARK  status: ('A' for Active; 'I' for Inactive)
DOCKED: REMARK    1  A    between atoms: C_1  and  N_2
DOCKED: REMARK    2  A    between atoms: N_2  and  C_3
DOCKED: REMARK    3  A    between atoms: N_2  and  C_22
DOCKED: REMARK    4  A    between atoms: C_6  and  C_9
DOCKED: REMARK    5  A    between atoms: C_9  and  C_10
DOCKED: REMARK    6  A    between atoms: C_10  and  C_11
DOCKED: REMARK    7  A    between atoms: C_10  and  C_20
DOCKED: REMARK    8  A    between atoms: C_12  and  C_13
DOCKED: REMARK    9  A    between atoms: C_12  and  C_19
DOCKED: REMARK   10  A    between atoms: C_14  and  C_15
DOCKED: REMARK   11  A    between atoms: N_16  and  O_17
DOCKED: REMARK                            x       y       z     vdW  Elec       q    Type
DOCKED: REMARK                         _______ _______ _______ _____ _____    ______ ____
DOCKED: USER                              x       y       z     vdW  Elec       q    Type
DOCKED: USER                           _______ _______ _______ _____ _____    ______ ____
DOCKED: ROOT
DOCKED: ATOM      1  C   UNL     1      38.166  15.496 122.489 -0.34 -0.00    +0.000 C 
DOCKED: ATOM      2  C   UNL     1      39.574  16.079 122.644 -0.31 -0.00    +0.000 C 
DOCKED: ENDROOT
DOCKED: BRANCH   1   3
DOCKED: ATOM      3  C   UNL     1      38.228  13.987 122.375 -0.46 -0.00    +0.000 C 
DOCKED: ATOM      4  C   UNL     1      37.202  13.157 122.654 -0.56 -0.00    +0.000 C 
DOCKED: ATOM      5  C   UNL     1      35.865  13.677 123.136 -0.41 -0.00    +0.000 C 
DOCKED: BRANCH   4   6
DOCKED: ATOM      6  C   UNL     1      37.439  11.694 122.538 -0.37 -0.00    +0.000 C 
DOCKED: ATOM      7  C   UNL     1      36.451  10.802 122.377 -0.67 -0.00    +0.000 C 
DOCKED: BRANCH   7   8
DOCKED: ATOM      8  C   UNL     1      36.680   9.346 122.261 -0.72 -0.00    +0.000 C 
DOCKED: ATOM      9  N   UNL     1      36.749   8.486 123.406 -0.66 -0.00    +0.000 N 
DOCKED: ATOM     10  O   UNL     1      36.795   8.847 121.110 -2.64 -0.00    +0.000 OA
DOCKED: ATOM     11  H   UNL     1      36.558   8.848 124.302 -0.37 -0.00    +0.000 HD
DOCKED: BRANCH   9  12
DOCKED: ATOM     12  O   UNL     1      37.072   7.181 123.258 -1.97 -0.00    +0.000 OA
DOCKED: ATOM     13  H   UNL     1      37.711   7.085 122.535 -0.36 -0.00    +0.000 HD
DOCKED: ENDBRANCH   9  12
DOCKED: ENDBRANCH   7   8
DOCKED: ENDBRANCH   4   6
DOCKED: ENDBRANCH   1   3
DOCKED: BRANCH   1  14
DOCKED: ATOM     14  C   UNL     1      37.501  16.094 121.267 -0.21 -0.00    +0.000 C 
DOCKED: ATOM     15  O   UNL     1      36.778  17.119 121.411 -0.18 -0.00    +0.000 OA
DOCKED: BRANCH  14  19
DOCKED: ATOM     16  C   UNL     1      37.908  14.354 117.329 -0.26 -0.00    +0.000 A 
DOCKED: ATOM     17  C   UNL     1      36.796  14.065 118.146 -0.34 -0.00    +0.000 A 
DOCKED: ATOM     18  C   UNL     1      36.675  14.629 119.418 -0.17 -0.00    +0.000 A 
DOCKED: ATOM     19  C   UNL     1      37.655  15.504 119.912 -0.19 -0.00    +0.000 A 
DOCKED: ATOM     20  C   UNL     1      38.771  15.789 119.106 -0.14 -0.00    +0.000 A 
DOCKED: ATOM     21  C   UNL     1      38.895  15.224 117.834 -0.14 -0.00    +0.000 A 
DOCKED: ATOM     22  CM  UNL     1      37.783  14.927 118.625 +0.00 -0.00    +0.000 AC
DOCKED: BRANCH  16  23
DOCKED: ATOM     23  C   UNL     1      39.339  13.298 115.521 -0.49 -0.00    +0.000 C 
DOCKED: ATOM     24  N   UNL     1      38.035  13.768 116.007 -0.38 -0.00    +0.000 N 
DOCKED: ATOM     25  C   UNL     1      36.864  13.636 115.132 -0.36 -0.00    +0.000 C 
DOCKED: ENDBRANCH  16  23
DOCKED: ENDBRANCH  14  19
DOCKED: ENDBRANCH   1  14
DOCKED: TORSDOF 7DOCKED: TER
DOCKED: ENDMDL
________________________________________________________________________________


	BEGINNING GENETIC ALGORITHM DOCKING 10 of 100
Run: 10 Seed: 1346387794 1964292999 [ Run 10 of 100 GA/GALS ]
Beginning LAMARCKIAN GENETIC ALGORITHM (LGA), with a maximum of 2500000 energy evaluations.

Final-Value: -14.873


	FINAL GENETIC ALGORITHM DOCKED STATE
	_______________________________________________


Detailed state:  trans 39.000 14.304 121.990 quatxyzw 0.335349 -0.549183 -0.656502 -0.393630 center 1.179 0.138 -0.353 ntor 7 13.4984 56.4741 -51.4300 -159.7945 110.2779 147.8491 -42.8895
State:	 39.000  14.304 121.990   0.365 -0.597 -0.714 -133.639     13.50   56.47  -51.43 -159.79  110.28  147.85  -42.89

DOCKED: MODEL       10
DOCKED: USER    Run = 10
DOCKED: USER    DPF = ligand_dock.biased.dpf
DOCKED: USER  
DOCKED: USER    Estimated Free Energy of Binding    =  -11.35 kcal/mol  [=(1)+(2)+(3)-(4)]
DOCKED: USER    Estimated Inhibition Constant, Ki   =    4.81 nM (nanomolar)  [Temperature = 298.15 K]
DOCKED: USER    
DOCKED: USER    (1) Final Intermolecular Energy     =  -13.44 kcal/mol
DOCKED: USER        vdW + Hbond + desolv Energy     =  -13.44 kcal/mol
DOCKED: USER        Electrostatic Energy            =   +0.00 kcal/mol
DOCKED: USER    (2) Final Total Internal Energy     =   -1.44 kcal/mol
DOCKED: USER    (3) Torsional Free Energy           =   +2.09 kcal/mol
DOCKED: USER    (4) Unbound System's Energy  [=(2)] =   -1.44 kcal/mol
DOCKED: USER    
DOCKED: USER    
DOCKED: USER    NEWDPF move ligand.dum.pdbqt
DOCKED: USER    NEWDPF about 1.179000 0.138000 -0.353000
DOCKED: USER    NEWDPF tran0 38.999878 14.303978 121.990402
DOCKED: USER    NEWDPF quaternion0 0.335349 -0.549183 -0.656502 -0.393630
DOCKED: USER    NEWDPF axisangle0 0.364799 -0.597413 -0.714156 -133.638842
DOCKED: USER    NEWDPF quat0 0.364799 -0.597413 -0.714156 -133.638842
DOCKED: USER    NEWDPF dihe0 13.50 56.47 -51.43 -159.79 110.28 147.85 -42.89 
DOCKED: USER  keepresnum = 1 
DOCKED: USER  
DOCKED: REMARK  Name = 
DOCKED: REMARK  11 active torsions:
DOCKED: REMARK  status: ('A' for Active; 'I' for Inactive)
DOCKED: REMARK    1  A    between atoms: C_1  and  N_2
DOCKED: REMARK    2  A    between atoms: N_2  and  C_3
DOCKED: REMARK    3  A    between atoms: N_2  and  C_22
DOCKED: REMARK    4  A    between atoms: C_6  and  C_9
DOCKED: REMARK    5  A    between atoms: C_9  and  C_10
DOCKED: REMARK    6  A    between atoms: C_10  and  C_11
DOCKED: REMARK    7  A    between atoms: C_10  and  C_20
DOCKED: REMARK    8  A    between atoms: C_12  and  C_13
DOCKED: REMARK    9  A    between atoms: C_12  and  C_19
DOCKED: REMARK   10  A    between atoms: C_14  and  C_15
DOCKED: REMARK   11  A    between atoms: N_16  and  O_17
DOCKED: REMARK                            x       y       z     vdW  Elec       q    Type
DOCKED: REMARK                         _______ _______ _______ _____ _____    ______ ____
DOCKED: USER                              x       y       z     vdW  Elec       q    Type
DOCKED: USER                           _______ _______ _______ _____ _____    ______ ____
DOCKED: ROOT
DOCKED: ATOM      1  C   UNL     1      37.455  15.433 121.838 -0.30 -0.00    +0.000 C 
DOCKED: ATOM      2  C   UNL     1      36.110  16.162 121.906 -0.21 -0.00    +0.000 C 
DOCKED: ENDROOT
DOCKED: BRANCH   1   3
DOCKED: ATOM      3  C   UNL     1      37.255  13.939 121.990 -0.44 -0.00    +0.000 C 
DOCKED: ATOM      4  C   UNL     1      36.576  13.358 123.001 -0.57 -0.00    +0.000 C 
DOCKED: ATOM      5  C   UNL     1      35.951  14.174 124.112 -0.50 -0.00    +0.000 C 
DOCKED: BRANCH   4   6
DOCKED: ATOM      6  C   UNL     1      36.511  11.873 123.032 -0.68 -0.00    +0.000 C 
DOCKED: ATOM      7  C   UNL     1      37.043  11.096 122.077 -0.56 -0.00    +0.000 C 
DOCKED: BRANCH   7   8
DOCKED: ATOM      8  C   UNL     1      36.980   9.620 122.102 -0.62 -0.00    +0.000 C 
DOCKED: ATOM      9  N   UNL     1      37.016   8.871 123.323 -0.63 -0.00    +0.000 N 
DOCKED: ATOM     10  O   UNL     1      36.868   9.006 121.007 -2.66 -0.00    +0.000 OA
DOCKED: ATOM     11  H   UNL     1      37.000   9.342 124.188 -0.56 -0.00    +0.000 HD
DOCKED: BRANCH   9  12
DOCKED: ATOM     12  O   UNL     1      37.070   7.519 123.291 -2.22 -0.00    +0.000 OA
DOCKED: ATOM     13  H   UNL     1      37.292   7.224 122.393 -0.15 -0.00    +0.000 HD
DOCKED: ENDBRANCH   9  12
DOCKED: ENDBRANCH   7   8
DOCKED: ENDBRANCH   4   6
DOCKED: ENDBRANCH   1   3
DOCKED: BRANCH   1  14
DOCKED: ATOM     14  C   UNL     1      38.372  15.959 122.921 -0.31 -0.00    +0.000 C 
DOCKED: ATOM     15  O   UNL     1      37.873  16.281 124.035 -0.26 -0.00    +0.000 OA
DOCKED: BRANCH  14  19
DOCKED: ATOM     16  C   UNL     1      42.628  16.394 122.290 -0.36 -0.00    +0.000 A 
DOCKED: ATOM     17  C   UNL     1      41.949  15.218 121.914 -0.38 -0.00    +0.000 A 
DOCKED: ATOM     18  C   UNL     1      40.575  15.085 122.125 -0.39 -0.00    +0.000 A 
DOCKED: ATOM     19  C   UNL     1      39.834  16.124 122.711 -0.28 -0.00    +0.000 A 
DOCKED: ATOM     20  C   UNL     1      40.507  17.296 123.097 -0.24 -0.00    +0.000 A 
DOCKED: ATOM     21  C   UNL     1      41.883  17.430 122.889 -0.27 -0.00    +0.000 A 
DOCKED: ATOM     22  CM  UNL     1      41.229  16.257 122.505 +0.00 -0.00    +0.000 AC
DOCKED: BRANCH  16  23
DOCKED: ATOM     23  C   UNL     1      44.894  17.250 123.042 -0.27 -0.00    +0.000 C 
DOCKED: ATOM     24  N   UNL     1      44.057  16.534 122.072 -0.31 -0.00    +0.000 N 
DOCKED: ATOM     25  C   UNL     1      44.689  15.963 120.877 -0.27 +0.00    +0.000 C 
DOCKED: ENDBRANCH  16  23
DOCKED: ENDBRANCH  14  19
DOCKED: ENDBRANCH   1  14
DOCKED: TORSDOF 7DOCKED: TER
DOCKED: ENDMDL
________________________________________________________________________________


	BEGINNING GENETIC ALGORITHM DOCKING 11 of 100
Run: 11 Seed: 1764764891 1051286992 [ Run 11 of 100 GA/GALS ]
Beginning LAMARCKIAN GENETIC ALGORITHM (LGA), with a maximum of 2500000 energy evaluations.

Final-Value: -14.607


	FINAL GENETIC ALGORITHM DOCKED STATE
	_______________________________________________


Detailed state:  trans 37.109 14.326 120.515 quatxyzw 0.375676 -0.083727 0.738979 0.552963 center 1.179 0.138 -0.353 ntor 7 5.2152 -73.4044 -59.1733 175.1859 111.2969 -70.7256 -79.0549
State:	 37.109  14.326 120.515   0.451 -0.100  0.887 112.859      5.22  -73.40  -59.17  175.19  111.30  -70.73  -79.05

DOCKED: MODEL       11
DOCKED: USER    Run = 11
DOCKED: USER    DPF = ligand_dock.biased.dpf
DOCKED: USER  
DOCKED: USER    Estimated Free Energy of Binding    =  -10.84 kcal/mol  [=(1)+(2)+(3)-(4)]
DOCKED: USER    Estimated Inhibition Constant, Ki   =   11.35 nM (nanomolar)  [Temperature = 298.15 K]
DOCKED: USER    
DOCKED: USER    (1) Final Intermolecular Energy     =  -12.93 kcal/mol
DOCKED: USER        vdW + Hbond + desolv Energy     =  -12.93 kcal/mol
DOCKED: USER        Electrostatic Energy            =   +0.00 kcal/mol
DOCKED: USER    (2) Final Total Internal Energy     =   -1.68 kcal/mol
DOCKED: USER    (3) Torsional Free Energy           =   +2.09 kcal/mol
DOCKED: USER    (4) Unbound System's Energy  [=(2)] =   -1.68 kcal/mol
DOCKED: USER    
DOCKED: USER    
DOCKED: USER    NEWDPF move ligand.dum.pdbqt
DOCKED: USER    NEWDPF about 1.179000 0.138000 -0.353000
DOCKED: USER    NEWDPF tran0 37.109471 14.325839 120.515079
DOCKED: USER    NEWDPF quaternion0 0.375676 -0.083727 0.738979 0.552963
DOCKED: USER    NEWDPF axisangle0 0.450880 -0.100487 0.886910 112.858928
DOCKED: USER    NEWDPF quat0 0.450880 -0.100487 0.886910 112.858928
DOCKED: USER    NEWDPF dihe0 5.22 -73.40 -59.17 175.19 111.30 -70.73 -79.05 
DOCKED: USER  keepresnum = 1 
DOCKED: USER  
DOCKED: REMARK  Name = 
DOCKED: REMARK  11 active torsions:
DOCKED: REMARK  status: ('A' for Active; 'I' for Inactive)
DOCKED: REMARK    1  A    between atoms: C_1  and  N_2
DOCKED: REMARK    2  A    between atoms: N_2  and  C_3
DOCKED: REMARK    3  A    between atoms: N_2  and  C_22
DOCKED: REMARK    4  A    between atoms: C_6  and  C_9
DOCKED: REMARK    5  A    between atoms: C_9  and  C_10
DOCKED: REMARK    6  A    between atoms: C_10  and  C_11
DOCKED: REMARK    7  A    between atoms: C_10  and  C_20
DOCKED: REMARK    8  A    between atoms: C_12  and  C_13
DOCKED: REMARK    9  A    between atoms: C_12  and  C_19
DOCKED: REMARK   10  A    between atoms: C_14  and  C_15
DOCKED: REMARK   11  A    between atoms: N_16  and  O_17
DOCKED: REMARK                            x       y       z     vdW  Elec       q    Type
DOCKED: REMARK                         _______ _______ _______ _____ _____    ______ ____
DOCKED: USER                              x       y       z     vdW  Elec       q    Type
DOCKED: USER                           _______ _______ _______ _____ _____    ______ ____
DOCKED: ROOT
DOCKED: ATOM      1  C   UNL     1      37.969  15.287 121.937 -0.32 -0.00    +0.000 C 
DOCKED: ATOM      2  C   UNL     1      38.808  15.822 123.102 -0.26 -0.00    +0.000 C 
DOCKED: ENDROOT
DOCKED: BRANCH   1   3
DOCKED: ATOM      3  C   UNL     1      37.695  13.808 122.117 -0.47 -0.00    +0.000 C 
DOCKED: ATOM      4  C   UNL     1      36.640  13.303 122.789 -0.56 -0.00    +0.000 C 
DOCKED: ATOM      5  C   UNL     1      35.617  14.198 123.454 -0.51 -0.00    +0.000 C 
DOCKED: BRANCH   4   6
DOCKED: ATOM      6  C   UNL     1      36.540  11.825 122.917 -0.68 -0.00    +0.000 C 
DOCKED: ATOM      7  C   UNL     1      37.057  10.975 122.018 -0.55 -0.00    +0.000 C 
DOCKED: BRANCH   7   8
DOCKED: ATOM      8  C   UNL     1      36.960   9.505 122.139 -0.64 -0.00    +0.000 C 
DOCKED: ATOM      9  N   UNL     1      37.135   8.825 123.388 -0.61 -0.00    +0.000 N 
DOCKED: ATOM     10  O   UNL     1      36.690   8.835 121.106 -2.61 -0.00    +0.000 OA
DOCKED: ATOM     11  H   UNL     1      37.244   9.344 124.218 -0.60 -0.00    +0.000 HD
DOCKED: BRANCH   9  12
DOCKED: ATOM     12  O   UNL     1      37.149   7.472 123.430 -2.14 -0.00    +0.000 OA
DOCKED: ATOM     13  H   UNL     1      37.112   7.119 122.527 -0.12 -0.00    +0.000 HD
DOCKED: ENDBRANCH   9  12
DOCKED: ENDBRANCH   7   8
DOCKED: ENDBRANCH   4   6
DOCKED: ENDBRANCH   1   3
DOCKED: BRANCH   1  14
DOCKED: ATOM     14  C   UNL     1      38.696  15.537 120.633 -0.23 -0.00    +0.000 C 
DOCKED: ATOM     15  O   UNL     1      39.817  16.116 120.664 -0.19 -0.00    +0.000 OA
DOCKED: BRANCH  14  19
DOCKED: ATOM     16  C   UNL     1      37.026  14.338 116.828 -0.29 -0.00    +0.000 A 
DOCKED: ATOM     17  C   UNL     1      37.020  13.468 117.937 -0.37 -0.00    +0.000 A 
DOCKED: ATOM     18  C   UNL     1      37.564  13.863 119.161 -0.33 -0.00    +0.000 A 
DOCKED: ATOM     19  C   UNL     1      38.126  15.140 119.318 -0.20 -0.00    +0.000 A 
DOCKED: ATOM     20  C   UNL     1      38.145  16.009 118.214 -0.13 -0.00    +0.000 A 
DOCKED: ATOM     21  C   UNL     1      37.602  15.615 116.988 -0.14 -0.00    +0.000 A 
DOCKED: ATOM     22  CM  UNL     1      37.581  14.739 118.074 +0.00 -0.00    +0.000 AC
DOCKED: BRANCH  16  23
DOCKED: ATOM     23  C   UNL     1      35.028  14.100 115.285 -0.29 -0.00    +0.000 C 
DOCKED: ATOM     24  N   UNL     1      36.461  13.929 115.555 -0.31 -0.00    +0.000 N 
DOCKED: ATOM     25  C   UNL     1      37.311  13.334 114.516 -0.40 -0.00    +0.000 C 
DOCKED: ENDBRANCH  16  23
DOCKED: ENDBRANCH  14  19
DOCKED: ENDBRANCH   1  14
DOCKED: TORSDOF 7DOCKED: TER
DOCKED: ENDMDL
________________________________________________________________________________


	BEGINNING GENETIC ALGORITHM DOCKING 12 of 100
Run: 12 Seed: 1532786762 356522790 [ Run 12 of 100 GA/GALS ]
Beginning LAMARCKIAN GENETIC ALGORITHM (LGA), with a maximum of 2500000 energy evaluations.

Final-Value: -14.615


	FINAL GENETIC ALGORITHM DOCKED STATE
	_______________________________________________


Detailed state:  trans 38.919 14.049 121.606 quatxyzw 0.279653 -0.529627 -0.689143 -0.407886 center 1.179 0.138 -0.353 ntor 7 2.6018 135.3546 -68.2944 -144.0370 -158.1196 150.4155 -44.1889
State:	 38.919  14.049 121.606   0.306 -0.580 -0.755 -131.856      2.60  135.35  -68.29 -144.04 -158.12  150.42  -44.19

DOCKED: MODEL       12
DOCKED: USER    Run = 12
DOCKED: USER    DPF = ligand_dock.biased.dpf
DOCKED: USER  
DOCKED: USER    Estimated Free Energy of Binding    =  -11.06 kcal/mol  [=(1)+(2)+(3)-(4)]
DOCKED: USER    Estimated Inhibition Constant, Ki   =    7.77 nM (nanomolar)  [Temperature = 298.15 K]
DOCKED: USER    
DOCKED: USER    (1) Final Intermolecular Energy     =  -13.15 kcal/mol
DOCKED: USER        vdW + Hbond + desolv Energy     =  -13.15 kcal/mol
DOCKED: USER        Electrostatic Energy            =   +0.00 kcal/mol
DOCKED: USER    (2) Final Total Internal Energy     =   -1.46 kcal/mol
DOCKED: USER    (3) Torsional Free Energy           =   +2.09 kcal/mol
DOCKED: USER    (4) Unbound System's Energy  [=(2)] =   -1.46 kcal/mol
DOCKED: USER    
DOCKED: USER    
DOCKED: USER    NEWDPF move ligand.dum.pdbqt
DOCKED: USER    NEWDPF about 1.179000 0.138000 -0.353000
DOCKED: USER    NEWDPF tran0 38.918798 14.048806 121.605724
DOCKED: USER    NEWDPF quaternion0 0.279653 -0.529627 -0.689143 -0.407886
DOCKED: USER    NEWDPF axisangle0 0.306290 -0.580075 -0.754785 -131.855810
DOCKED: USER    NEWDPF quat0 0.306290 -0.580075 -0.754785 -131.855810
DOCKED: USER    NEWDPF dihe0 2.60 135.35 -68.29 -144.04 -158.12 150.42 -44.19 
DOCKED: USER  keepresnum = 1 
DOCKED: USER  
DOCKED: REMARK  Name = 
DOCKED: REMARK  11 active torsions:
DOCKED: REMARK  status: ('A' for Active; 'I' for Inactive)
DOCKED: REMARK    1  A    between atoms: C_1  and  N_2
DOCKED: REMARK    2  A    between atoms: N_2  and  C_3
DOCKED: REMARK    3  A    between atoms: N_2  and  C_22
DOCKED: REMARK    4  A    between atoms: C_6  and  C_9
DOCKED: REMARK    5  A    between atoms: C_9  and  C_10
DOCKED: REMARK    6  A    between atoms: C_10  and  C_11
DOCKED: REMARK    7  A    between atoms: C_10  and  C_20
DOCKED: REMARK    8  A    between atoms: C_12  and  C_13
DOCKED: REMARK    9  A    between atoms: C_12  and  C_19
DOCKED: REMARK   10  A    between atoms: C_14  and  C_15
DOCKED: REMARK   11  A    between atoms: N_16  and  O_17
DOCKED: REMARK                            x       y       z     vdW  Elec       q    Type
DOCKED: REMARK                         _______ _______ _______ _____ _____    ______ ____
DOCKED: USER                              x       y       z     vdW  Elec       q    Type
DOCKED: USER                           _______ _______ _______ _____ _____    ______ ____
DOCKED: ROOT
DOCKED: ATOM      1  C   UNL     1      37.432  15.261 121.654 -0.30 -0.00    +0.000 C 
DOCKED: ATOM      2  C   UNL     1      36.148  16.063 121.895 -0.20 -0.00    +0.000 C 
DOCKED: ENDROOT
DOCKED: BRANCH   1   3
DOCKED: ATOM      3  C   UNL     1      37.170  13.779 121.823 -0.43 -0.00    +0.000 C 
DOCKED: ATOM      4  C   UNL     1      36.548  13.230 122.887 -0.56 -0.00    +0.000 C 
DOCKED: ATOM      5  C   UNL     1      36.058  14.072 124.045 -0.49 -0.00    +0.000 C 
DOCKED: BRANCH   4   6
DOCKED: ATOM      6  C   UNL     1      36.411  11.750 122.925 -0.68 -0.00    +0.000 C 
DOCKED: ATOM      7  C   UNL     1      37.079  10.931 122.099 -0.53 -0.00    +0.000 C 
DOCKED: BRANCH   7   8
DOCKED: ATOM      8  C   UNL     1      36.947   9.460 122.131 -0.65 -0.00    +0.000 C 
DOCKED: ATOM      9  N   UNL     1      37.069   8.704 123.343 -0.66 -0.00    +0.000 N 
DOCKED: ATOM     10  O   UNL     1      36.694   8.857 121.053 -2.62 -0.00    +0.000 OA
DOCKED: ATOM     11  H   UNL     1      37.164   9.171 124.204 -0.59 -0.00    +0.000 HD
DOCKED: BRANCH   9  12
DOCKED: ATOM     12  O   UNL     1      37.052   7.351 123.306 -2.13 -0.00    +0.000 OA
DOCKED: ATOM     13  H   UNL     1      36.993   7.053 122.385 -0.10 -0.00    +0.000 HD
DOCKED: ENDBRANCH   9  12
DOCKED: ENDBRANCH   7   8
DOCKED: ENDBRANCH   4   6
DOCKED: ENDBRANCH   1   3
DOCKED: BRANCH   1  14
DOCKED: ATOM     14  C   UNL     1      38.506  15.724 122.616 -0.33 -0.00    +0.000 C 
DOCKED: ATOM     15  O   UNL     1      38.166  16.084 123.777 -0.33 -0.00    +0.000 OA
DOCKED: BRANCH  14  19
DOCKED: ATOM     16  C   UNL     1      42.668  15.924 121.457 -0.30 -0.00    +0.000 A 
DOCKED: ATOM     17  C   UNL     1      41.648  16.400 120.608 -0.18 -0.00    +0.000 A 
DOCKED: ATOM     18  C   UNL     1      40.306  16.328 120.990 -0.17 -0.00    +0.000 A 
DOCKED: ATOM     19  C   UNL     1      39.941  15.786 122.233 -0.30 -0.00    +0.000 A 
DOCKED: ATOM     20  C   UNL     1      40.952  15.300 123.079 -0.28 -0.00    +0.000 A 
DOCKED: ATOM     21  C   UNL     1      42.295  15.369 122.698 -0.43 -0.00    +0.000 A 
DOCKED: ATOM     22  CM  UNL     1      41.301  15.851 121.844 +0.00 -0.00    +0.000 AC
DOCKED: BRANCH  16  23
DOCKED: ATOM     23  C   UNL     1      44.554  15.224 119.914 -0.36 +0.00    +0.000 C 
DOCKED: ATOM     24  N   UNL     1      44.063  15.997 121.062 -0.28 -0.00    +0.000 N 
DOCKED: ATOM     25  C   UNL     1      45.006  16.843 121.803 -0.29 -0.00    +0.000 C 
DOCKED: ENDBRANCH  16  23
DOCKED: ENDBRANCH  14  19
DOCKED: ENDBRANCH   1  14
DOCKED: TORSDOF 7DOCKED: TER
DOCKED: ENDMDL
________________________________________________________________________________


	BEGINNING GENETIC ALGORITHM DOCKING 13 of 100
Run: 13 Seed: 1806147459 1465231359 [ Run 13 of 100 GA/GALS ]
Beginning LAMARCKIAN GENETIC ALGORITHM (LGA), with a maximum of 2500000 energy evaluations.

Final-Value: -14.854


	FINAL GENETIC ALGORITHM DOCKED STATE
	_______________________________________________


Detailed state:  trans 39.486 14.232 122.020 quatxyzw -0.347229 0.583275 0.622143 0.390078 center 1.179 0.138 -0.353 ntor 7 8.5642 -157.0992 -28.5863 165.7891 136.3221 152.0218 -40.7547
State:	 39.486  14.232 122.020  -0.377  0.633  0.676 134.081      8.56 -157.10  -28.59  165.79  136.32  152.02  -40.75

DOCKED: MODEL       13
DOCKED: USER    Run = 13
DOCKED: USER    DPF = ligand_dock.biased.dpf
DOCKED: USER  
DOCKED: USER    Estimated Free Energy of Binding    =  -11.38 kcal/mol  [=(1)+(2)+(3)-(4)]
DOCKED: USER    Estimated Inhibition Constant, Ki   =    4.58 nM (nanomolar)  [Temperature = 298.15 K]
DOCKED: USER    
DOCKED: USER    (1) Final Intermolecular Energy     =  -13.46 kcal/mol
DOCKED: USER        vdW + Hbond + desolv Energy     =  -13.46 kcal/mol
DOCKED: USER        Electrostatic Energy            =   +0.00 kcal/mol
DOCKED: USER    (2) Final Total Internal Energy     =   -1.39 kcal/mol
DOCKED: USER    (3) Torsional Free Energy           =   +2.09 kcal/mol
DOCKED: USER    (4) Unbound System's Energy  [=(2)] =   -1.39 kcal/mol
DOCKED: USER    
DOCKED: USER    
DOCKED: USER    NEWDPF move ligand.dum.pdbqt
DOCKED: USER    NEWDPF about 1.179000 0.138000 -0.353000
DOCKED: USER    NEWDPF tran0 39.485935 14.231553 122.019892
DOCKED: USER    NEWDPF quaternion0 -0.347229 0.583275 0.622143 0.390078
DOCKED: USER    NEWDPF axisangle0 -0.377102 0.633456 0.675668 134.081353
DOCKED: USER    NEWDPF quat0 -0.377102 0.633456 0.675668 134.081353
DOCKED: USER    NEWDPF dihe0 8.56 -157.10 -28.59 165.79 136.32 152.02 -40.75 
DOCKED: USER  keepresnum = 1 
DOCKED: USER  
DOCKED: REMARK  Name = 
DOCKED: REMARK  11 active torsions:
DOCKED: REMARK  status: ('A' for Active; 'I' for Inactive)
DOCKED: REMARK    1  A    between atoms: C_1  and  N_2
DOCKED: REMARK    2  A    between atoms: N_2  and  C_3
DOCKED: REMARK    3  A    between atoms: N_2  and  C_22
DOCKED: REMARK    4  A    between atoms: C_6  and  C_9
DOCKED: REMARK    5  A    between atoms: C_9  and  C_10
DOCKED: REMARK    6  A    between atoms: C_10  and  C_11
DOCKED: REMARK    7  A    between atoms: C_10  and  C_20
DOCKED: REMARK    8  A    between atoms: C_12  and  C_13
DOCKED: REMARK    9  A    between atoms: C_12  and  C_19
DOCKED: REMARK   10  A    between atoms: C_14  and  C_15
DOCKED: REMARK   11  A    between atoms: N_16  and  O_17
DOCKED: REMARK                            x       y       z     vdW  Elec       q    Type
DOCKED: REMARK                         _______ _______ _______ _____ _____    ______ ____
DOCKED: USER                              x       y       z     vdW  Elec       q    Type
DOCKED: USER                           _______ _______ _______ _____ _____    ______ ____
DOCKED: ROOT
DOCKED: ATOM      1  C   UNL     1      37.944  15.323 121.681 -0.30 -0.00    +0.000 C 
DOCKED: ATOM      2  C   UNL     1      36.590  16.036 121.605 -0.23 -0.00    +0.000 C 
DOCKED: ENDROOT
DOCKED: BRANCH   1   3
DOCKED: ATOM      3  C   UNL     1      37.749  13.841 121.925 -0.46 -0.00    +0.000 C 
DOCKED: ATOM      4  C   UNL     1      36.944  13.323 122.875 -0.57 -0.00    +0.000 C 
DOCKED: ATOM      5  C   UNL     1      36.155  14.205 123.819 -0.54 -0.00    +0.000 C 
DOCKED: BRANCH   4   6
DOCKED: ATOM      6  C   UNL     1      36.899  11.844 123.018 -0.67 -0.00    +0.000 C 
DOCKED: ATOM      7  C   UNL     1      36.953  11.005 121.973 -0.57 -0.00    +0.000 C 
DOCKED: BRANCH   7   8
DOCKED: ATOM      8  C   UNL     1      36.908   9.534 122.108 -0.65 -0.00    +0.000 C 
DOCKED: ATOM      9  N   UNL     1      37.025   8.876 123.376 -0.62 -0.00    +0.000 N 
DOCKED: ATOM     10  O   UNL     1      36.737   8.842 121.069 -2.63 -0.00    +0.000 OA
DOCKED: ATOM     11  H   UNL     1      37.056   9.408 124.204 -0.58 -0.00    +0.000 HD
DOCKED: BRANCH   9  12
DOCKED: ATOM     12  O   UNL     1      37.092   7.525 123.438 -2.19 -0.00    +0.000 OA
DOCKED: ATOM     13  H   UNL     1      37.185   7.164 122.543 -0.13 -0.00    +0.000 HD
DOCKED: ENDBRANCH   9  12
DOCKED: ENDBRANCH   7   8
DOCKED: ENDBRANCH   4   6
DOCKED: ENDBRANCH   1   3
DOCKED: BRANCH   1  14
DOCKED: ATOM     14  C   UNL     1      38.778  15.938 122.785 -0.31 -0.00    +0.000 C 
DOCKED: ATOM     15  O   UNL     1      38.205  16.293 123.852 -0.32 -0.00    +0.000 OA
DOCKED: BRANCH  14  19
DOCKED: ATOM     16  C   UNL     1      43.040  16.528 122.347 -0.36 -0.00    +0.000 A 
DOCKED: ATOM     17  C   UNL     1      42.344  15.599 121.547 -0.32 -0.00    +0.000 A 
DOCKED: ATOM     18  C   UNL     1      40.968  15.413 121.699 -0.32 -0.00    +0.000 A 
DOCKED: ATOM     19  C   UNL     1      40.243  16.153 122.647 -0.30 -0.00    +0.000 A 
DOCKED: ATOM     20  C   UNL     1      40.932  17.074 123.453 -0.30 -0.00    +0.000 A 
DOCKED: ATOM     21  C   UNL     1      42.310  17.260 123.304 -0.33 -0.00    +0.000 A 
DOCKED: ATOM     22  CM  UNL     1      41.639  16.337 122.500 +0.00 -0.00    +0.000 AC
DOCKED: BRANCH  16  23
DOCKED: ATOM     23  C   UNL     1      45.214  15.992 121.157 -0.21 +0.00    +0.000 C 
DOCKED: ATOM     24  N   UNL     1      44.470  16.722 122.191 -0.33 -0.00    +0.000 N 
DOCKED: ATOM     25  C   UNL     1      45.198  17.651 123.064 -0.27 -0.00    +0.000 C 
DOCKED: ENDBRANCH  16  23
DOCKED: ENDBRANCH  14  19
DOCKED: ENDBRANCH   1  14
DOCKED: TORSDOF 7DOCKED: TER
DOCKED: ENDMDL
________________________________________________________________________________


	BEGINNING GENETIC ALGORITHM DOCKING 14 of 100
Run: 14 Seed: 583391058 1246164790 [ Run 14 of 100 GA/GALS ]
Beginning LAMARCKIAN GENETIC ALGORITHM (LGA), with a maximum of 2500000 energy evaluations.

Final-Value: -15.257


	FINAL GENETIC ALGORITHM DOCKED STATE
	_______________________________________________


Detailed state:  trans 35.879 14.562 121.914 quatxyzw 0.630653 -0.408987 0.470933 0.461766 center 1.179 0.138 -0.353 ntor 7 -0.2607 163.2490 -47.3297 -179.1939 -133.0422 -20.9908 162.8789
State:	 35.879  14.562 121.914   0.711 -0.461  0.531 124.998     -0.26  163.25  -47.33 -179.19 -133.04  -20.99  162.88

DOCKED: MODEL       14
DOCKED: USER    Run = 14
DOCKED: USER    DPF = ligand_dock.biased.dpf
DOCKED: USER  
DOCKED: USER    Estimated Free Energy of Binding    =  -11.29 kcal/mol  [=(1)+(2)+(3)-(4)]
DOCKED: USER    Estimated Inhibition Constant, Ki   =    5.30 nM (nanomolar)  [Temperature = 298.15 K]
DOCKED: USER    
DOCKED: USER    (1) Final Intermolecular Energy     =  -13.38 kcal/mol
DOCKED: USER        vdW + Hbond + desolv Energy     =  -13.38 kcal/mol
DOCKED: USER        Electrostatic Energy            =   +0.00 kcal/mol
DOCKED: USER    (2) Final Total Internal Energy     =   -1.88 kcal/mol
DOCKED: USER    (3) Torsional Free Energy           =   +2.09 kcal/mol
DOCKED: USER    (4) Unbound System's Energy  [=(2)] =   -1.88 kcal/mol
DOCKED: USER    
DOCKED: USER    
DOCKED: USER    NEWDPF move ligand.dum.pdbqt
DOCKED: USER    NEWDPF about 1.179000 0.138000 -0.353000
DOCKED: USER    NEWDPF tran0 35.879210 14.561697 121.913572
DOCKED: USER    NEWDPF quaternion0 0.630653 -0.408987 0.470933 0.461766
DOCKED: USER    NEWDPF axisangle0 0.710994 -0.461089 0.530927 124.997787
DOCKED: USER    NEWDPF quat0 0.710994 -0.461089 0.530927 124.997787
DOCKED: USER    NEWDPF dihe0 -0.26 163.25 -47.33 -179.19 -133.04 -20.99 162.88 
DOCKED: USER  keepresnum = 1 
DOCKED: USER  
DOCKED: REMARK  Name = 
DOCKED: REMARK  11 active torsions:
DOCKED: REMARK  status: ('A' for Active; 'I' for Inactive)
DOCKED: REMARK    1  A    between atoms: C_1  and  N_2
DOCKED: REMARK    2  A    between atoms: N_2  and  C_3
DOCKED: REMARK    3  A    between atoms: N_2  and  C_22
DOCKED: REMARK    4  A    between atoms: C_6  and  C_9
DOCKED: REMARK    5  A    between atoms: C_9  and  C_10
DOCKED: REMARK    6  A    between atoms: C_10  and  C_11
DOCKED: REMARK    7  A    between atoms: C_10  and  C_20
DOCKED: REMARK    8  A    between atoms: C_12  and  C_13
DOCKED: REMARK    9  A    between atoms: C_12  and  C_19
DOCKED: REMARK   10  A    between atoms: C_14  and  C_15
DOCKED: REMARK   11  A    between atoms: N_16  and  O_17
DOCKED: REMARK                            x       y       z     vdW  Elec       q    Type
DOCKED: REMARK                         _______ _______ _______ _____ _____    ______ ____
DOCKED: USER                              x       y       z     vdW  Elec       q    Type
DOCKED: USER                           _______ _______ _______ _____ _____    ______ ____
DOCKED: ROOT
DOCKED: ATOM      1  C   UNL     1      37.642  15.304 122.077 -0.33 -0.00    +0.000 C 
DOCKED: ATOM      2  C   UNL     1      39.129  15.670 122.065 -0.31 -0.00    +0.000 C 
DOCKED: ENDROOT
DOCKED: BRANCH   1   3
DOCKED: ATOM      3  C   UNL     1      37.467  13.804 122.203 -0.48 -0.00    +0.000 C 
DOCKED: ATOM      4  C   UNL     1      36.543  13.206 122.983 -0.58 -0.00    +0.000 C 
DOCKED: ATOM      5  C   UNL     1      35.583  14.007 123.837 -0.55 -0.00    +0.000 C 
DOCKED: BRANCH   4   6
DOCKED: ATOM      6  C   UNL     1      36.533  11.721 123.034 -0.69 -0.00    +0.000 C 
DOCKED: ATOM      7  C   UNL     1      37.056  10.951 122.069 -0.55 -0.00    +0.000 C 
DOCKED: BRANCH   7   8
DOCKED: ATOM      8  C   UNL     1      37.048   9.474 122.113 -0.62 -0.00    +0.000 C 
DOCKED: ATOM      9  N   UNL     1      37.069   8.742 123.346 -0.65 -0.00    +0.000 N 
DOCKED: ATOM     10  O   UNL     1      36.997   8.841 121.024 -2.69 -0.00    +0.000 OA
DOCKED: ATOM     11  H   UNL     1      37.005   9.224 124.203 -0.56 -0.00    +0.000 HD
DOCKED: BRANCH   9  12
DOCKED: ATOM     12  O   UNL     1      37.174   7.393 123.335 -2.10 -0.00    +0.000 OA
DOCKED: ATOM     13  H   UNL     1      37.222   7.079 122.419 -0.15 -0.00    +0.000 HD
DOCKED: ENDBRANCH   9  12
DOCKED: ENDBRANCH   7   8
DOCKED: ENDBRANCH   4   6
DOCKED: ENDBRANCH   1   3
DOCKED: BRANCH   1  14
DOCKED: ATOM     14  C   UNL     1      36.985  15.810 120.810 -0.21 -0.00    +0.000 C 
DOCKED: ATOM     15  O   UNL     1      36.058  16.661 120.906 -0.23 -0.00    +0.000 OA
DOCKED: BRANCH  14  19
DOCKED: ATOM     16  C   UNL     1      38.121  14.354 116.899 -0.27 -0.00    +0.000 A 
DOCKED: ATOM     17  C   UNL     1      37.439  13.530 117.817 -0.36 -0.00    +0.000 A 
DOCKED: ATOM     18  C   UNL     1      37.079  14.009 119.079 -0.33 -0.00    +0.000 A 
DOCKED: ATOM     19  C   UNL     1      37.382  15.325 119.462 -0.20 -0.00    +0.000 A 
DOCKED: ATOM     20  C   UNL     1      38.071  16.149 118.555 -0.12 -0.00    +0.000 A 
DOCKED: ATOM     21  C   UNL     1      38.434  15.671 117.293 -0.14 -0.00    +0.000 A 
DOCKED: ATOM     22  CM  UNL     1      37.755  14.839 118.185 +0.00 -0.00    +0.000 AC
DOCKED: BRANCH  16  23
DOCKED: ATOM     23  C   UNL     1      38.945  12.472 115.414 -0.59 -0.00    +0.000 C 
DOCKED: ATOM     24  N   UNL     1      38.496  13.859 115.587 -0.39 -0.00    +0.000 N 
DOCKED: ATOM     25  C   UNL     1      38.436  14.736 114.412 -0.27 -0.00    +0.000 C 
DOCKED: ENDBRANCH  16  23
DOCKED: ENDBRANCH  14  19
DOCKED: ENDBRANCH   1  14
DOCKED: TORSDOF 7DOCKED: TER
DOCKED: ENDMDL
________________________________________________________________________________


	BEGINNING GENETIC ALGORITHM DOCKING 15 of 100
Run: 15 Seed: 813293866 1382793868 [ Run 15 of 100 GA/GALS ]
Beginning LAMARCKIAN GENETIC ALGORITHM (LGA), with a maximum of 2500000 energy evaluations.

Final-Value: -14.820


	FINAL GENETIC ALGORITHM DOCKED STATE
	_______________________________________________


Detailed state:  trans 36.591 14.748 123.499 quatxyzw 0.732466 -0.617103 0.119109 0.261709 center 1.179 0.138 -0.353 ntor 7 3.9402 -75.9707 -21.5786 167.7242 -171.9464 24.5695 -33.2363
State:	 36.591  14.748 123.499   0.759 -0.639  0.123 149.657      3.94  -75.97  -21.58  167.72 -171.95   24.57  -33.24

DOCKED: MODEL       15
DOCKED: USER    Run = 15
DOCKED: USER    DPF = ligand_dock.biased.dpf
DOCKED: USER  
DOCKED: USER    Estimated Free Energy of Binding    =  -11.20 kcal/mol  [=(1)+(2)+(3)-(4)]
DOCKED: USER    Estimated Inhibition Constant, Ki   =    6.22 nM (nanomolar)  [Temperature = 298.15 K]
DOCKED: USER    
DOCKED: USER    (1) Final Intermolecular Energy     =  -13.28 kcal/mol
DOCKED: USER        vdW + Hbond + desolv Energy     =  -13.28 kcal/mol
DOCKED: USER        Electrostatic Energy            =   +0.00 kcal/mol
DOCKED: USER    (2) Final Total Internal Energy     =   -1.54 kcal/mol
DOCKED: USER    (3) Torsional Free Energy           =   +2.09 kcal/mol
DOCKED: USER    (4) Unbound System's Energy  [=(2)] =   -1.54 kcal/mol
DOCKED: USER    
DOCKED: USER    
DOCKED: USER    NEWDPF move ligand.dum.pdbqt
DOCKED: USER    NEWDPF about 1.179000 0.138000 -0.353000
DOCKED: USER    NEWDPF tran0 36.591026 14.748149 123.499452
DOCKED: USER    NEWDPF quaternion0 0.732466 -0.617103 0.119109 0.261709
DOCKED: USER    NEWDPF axisangle0 0.758916 -0.639387 0.123410 149.657073
DOCKED: USER    NEWDPF quat0 0.758916 -0.639387 0.123410 149.657073
DOCKED: USER    NEWDPF dihe0 3.94 -75.97 -21.58 167.72 -171.95 24.57 -33.24 
DOCKED: USER  keepresnum = 1 
DOCKED: USER  
DOCKED: REMARK  Name = 
DOCKED: REMARK  11 active torsions:
DOCKED: REMARK  status: ('A' for Active; 'I' for Inactive)
DOCKED: REMARK    1  A    between atoms: C_1  and  N_2
DOCKED: REMARK    2  A    between atoms: N_2  and  C_3
DOCKED: REMARK    3  A    between atoms: N_2  and  C_22
DOCKED: REMARK    4  A    between atoms: C_6  and  C_9
DOCKED: REMARK    5  A    between atoms: C_9  and  C_10
DOCKED: REMARK    6  A    between atoms: C_10  and  C_11
DOCKED: REMARK    7  A    between atoms: C_10  and  C_20
DOCKED: REMARK    8  A    between atoms: C_12  and  C_13
DOCKED: REMARK    9  A    between atoms: C_12  and  C_19
DOCKED: REMARK   10  A    between atoms: C_14  and  C_15
DOCKED: REMARK   11  A    between atoms: N_16  and  O_17
DOCKED: REMARK                            x       y       z     vdW  Elec       q    Type
DOCKED: REMARK                         _______ _______ _______ _____ _____    ______ ____
DOCKED: USER                              x       y       z     vdW  Elec       q    Type
DOCKED: USER                           _______ _______ _______ _____ _____    ______ ____
DOCKED: ROOT
DOCKED: ATOM      1  C   UNL     1      37.849  15.501 122.260 -0.32 -0.00    +0.000 C 
DOCKED: ATOM      2  C   UNL     1      38.765  15.900 121.100 -0.22 -0.00    +0.000 C 
DOCKED: ENDROOT
DOCKED: BRANCH   1   3
DOCKED: ATOM      3  C   UNL     1      37.696  13.995 122.320 -0.47 -0.00    +0.000 C 
DOCKED: ATOM      4  C   UNL     1      36.891  13.343 123.184 -0.58 -0.00    +0.000 C 
DOCKED: ATOM      5  C   UNL     1      36.059  14.082 124.210 -0.43 -0.00    +0.000 C 
DOCKED: BRANCH   4   6
DOCKED: ATOM      6  C   UNL     1      36.890  11.857 123.147 -0.67 -0.00    +0.000 C 
DOCKED: ATOM      7  C   UNL     1      37.025  11.152 122.014 -0.56 -0.00    +0.000 C 
DOCKED: BRANCH   7   8
DOCKED: ATOM      8  C   UNL     1      37.024   9.675 121.970 -0.61 -0.00    +0.000 C 
DOCKED: ATOM      9  N   UNL     1      36.951   8.872 123.155 -0.67 -0.00    +0.000 N 
DOCKED: ATOM     10  O   UNL     1      37.066   9.108 120.845 -2.73 -0.00    +0.000 OA
DOCKED: ATOM     11  H   UNL     1      36.815   9.301 124.031 -0.49 -0.00    +0.000 HD
DOCKED: BRANCH   9  12
DOCKED: ATOM     12  O   UNL     1      37.066   7.526 123.073 -2.25 -0.00    +0.000 OA
DOCKED: ATOM     13  H   UNL     1      37.256   7.272 122.157 -0.12 -0.00    +0.000 HD
DOCKED: ENDBRANCH   9  12
DOCKED: ENDBRANCH   7   8
DOCKED: ENDBRANCH   4   6
DOCKED: ENDBRANCH   1   3
DOCKED: BRANCH   1  14
DOCKED: ATOM     14  C   UNL     1      36.499  16.166 122.092 -0.27 -0.00    +0.000 C 
DOCKED: ATOM     15  O   UNL     1      35.950  16.144 120.956 -0.19 -0.00    +0.000 OA
DOCKED: BRANCH  14  19
DOCKED: ATOM     16  C   UNL     1      34.539  18.187 125.374 -0.31 -0.00    +0.000 A 
DOCKED: ATOM     17  C   UNL     1      35.945  18.135 125.282 -0.20 -0.00    +0.000 A 
DOCKED: ATOM     18  C   UNL     1      36.569  17.476 124.220 -0.23 -0.00    +0.000 A 
DOCKED: ATOM     19  C   UNL     1      35.810  16.856 123.213 -0.30 -0.00    +0.000 A 
DOCKED: ATOM     20  C   UNL     1      34.408  16.897 123.305 -0.40 -0.00    +0.000 A 
DOCKED: ATOM     21  C   UNL     1      33.782  17.554 124.368 -0.25 -0.00    +0.000 A 
DOCKED: ATOM     22  CM  UNL     1      35.176  17.517 124.294 -0.30 -0.00    +0.000 AC
DOCKED: BRANCH  16  23
DOCKED: ATOM     23  C   UNL     1      33.677  20.323 126.436 -0.20 -0.00    +0.000 C 
DOCKED: ATOM     24  N   UNL     1      33.889  18.871 126.478 -0.25 -0.00    +0.000 N 
DOCKED: ATOM     25  C   UNL     1      33.434  18.123 127.656 -0.27 -0.00    +0.000 C 
DOCKED: ENDBRANCH  16  23
DOCKED: ENDBRANCH  14  19
DOCKED: ENDBRANCH   1  14
DOCKED: TORSDOF 7DOCKED: TER
DOCKED: ENDMDL
________________________________________________________________________________


	BEGINNING GENETIC ALGORITHM DOCKING 16 of 100
Run: 16 Seed: 1267142774 1475795003 [ Run 16 of 100 GA/GALS ]
Beginning LAMARCKIAN GENETIC ALGORITHM (LGA), with a maximum of 2500000 energy evaluations.

Final-Value: -14.494


	FINAL GENETIC ALGORITHM DOCKED STATE
	_______________________________________________


Detailed state:  trans 36.729 14.239 119.963 quatxyzw -0.443266 0.083514 -0.701441 -0.551835 center 1.179 0.138 -0.353 ntor 7 19.6689 -167.8537 -28.6738 -177.8235 -164.9572 -88.5864 -76.0626
State:	 36.729  14.239 119.963  -0.532  0.100 -0.841 -113.014     19.67 -167.85  -28.67 -177.82 -164.96  -88.59  -76.06

DOCKED: MODEL       16
DOCKED: USER    Run = 16
DOCKED: USER    DPF = ligand_dock.biased.dpf
DOCKED: USER  
DOCKED: USER    Estimated Free Energy of Binding    =  -10.74 kcal/mol  [=(1)+(2)+(3)-(4)]
DOCKED: USER    Estimated Inhibition Constant, Ki   =   13.36 nM (nanomolar)  [Temperature = 298.15 K]
DOCKED: USER    
DOCKED: USER    (1) Final Intermolecular Energy     =  -12.83 kcal/mol
DOCKED: USER        vdW + Hbond + desolv Energy     =  -12.83 kcal/mol
DOCKED: USER        Electrostatic Energy            =   +0.00 kcal/mol
DOCKED: USER    (2) Final Total Internal Energy     =   -1.66 kcal/mol
DOCKED: USER    (3) Torsional Free Energy           =   +2.09 kcal/mol
DOCKED: USER    (4) Unbound System's Energy  [=(2)] =   -1.66 kcal/mol
DOCKED: USER    
DOCKED: USER    
DOCKED: USER    NEWDPF move ligand.dum.pdbqt
DOCKED: USER    NEWDPF about 1.179000 0.138000 -0.353000
DOCKED: USER    NEWDPF tran0 36.728888 14.239352 119.962888
DOCKED: USER    NEWDPF quaternion0 -0.443266 0.083514 -0.701441 -0.551835
DOCKED: USER    NEWDPF axisangle0 -0.531524 0.100142 -0.841103 -113.014009
DOCKED: USER    NEWDPF quat0 -0.531524 0.100142 -0.841103 -113.014009
DOCKED: USER    NEWDPF dihe0 19.67 -167.85 -28.67 -177.82 -164.96 -88.59 -76.06 
DOCKED: USER  keepresnum = 1 
DOCKED: USER  
DOCKED: REMARK  Name = 
DOCKED: REMARK  11 active torsions:
DOCKED: REMARK  status: ('A' for Active; 'I' for Inactive)
DOCKED: REMARK    1  A    between atoms: C_1  and  N_2
DOCKED: REMARK    2  A    between atoms: N_2  and  C_3
DOCKED: REMARK    3  A    between atoms: N_2  and  C_22
DOCKED: REMARK    4  A    between atoms: C_6  and  C_9
DOCKED: REMARK    5  A    between atoms: C_9  and  C_10
DOCKED: REMARK    6  A    between atoms: C_10  and  C_11
DOCKED: REMARK    7  A    between atoms: C_10  and  C_20
DOCKED: REMARK    8  A    between atoms: C_12  and  C_13
DOCKED: REMARK    9  A    between atoms: C_12  and  C_19
DOCKED: REMARK   10  A    between atoms: C_14  and  C_15
DOCKED: REMARK   11  A    between atoms: N_16  and  O_17
DOCKED: REMARK                            x       y       z     vdW  Elec       q    Type
DOCKED: REMARK                         _______ _______ _______ _____ _____    ______ ____
DOCKED: USER                              x       y       z     vdW  Elec       q    Type
DOCKED: USER                           _______ _______ _______ _____ _____    ______ ____
DOCKED: ROOT
DOCKED: ATOM      1  C   UNL     1      37.706  15.340 121.195 -0.27 -0.00    +0.000 C 
DOCKED: ATOM      2  C   UNL     1      38.653  15.997 122.204 -0.27 -0.00    +0.000 C 
DOCKED: ENDROOT
DOCKED: BRANCH   1   3
DOCKED: ATOM      3  C   UNL     1      37.540  13.867 121.507 -0.43 -0.00    +0.000 C 
DOCKED: ATOM      4  C   UNL     1      36.865  13.383 122.569 -0.53 -0.00    +0.000 C 
DOCKED: ATOM      5  C   UNL     1      36.210  14.298 123.582 -0.53 -0.00    +0.000 C 
DOCKED: BRANCH   4   6
DOCKED: ATOM      6  C   UNL     1      36.835  11.909 122.761 -0.65 -0.00    +0.000 C 
DOCKED: ATOM      7  C   UNL     1      37.067  11.036 121.769 -0.53 -0.00    +0.000 C 
DOCKED: BRANCH   7   8
DOCKED: ATOM      8  C   UNL     1      37.037   9.570 121.953 -0.62 -0.00    +0.000 C 
DOCKED: ATOM      9  N   UNL     1      36.978   8.960 123.248 -0.64 -0.00    +0.000 N 
DOCKED: ATOM     10  O   UNL     1      37.041   8.837 120.927 -2.70 -0.00    +0.000 OA
DOCKED: ATOM     11  H   UNL     1      36.871   9.521 124.050 -0.50 -0.00    +0.000 HD
DOCKED: BRANCH   9  12
DOCKED: ATOM     12  O   UNL     1      37.066   7.615 123.372 -2.25 -0.00    +0.000 OA
DOCKED: ATOM     13  H   UNL     1      37.468   7.241 122.571 -0.21 -0.00    +0.000 HD
DOCKED: ENDBRANCH   9  12
DOCKED: ENDBRANCH   7   8
DOCKED: ENDBRANCH   4   6
DOCKED: ENDBRANCH   1   3
DOCKED: BRANCH   1  14
DOCKED: ATOM     14  C   UNL     1      38.248  15.529 119.794 -0.20 -0.00    +0.000 C 
DOCKED: ATOM     15  O   UNL     1      39.358  16.110 119.646 -0.16 -0.00    +0.000 OA
DOCKED: BRANCH  14  19
DOCKED: ATOM     16  C   UNL     1      36.054  14.204 116.310 -0.29 -0.00    +0.000 A 
DOCKED: ATOM     17  C   UNL     1      35.393  14.763 117.423 -0.26 -0.00    +0.000 A 
DOCKED: ATOM     18  C   UNL     1      36.110  15.185 118.545 -0.15 -0.00    +0.000 A 
DOCKED: ATOM     19  C   UNL     1      37.509  15.069 118.589 -0.21 -0.00    +0.000 A 
DOCKED: ATOM     20  C   UNL     1      38.173  14.503 117.487 -0.22 -0.00    +0.000 A 
DOCKED: ATOM     21  C   UNL     1      37.456  14.079 116.364 -0.32 -0.00    +0.000 A 
DOCKED: ATOM     22  CM  UNL     1      36.782  14.633 117.454 +0.00 -0.00    +0.000 AC
DOCKED: BRANCH  16  23
DOCKED: ATOM     23  C   UNL     1      33.842  13.725 115.166 -0.31 -0.00    +0.000 C 
DOCKED: ATOM     24  N   UNL     1      35.310  13.765 115.143 -0.27 -0.00    +0.000 N 
DOCKED: ATOM     25  C   UNL     1      36.011  13.350 113.923 -0.31 -0.00    +0.000 C 
DOCKED: ENDBRANCH  16  23
DOCKED: ENDBRANCH  14  19
DOCKED: ENDBRANCH   1  14
DOCKED: TORSDOF 7DOCKED: TER
DOCKED: ENDMDL
________________________________________________________________________________


	BEGINNING GENETIC ALGORITHM DOCKING 17 of 100
Run: 17 Seed: 880077005 1280550744 [ Run 17 of 100 GA/GALS ]
Beginning LAMARCKIAN GENETIC ALGORITHM (LGA), with a maximum of 2500000 energy evaluations.

Final-Value: -14.456


	FINAL GENETIC ALGORITHM DOCKED STATE
	_______________________________________________


Detailed state:  trans 37.577 15.033 122.137 quatxyzw -0.174452 0.307700 0.655799 0.666945 center 1.179 0.138 -0.353 ntor 7 10.3656 -45.6601 40.0227 -47.0810 92.7862 -10.6909 -84.6074
State:	 37.577  15.033 122.137  -0.234  0.413  0.880 96.337     10.37  -45.66   40.02  -47.08   92.79  -10.69  -84.61

DOCKED: MODEL       17
DOCKED: USER    Run = 17
DOCKED: USER    DPF = ligand_dock.biased.dpf
DOCKED: USER  
DOCKED: USER    Estimated Free Energy of Binding    =  -10.72 kcal/mol  [=(1)+(2)+(3)-(4)]
DOCKED: USER    Estimated Inhibition Constant, Ki   =   13.94 nM (nanomolar)  [Temperature = 298.15 K]
DOCKED: USER    
DOCKED: USER    (1) Final Intermolecular Energy     =  -12.81 kcal/mol
DOCKED: USER        vdW + Hbond + desolv Energy     =  -12.81 kcal/mol
DOCKED: USER        Electrostatic Energy            =   +0.00 kcal/mol
DOCKED: USER    (2) Final Total Internal Energy     =   -1.65 kcal/mol
DOCKED: USER    (3) Torsional Free Energy           =   +2.09 kcal/mol
DOCKED: USER    (4) Unbound System's Energy  [=(2)] =   -1.65 kcal/mol
DOCKED: USER    
DOCKED: USER    
DOCKED: USER    NEWDPF move ligand.dum.pdbqt
DOCKED: USER    NEWDPF about 1.179000 0.138000 -0.353000
DOCKED: USER    NEWDPF tran0 37.576967 15.032935 122.136894
DOCKED: USER    NEWDPF quaternion0 -0.174452 0.307700 0.655799 0.666945
DOCKED: USER    NEWDPF axisangle0 -0.234130 0.412960 0.880140 96.336553
DOCKED: USER    NEWDPF quat0 -0.234130 0.412960 0.880140 96.336553
DOCKED: USER    NEWDPF dihe0 10.37 -45.66 40.02 -47.08 92.79 -10.69 -84.61 
DOCKED: USER  keepresnum = 1 
DOCKED: USER  
DOCKED: REMARK  Name = 
DOCKED: REMARK  11 active torsions:
DOCKED: REMARK  status: ('A' for Active; 'I' for Inactive)
DOCKED: REMARK    1  A    between atoms: C_1  and  N_2
DOCKED: REMARK    2  A    between atoms: N_2  and  C_3
DOCKED: REMARK    3  A    between atoms: N_2  and  C_22
DOCKED: REMARK    4  A    between atoms: C_6  and  C_9
DOCKED: REMARK    5  A    between atoms: C_9  and  C_10
DOCKED: REMARK    6  A    between atoms: C_10  and  C_11
DOCKED: REMARK    7  A    between atoms: C_10  and  C_20
DOCKED: REMARK    8  A    between atoms: C_12  and  C_13
DOCKED: REMARK    9  A    between atoms: C_12  and  C_19
DOCKED: REMARK   10  A    between atoms: C_14  and  C_15
DOCKED: REMARK   11  A    between atoms: N_16  and  O_17
DOCKED: REMARK                            x       y       z     vdW  Elec       q    Type
DOCKED: REMARK                         _______ _______ _______ _____ _____    ______ ____
DOCKED: USER                              x       y       z     vdW  Elec       q    Type
DOCKED: USER                           _______ _______ _______ _____ _____    ______ ____
DOCKED: ROOT
DOCKED: ATOM      1  C   UNL     1      36.049  15.583 123.160 -0.42 -0.00    +0.000 C 
DOCKED: ATOM      2  C   UNL     1      34.929  15.848 124.171 -0.54 -0.00    +0.000 C 
DOCKED: ENDROOT
DOCKED: BRANCH   1   3
DOCKED: ATOM      3  C   UNL     1      36.479  14.132 123.215 -0.52 -0.00    +0.000 C 
DOCKED: ATOM      4  C   UNL     1      36.944  13.433 122.159 -0.48 -0.00    +0.000 C 
DOCKED: ATOM      5  C   UNL     1      37.065  14.053 120.784 -0.31 -0.00    +0.000 C 
DOCKED: BRANCH   4   6
DOCKED: ATOM      6  C   UNL     1      37.279  12.000 122.367 -0.51 -0.00    +0.000 C 
DOCKED: ATOM      7  C   UNL     1      36.557  10.995 121.848 -0.57 -0.00    +0.000 C 
DOCKED: BRANCH   7   8
DOCKED: ATOM      8  C   UNL     1      36.885   9.569 122.052 -0.65 -0.00    +0.000 C 
DOCKED: ATOM      9  N   UNL     1      36.975   8.980 123.355 -0.61 -0.00    +0.000 N 
DOCKED: ATOM     10  O   UNL     1      37.068   8.845 121.036 -2.70 -0.00    +0.000 OA
DOCKED: ATOM     11  H   UNL     1      36.734   9.510 124.150 -0.48 -0.00    +0.000 HD
DOCKED: BRANCH   9  12
DOCKED: ATOM     12  O   UNL     1      37.387   7.699 123.497 -2.16 -0.00    +0.000 OA
DOCKED: ATOM     13  H   UNL     1      37.737   7.376 122.651 -0.30 -0.00    +0.000 HD
DOCKED: ENDBRANCH   9  12
DOCKED: ENDBRANCH   7   8
DOCKED: ENDBRANCH   4   6
DOCKED: ENDBRANCH   1   3
DOCKED: BRANCH   1  14
DOCKED: ATOM     14  C   UNL     1      37.221  16.496 123.453 -0.30 -0.00    +0.000 C 
DOCKED: ATOM     15  O   UNL     1      37.096  17.376 124.349 -0.27 -0.00    +0.000 OA
DOCKED: BRANCH  14  19
DOCKED: ATOM     16  C   UNL     1      40.964  16.175 121.309 -0.22 -0.00    +0.000 A 
DOCKED: ATOM     17  C   UNL     1      40.496  15.126 122.127 -0.39 -0.00    +0.000 A 
DOCKED: ATOM     18  C   UNL     1      39.288  15.240 122.818 -0.24 -0.00    +0.000 A 
DOCKED: ATOM     19  C   UNL     1      38.505  16.401 122.709 -0.23 -0.00    +0.000 A 
DOCKED: ATOM     20  C   UNL     1      38.970  17.454 121.903 -0.11 -0.00    +0.000 A 
DOCKED: ATOM     21  C   UNL     1      40.180  17.342 121.212 -0.10 -0.00    +0.000 A 
DOCKED: ATOM     22  CM  UNL     1      39.734  16.290 122.014 +0.00 -0.00    +0.000 AC
DOCKED: BRANCH  16  23
DOCKED: ATOM     23  C   UNL     1      42.238  16.011 119.123 -0.16 -0.00    +0.000 C 
DOCKED: ATOM     24  N   UNL     1      42.220  16.057 120.590 -0.22 -0.00    +0.000 N 
DOCKED: ATOM     25  C   UNL     1      43.492  15.981 121.318 -0.30 -0.00    +0.000 C 
DOCKED: ENDBRANCH  16  23
DOCKED: ENDBRANCH  14  19
DOCKED: ENDBRANCH   1  14
DOCKED: TORSDOF 7DOCKED: TER
DOCKED: ENDMDL
________________________________________________________________________________


	BEGINNING GENETIC ALGORITHM DOCKING 18 of 100
Run: 18 Seed: 912326249 1328843212 [ Run 18 of 100 GA/GALS ]
Beginning LAMARCKIAN GENETIC ALGORITHM (LGA), with a maximum of 2500000 energy evaluations.

Final-Value: -14.615


	FINAL GENETIC ALGORITHM DOCKED STATE
	_______________________________________________


Detailed state:  trans 36.774 14.477 120.219 quatxyzw -0.317718 -0.003767 -0.643109 -0.696744 center 1.179 0.138 -0.353 ntor 7 19.5957 115.2726 60.5016 89.1356 -2.6039 -90.8628 -97.0911
State:	 36.774  14.477 120.219  -0.443 -0.005 -0.897 -91.667     19.60  115.27   60.50   89.14   -2.60  -90.86  -97.09

DOCKED: MODEL       18
DOCKED: USER    Run = 18
DOCKED: USER    DPF = ligand_dock.biased.dpf
DOCKED: USER  
DOCKED: USER    Estimated Free Energy of Binding    =  -11.03 kcal/mol  [=(1)+(2)+(3)-(4)]
DOCKED: USER    Estimated Inhibition Constant, Ki   =    8.24 nM (nanomolar)  [Temperature = 298.15 K]
DOCKED: USER    
DOCKED: USER    (1) Final Intermolecular Energy     =  -13.12 kcal/mol
DOCKED: USER        vdW + Hbond + desolv Energy     =  -13.12 kcal/mol
DOCKED: USER        Electrostatic Energy            =   +0.00 kcal/mol
DOCKED: USER    (2) Final Total Internal Energy     =   -1.50 kcal/mol
DOCKED: USER    (3) Torsional Free Energy           =   +2.09 kcal/mol
DOCKED: USER    (4) Unbound System's Energy  [=(2)] =   -1.50 kcal/mol
DOCKED: USER    
DOCKED: USER    
DOCKED: USER    NEWDPF move ligand.dum.pdbqt
DOCKED: USER    NEWDPF about 1.179000 0.138000 -0.353000
DOCKED: USER    NEWDPF tran0 36.773686 14.477147 120.218989
DOCKED: USER    NEWDPF quaternion0 -0.317718 -0.003767 -0.643109 -0.696744
DOCKED: USER    NEWDPF axisangle0 -0.442923 -0.005251 -0.896544 -91.667283
DOCKED: USER    NEWDPF quat0 -0.442923 -0.005251 -0.896544 -91.667283
DOCKED: USER    NEWDPF dihe0 19.60 115.27 60.50 89.14 -2.60 -90.86 -97.09 
DOCKED: USER  keepresnum = 1 
DOCKED: USER  
DOCKED: REMARK  Name = 
DOCKED: REMARK  11 active torsions:
DOCKED: REMARK  status: ('A' for Active; 'I' for Inactive)
DOCKED: REMARK    1  A    between atoms: C_1  and  N_2
DOCKED: REMARK    2  A    between atoms: N_2  and  C_3
DOCKED: REMARK    3  A    between atoms: N_2  and  C_22
DOCKED: REMARK    4  A    between atoms: C_6  and  C_9
DOCKED: REMARK    5  A    between atoms: C_9  and  C_10
DOCKED: REMARK    6  A    between atoms: C_10  and  C_11
DOCKED: REMARK    7  A    between atoms: C_10  and  C_20
DOCKED: REMARK    8  A    between atoms: C_12  and  C_13
DOCKED: REMARK    9  A    between atoms: C_12  and  C_19
DOCKED: REMARK   10  A    between atoms: C_14  and  C_15
DOCKED: REMARK   11  A    between atoms: N_16  and  O_17
DOCKED: REMARK                            x       y       z     vdW  Elec       q    Type
DOCKED: REMARK                         _______ _______ _______ _____ _____    ______ ____
DOCKED: USER                              x       y       z     vdW  Elec       q    Type
DOCKED: USER                           _______ _______ _______ _____ _____    ______ ____
DOCKED: ROOT
DOCKED: ATOM      1  C   UNL     1      37.037  15.563 121.780 -0.28 -0.00    +0.000 C 
DOCKED: ATOM      2  C   UNL     1      37.470  16.267 123.069 -0.30 -0.00    +0.000 C 
DOCKED: ENDROOT
DOCKED: BRANCH   1   3
DOCKED: ATOM      3  C   UNL     1      37.312  14.076 121.871 -0.42 -0.00    +0.000 C 
DOCKED: ATOM      4  C   UNL     1      36.657  13.227 122.689 -0.55 -0.00    +0.000 C 
DOCKED: ATOM      5  C   UNL     1      35.570  13.705 123.628 -0.51 -0.00    +0.000 C 
DOCKED: BRANCH   4   6
DOCKED: ATOM      6  C   UNL     1      37.079  11.802 122.695 -0.62 -0.00    +0.000 C 
DOCKED: ATOM      7  C   UNL     1      36.294  10.804 122.264 -0.66 -0.00    +0.000 C 
DOCKED: BRANCH   7   8
DOCKED: ATOM      8  C   UNL     1      36.708   9.385 122.268 -0.71 -0.00    +0.000 C 
DOCKED: ATOM      9  N   UNL     1      36.695   8.584 123.456 -0.63 -0.00    +0.000 N 
DOCKED: ATOM     10  O   UNL     1      37.061   8.861 121.177 -2.69 -0.00    +0.000 OA
DOCKED: ATOM     11  H   UNL     1      36.324   8.953 124.291 -0.29 -0.00    +0.000 HD
DOCKED: BRANCH   9  12
DOCKED: ATOM     12  O   UNL     1      37.188   7.324 123.434 -2.04 -0.00    +0.000 OA
DOCKED: ATOM     13  H   UNL     1      37.776   7.220 122.669 -0.39 -0.00    +0.000 HD
DOCKED: ENDBRANCH   9  12
DOCKED: ENDBRANCH   7   8
DOCKED: ENDBRANCH   4   6
DOCKED: ENDBRANCH   1   3
DOCKED: BRANCH   1  14
DOCKED: ATOM     14  C   UNL     1      37.771  16.167 120.601 -0.18 -0.00    +0.000 C 
DOCKED: ATOM     15  O   UNL     1      38.306  17.303 120.737 -0.09 -0.00    +0.000 OA
DOCKED: BRANCH  14  19
DOCKED: ATOM     16  C   UNL     1      38.088  14.189 116.768 -0.29 -0.00    +0.000 A 
DOCKED: ATOM     17  C   UNL     1      38.987  15.208 117.142 -0.17 -0.00    +0.000 A 
DOCKED: ATOM     18  C   UNL     1      38.875  15.844 118.382 -0.13 -0.00    +0.000 A 
DOCKED: ATOM     19  C   UNL     1      37.867  15.478 119.288 -0.18 -0.00    +0.000 A 
DOCKED: ATOM     20  C   UNL     1      36.961  14.469 118.917 -0.28 -0.00    +0.000 A 
DOCKED: ATOM     21  C   UNL     1      37.071  13.834 117.676 -0.35 -0.00    +0.000 A 
DOCKED: ATOM     22  CM  UNL     1      37.974  14.838 118.029 +0.00 -0.00    +0.000 AC
DOCKED: BRANCH  16  23
DOCKED: ATOM     23  C   UNL     1      37.583  14.112 114.284 -0.33 -0.00    +0.000 C 
DOCKED: ATOM     24  N   UNL     1      38.203  13.529 115.481 -0.43 -0.00    +0.000 N 
DOCKED: ATOM     25  C   UNL     1      38.939  12.265 115.353 -0.57 -0.00    +0.000 C 
DOCKED: ENDBRANCH  16  23
DOCKED: ENDBRANCH  14  19
DOCKED: ENDBRANCH   1  14
DOCKED: TORSDOF 7DOCKED: TER
DOCKED: ENDMDL
________________________________________________________________________________


	BEGINNING GENETIC ALGORITHM DOCKING 19 of 100
Run: 19 Seed: 1882274325 2002755273 [ Run 19 of 100 GA/GALS ]
Beginning LAMARCKIAN GENETIC ALGORITHM (LGA), with a maximum of 2500000 energy evaluations.

Final-Value: -14.826


	FINAL GENETIC ALGORITHM DOCKED STATE
	_______________________________________________


Detailed state:  trans 39.279 14.163 121.857 quatxyzw -0.340237 0.566176 0.641224 0.390533 center 1.179 0.138 -0.353 ntor 7 10.4538 63.1669 -38.2137 179.9307 90.6328 149.2987 -38.3504
State:	 39.279  14.163 121.857  -0.370  0.615  0.697 134.025     10.45   63.17  -38.21  179.93   90.63  149.30  -38.35

DOCKED: MODEL       19
DOCKED: USER    Run = 19
DOCKED: USER    DPF = ligand_dock.biased.dpf
DOCKED: USER  
DOCKED: USER    Estimated Free Energy of Binding    =  -11.33 kcal/mol  [=(1)+(2)+(3)-(4)]
DOCKED: USER    Estimated Inhibition Constant, Ki   =    4.96 nM (nanomolar)  [Temperature = 298.15 K]
DOCKED: USER    
DOCKED: USER    (1) Final Intermolecular Energy     =  -13.42 kcal/mol
DOCKED: USER        vdW + Hbond + desolv Energy     =  -13.42 kcal/mol
DOCKED: USER        Electrostatic Energy            =   +0.00 kcal/mol
DOCKED: USER    (2) Final Total Internal Energy     =   -1.41 kcal/mol
DOCKED: USER    (3) Torsional Free Energy           =   +2.09 kcal/mol
DOCKED: USER    (4) Unbound System's Energy  [=(2)] =   -1.41 kcal/mol
DOCKED: USER    
DOCKED: USER    
DOCKED: USER    NEWDPF move ligand.dum.pdbqt
DOCKED: USER    NEWDPF about 1.179000 0.138000 -0.353000
DOCKED: USER    NEWDPF tran0 39.278693 14.163119 121.856629
DOCKED: USER    NEWDPF quaternion0 -0.340237 0.566176 0.641224 0.390533
DOCKED: USER    NEWDPF axisangle0 -0.369586 0.615014 0.696537 134.024701
DOCKED: USER    NEWDPF quat0 -0.369586 0.615014 0.696537 134.024701
DOCKED: USER    NEWDPF dihe0 10.45 63.17 -38.21 179.93 90.63 149.30 -38.35 
DOCKED: USER  keepresnum = 1 
DOCKED: USER  
DOCKED: REMARK  Name = 
DOCKED: REMARK  11 active torsions:
DOCKED: REMARK  status: ('A' for Active; 'I' for Inactive)
DOCKED: REMARK    1  A    between atoms: C_1  and  N_2
DOCKED: REMARK    2  A    between atoms: N_2  and  C_3
DOCKED: REMARK    3  A    between atoms: N_2  and  C_22
DOCKED: REMARK    4  A    between atoms: C_6  and  C_9
DOCKED: REMARK    5  A    between atoms: C_9  and  C_10
DOCKED: REMARK    6  A    between atoms: C_10  and  C_11
DOCKED: REMARK    7  A    between atoms: C_10  and  C_20
DOCKED: REMARK    8  A    between atoms: C_12  and  C_13
DOCKED: REMARK    9  A    between atoms: C_12  and  C_19
DOCKED: REMARK   10  A    between atoms: C_14  and  C_15
DOCKED: REMARK   11  A    between atoms: N_16  and  O_17
DOCKED: REMARK                            x       y       z     vdW  Elec       q    Type
DOCKED: REMARK                         _______ _______ _______ _____ _____    ______ ____
DOCKED: USER                              x       y       z     vdW  Elec       q    Type
DOCKED: USER                           _______ _______ _______ _____ _____    ______ ____
DOCKED: ROOT
DOCKED: ATOM      1  C   UNL     1      37.738  15.282 121.615 -0.30 -0.00    +0.000 C 
DOCKED: ATOM      2  C   UNL     1      36.391  16.011 121.614 -0.21 -0.00    +0.000 C 
DOCKED: ENDROOT
DOCKED: BRANCH   1   3
DOCKED: ATOM      3  C   UNL     1      37.535  13.794 121.810 -0.45 -0.00    +0.000 C 
DOCKED: ATOM      4  C   UNL     1      36.801  13.246 122.800 -0.57 -0.00    +0.000 C 
DOCKED: ATOM      5  C   UNL     1      36.109  14.098 123.843 -0.54 -0.00    +0.000 C 
DOCKED: BRANCH   4   6
DOCKED: ATOM      6  C   UNL     1      36.740  11.763 122.882 -0.67 -0.00    +0.000 C 
DOCKED: ATOM      7  C   UNL     1      36.966  10.961 121.831 -0.55 -0.00    +0.000 C 
DOCKED: BRANCH   7   8
DOCKED: ATOM      8  C   UNL     1      36.906   9.487 121.906 -0.64 -0.00    +0.000 C 
DOCKED: ATOM      9  N   UNL     1      37.021   8.775 123.145 -0.68 -0.00    +0.000 N 
DOCKED: ATOM     10  O   UNL     1      36.723   8.840 120.840 -2.62 +0.00    +0.000 OA
DOCKED: ATOM     11  H   UNL     1      37.060   9.273 123.994 -0.53 -0.00    +0.000 HD
DOCKED: BRANCH   9  12
DOCKED: ATOM     12  O   UNL     1      37.072   7.423 123.151 -2.19 -0.00    +0.000 OA
DOCKED: ATOM     13  H   UNL     1      37.188   7.099 122.244 -0.14 -0.00    +0.000 HD
DOCKED: ENDBRANCH   9  12
DOCKED: ENDBRANCH   7   8
DOCKED: ENDBRANCH   4   6
DOCKED: ENDBRANCH   1   3
DOCKED: BRANCH   1  14
DOCKED: ATOM     14  C   UNL     1      38.618  15.846 122.711 -0.32 -0.00    +0.000 C 
DOCKED: ATOM     15  O   UNL     1      38.096  16.123 123.826 -0.33 -0.00    +0.000 OA
DOCKED: BRANCH  14  19
DOCKED: ATOM     16  C   UNL     1      42.847  16.537 122.125 -0.33 -0.00    +0.000 A 
DOCKED: ATOM     17  C   UNL     1      42.311  15.233 122.119 -0.38 -0.00    +0.000 A 
DOCKED: ATOM     18  C   UNL     1      40.944  15.020 122.313 -0.45 -0.00    +0.000 A 
DOCKED: ATOM     19  C   UNL     1      40.069  16.100 122.511 -0.29 -0.00    +0.000 A 
DOCKED: ATOM     20  C   UNL     1      40.598  17.402 122.526 -0.18 -0.00    +0.000 A 
DOCKED: ATOM     21  C   UNL     1      41.967  17.617 122.335 -0.20 -0.00    +0.000 A 
DOCKED: ATOM     22  CM  UNL     1      41.456  16.318 122.322 +0.00 -0.00    +0.000 AC
DOCKED: BRANCH  16  23
DOCKED: ATOM     23  C   UNL     1      44.993  17.734 122.749 -0.30 -0.00    +0.000 C 
DOCKED: ATOM     24  N   UNL     1      44.267  16.760 121.924 -0.30 -0.00    +0.000 N 
DOCKED: ATOM     25  C   UNL     1      45.002  16.018 120.893 -0.27 +0.00    +0.000 C 
DOCKED: ENDBRANCH  16  23
DOCKED: ENDBRANCH  14  19
DOCKED: ENDBRANCH   1  14
DOCKED: TORSDOF 7DOCKED: TER
DOCKED: ENDMDL
________________________________________________________________________________


	BEGINNING GENETIC ALGORITHM DOCKING 20 of 100
Run: 20 Seed: 1146775566 1990616798 [ Run 20 of 100 GA/GALS ]
Beginning LAMARCKIAN GENETIC ALGORITHM (LGA), with a maximum of 2500000 energy evaluations.

Final-Value: -13.132


	FINAL GENETIC ALGORITHM DOCKED STATE
	_______________________________________________


Detailed state:  trans 39.396 14.033 121.045 quatxyzw -0.260524 0.367919 0.807298 0.380832 center 1.179 0.138 -0.353 ntor 7 18.4333 94.9566 -178.9157 -24.5994 23.2105 159.7117 44.0670
State:	 39.396  14.033 121.045  -0.282  0.398  0.873 135.230     18.43   94.96 -178.92  -24.60   23.21  159.71   44.07

DOCKED: MODEL       20
DOCKED: USER    Run = 20
DOCKED: USER    DPF = ligand_dock.biased.dpf
DOCKED: USER  
DOCKED: USER    Estimated Free Energy of Binding    =  -10.09 kcal/mol  [=(1)+(2)+(3)-(4)]
DOCKED: USER    Estimated Inhibition Constant, Ki   =   40.29 nM (nanomolar)  [Temperature = 298.15 K]
DOCKED: USER    
DOCKED: USER    (1) Final Intermolecular Energy     =  -12.18 kcal/mol
DOCKED: USER        vdW + Hbond + desolv Energy     =  -12.18 kcal/mol
DOCKED: USER        Electrostatic Energy            =   +0.00 kcal/mol
DOCKED: USER    (2) Final Total Internal Energy     =   -0.96 kcal/mol
DOCKED: USER    (3) Torsional Free Energy           =   +2.09 kcal/mol
DOCKED: USER    (4) Unbound System's Energy  [=(2)] =   -0.96 kcal/mol
DOCKED: USER    
DOCKED: USER    
DOCKED: USER    NEWDPF move ligand.dum.pdbqt
DOCKED: USER    NEWDPF about 1.179000 0.138000 -0.353000
DOCKED: USER    NEWDPF tran0 39.395844 14.032551 121.045362
DOCKED: USER    NEWDPF quaternion0 -0.260524 0.367919 0.807298 0.380832
DOCKED: USER    NEWDPF axisangle0 -0.281756 0.397903 0.873090 135.229604
DOCKED: USER    NEWDPF quat0 -0.281756 0.397903 0.873090 135.229604
DOCKED: USER    NEWDPF dihe0 18.43 94.96 -178.92 -24.60 23.21 159.71 44.07 
DOCKED: USER  keepresnum = 1 
DOCKED: USER  
DOCKED: REMARK  Name = 
DOCKED: REMARK  11 active torsions:
DOCKED: REMARK  status: ('A' for Active; 'I' for Inactive)
DOCKED: REMARK    1  A    between atoms: C_1  and  N_2
DOCKED: REMARK    2  A    between atoms: N_2  and  C_3
DOCKED: REMARK    3  A    between atoms: N_2  and  C_22
DOCKED: REMARK    4  A    between atoms: C_6  and  C_9
DOCKED: REMARK    5  A    between atoms: C_9  and  C_10
DOCKED: REMARK    6  A    between atoms: C_10  and  C_11
DOCKED: REMARK    7  A    between atoms: C_10  and  C_20
DOCKED: REMARK    8  A    between atoms: C_12  and  C_13
DOCKED: REMARK    9  A    between atoms: C_12  and  C_19
DOCKED: REMARK   10  A    between atoms: C_14  and  C_15
DOCKED: REMARK   11  A    between atoms: N_16  and  O_17
DOCKED: REMARK                            x       y       z     vdW  Elec       q    Type
DOCKED: REMARK                         _______ _______ _______ _____ _____    ______ ____
DOCKED: USER                              x       y       z     vdW  Elec       q    Type
DOCKED: USER                           _______ _______ _______ _____ _____    ______ ____
DOCKED: ROOT
DOCKED: ATOM      1  C   UNL     1      38.066  15.195 121.797 -0.32 -0.00    +0.000 C 
DOCKED: ATOM      2  C   UNL     1      36.930  15.899 122.546 -0.31 -0.00    +0.000 C 
DOCKED: ENDROOT
DOCKED: BRANCH   1   3
DOCKED: ATOM      3  C   UNL     1      37.697  13.754 121.510 -0.44 -0.00    +0.000 C 
DOCKED: ATOM      4  C   UNL     1      37.064  12.940 122.379 -0.55 -0.00    +0.000 C 
DOCKED: ATOM      5  C   UNL     1      36.669  13.407 123.764 -0.52 -0.00    +0.000 C 
DOCKED: BRANCH   4   6
DOCKED: ATOM      6  C   UNL     1      36.817  11.534 121.963 -0.60 -0.00    +0.000 C 
DOCKED: ATOM      7  C   UNL     1      37.093  10.479 122.744 -0.54 -0.00    +0.000 C 
DOCKED: BRANCH   7   8
DOCKED: ATOM      8  C   UNL     1      36.851   9.080 122.335 -0.71 -0.00    +0.000 C 
DOCKED: ATOM      9  N   UNL     1      36.766   8.007 123.282 -0.73 -0.00    +0.000 N 
DOCKED: ATOM     10  O   UNL     1      36.690   8.833 121.110 -2.61 -0.00    +0.000 OA
DOCKED: ATOM     11  H   UNL     1      36.786   8.203 124.247 -0.34 -0.00    +0.000 HD
DOCKED: BRANCH   9  12
DOCKED: ATOM     12  O   UNL     1      36.655   6.728 122.853 -1.44 -0.00    +0.000 OA
DOCKED: ATOM     13  H   UNL     1      36.935   6.672 121.926 -0.23 -0.00    +0.000 HD
DOCKED: ENDBRANCH   9  12
DOCKED: ENDBRANCH   7   8
DOCKED: ENDBRANCH   4   6
DOCKED: ENDBRANCH   1   3
DOCKED: BRANCH   1  14
DOCKED: ATOM     14  C   UNL     1      39.335  15.265 122.619 -0.37 -0.00    +0.000 C 
DOCKED: ATOM     15  O   UNL     1      39.914  14.188 122.934 -0.83 -0.00    +0.000 OA
DOCKED: BRANCH  14  19
DOCKED: ATOM     16  C   UNL     1      41.054  19.004 123.949 -0.17 -0.00    +0.000 A 
DOCKED: ATOM     17  C   UNL     1      41.851  17.999 123.365 -0.25 -0.00    +0.000 A 
DOCKED: ATOM     18  C   UNL     1      41.287  16.793 122.941 -0.32 -0.00    +0.000 A 
DOCKED: ATOM     19  C   UNL     1      39.910  16.555 123.081 -0.24 -0.00    +0.000 A 
DOCKED: ATOM     20  C   UNL     1      39.112  17.549 123.672 -0.21 -0.00    +0.000 A 
DOCKED: ATOM     21  C   UNL     1      39.675  18.756 124.098 -0.15 -0.00    +0.000 A 
DOCKED: ATOM     22  CM  UNL     1      40.482  17.775 123.518 +0.00 -0.00    +0.000 AC
DOCKED: BRANCH  16  23
DOCKED: ATOM     23  C   UNL     1      41.837  20.526 125.820 -0.14 -0.00    +0.000 C 
DOCKED: ATOM     24  N   UNL     1      41.639  20.257 124.390 -0.11 -0.00    +0.000 N 
DOCKED: ATOM     25  C   UNL     1      42.040  21.278 123.415 -0.06 -0.00    +0.000 C 
DOCKED: ENDBRANCH  16  23
DOCKED: ENDBRANCH  14  19
DOCKED: ENDBRANCH   1  14
DOCKED: TORSDOF 7DOCKED: TER
DOCKED: ENDMDL
________________________________________________________________________________


	BEGINNING GENETIC ALGORITHM DOCKING 21 of 100
Run: 21 Seed: 722730871 1824194827 [ Run 21 of 100 GA/GALS ]
Beginning LAMARCKIAN GENETIC ALGORITHM (LGA), with a maximum of 2500000 energy evaluations.

Final-Value: -15.405


	FINAL GENETIC ALGORITHM DOCKED STATE
	_______________________________________________


Detailed state:  trans 36.065 14.533 121.764 quatxyzw -0.669345 0.374715 -0.443805 -0.463253 center 1.179 0.138 -0.353 ntor 7 20.2135 110.2047 0.6902 135.5956 -122.5868 -23.3665 170.5277
State:	 36.065  14.533 121.764  -0.755  0.423 -0.501 -124.806     20.21  110.20    0.69  135.60 -122.59  -23.37  170.53

DOCKED: MODEL       21
DOCKED: USER    Run = 21
DOCKED: USER    DPF = ligand_dock.biased.dpf
DOCKED: USER  
DOCKED: USER    Estimated Free Energy of Binding    =  -11.50 kcal/mol  [=(1)+(2)+(3)-(4)]
DOCKED: USER    Estimated Inhibition Constant, Ki   =    3.72 nM (nanomolar)  [Temperature = 298.15 K]
DOCKED: USER    
DOCKED: USER    (1) Final Intermolecular Energy     =  -13.59 kcal/mol
DOCKED: USER        vdW + Hbond + desolv Energy     =  -13.59 kcal/mol
DOCKED: USER        Electrostatic Energy            =   +0.00 kcal/mol
DOCKED: USER    (2) Final Total Internal Energy     =   -1.82 kcal/mol
DOCKED: USER    (3) Torsional Free Energy           =   +2.09 kcal/mol
DOCKED: USER    (4) Unbound System's Energy  [=(2)] =   -1.82 kcal/mol
DOCKED: USER    
DOCKED: USER    
DOCKED: USER    NEWDPF move ligand.dum.pdbqt
DOCKED: USER    NEWDPF about 1.179000 0.138000 -0.353000
DOCKED: USER    NEWDPF tran0 36.064929 14.533181 121.763650
DOCKED: USER    NEWDPF quaternion0 -0.669345 0.374715 -0.443805 -0.463253
DOCKED: USER    NEWDPF axisangle0 -0.755276 0.422821 -0.500781 -124.805500
DOCKED: USER    NEWDPF quat0 -0.755276 0.422821 -0.500781 -124.805500
DOCKED: USER    NEWDPF dihe0 20.21 110.20 0.69 135.60 -122.59 -23.37 170.53 
DOCKED: USER  keepresnum = 1 
DOCKED: USER  
DOCKED: REMARK  Name = 
DOCKED: REMARK  11 active torsions:
DOCKED: REMARK  status: ('A' for Active; 'I' for Inactive)
DOCKED: REMARK    1  A    between atoms: C_1  and  N_2
DOCKED: REMARK    2  A    between atoms: N_2  and  C_3
DOCKED: REMARK    3  A    between atoms: N_2  and  C_22
DOCKED: REMARK    4  A    between atoms: C_6  and  C_9
DOCKED: REMARK    5  A    between atoms: C_9  and  C_10
DOCKED: REMARK    6  A    between atoms: C_10  and  C_11
DOCKED: REMARK    7  A    between atoms: C_10  and  C_20
DOCKED: REMARK    8  A    between atoms: C_12  and  C_13
DOCKED: REMARK    9  A    between atoms: C_12  and  C_19
DOCKED: REMARK   10  A    between atoms: C_14  and  C_15
DOCKED: REMARK   11  A    between atoms: N_16  and  O_17
DOCKED: REMARK                            x       y       z     vdW  Elec       q    Type
DOCKED: REMARK                         _______ _______ _______ _____ _____    ______ ____
DOCKED: USER                              x       y       z     vdW  Elec       q    Type
DOCKED: USER                           _______ _______ _______ _____ _____    ______ ____
DOCKED: ROOT
DOCKED: ATOM      1  C   UNL     1      37.748  15.455 121.825 -0.29 -0.00    +0.000 C 
DOCKED: ATOM      2  C   UNL     1      39.188  15.968 121.738 -0.25 -0.00    +0.000 C 
DOCKED: ENDROOT
DOCKED: BRANCH   1   3
DOCKED: ATOM      3  C   UNL     1      37.731  13.953 122.021 -0.46 -0.00    +0.000 C 
DOCKED: ATOM      4  C   UNL     1      36.933  13.306 122.895 -0.57 -0.00    +0.000 C 
DOCKED: ATOM      5  C   UNL     1      35.968  14.049 123.793 -0.56 -0.00    +0.000 C 
DOCKED: BRANCH   4   6
DOCKED: ATOM      6  C   UNL     1      37.073  11.830 123.002 -0.65 -0.00    +0.000 C 
DOCKED: ATOM      7  C   UNL     1      36.734  10.988 122.014 -0.62 -0.00    +0.000 C 
DOCKED: BRANCH   7   8
DOCKED: ATOM      8  C   UNL     1      36.869   9.520 122.115 -0.66 -0.00    +0.000 C 
DOCKED: ATOM      9  N   UNL     1      36.995   8.845 123.373 -0.62 -0.00    +0.000 N 
DOCKED: ATOM     10  O   UNL     1      36.849   8.842 121.053 -2.65 -0.00    +0.000 OA
DOCKED: ATOM     11  H   UNL     1      36.909   9.353 124.213 -0.53 -0.00    +0.000 HD
DOCKED: BRANCH   9  12
DOCKED: ATOM     12  O   UNL     1      37.229   7.512 123.410 -2.14 -0.00    +0.000 OA
DOCKED: ATOM     13  H   UNL     1      37.597   7.224 122.560 -0.26 -0.00    +0.000 HD
DOCKED: ENDBRANCH   9  12
DOCKED: ENDBRANCH   7   8
DOCKED: ENDBRANCH   4   6
DOCKED: ENDBRANCH   1   3
DOCKED: BRANCH   1  14
DOCKED: ATOM     14  C   UNL     1      36.998  15.834 120.565 -0.21 -0.00    +0.000 C 
DOCKED: ATOM     15  O   UNL     1      36.086  16.704 120.641 -0.22 -0.00    +0.000 OA
DOCKED: BRANCH  14  19
DOCKED: ATOM     16  C   UNL     1      37.812  13.962 116.753 -0.33 -0.00    +0.000 A 
DOCKED: ATOM     17  C   UNL     1      37.010  13.327 117.723 -0.35 -0.00    +0.000 A 
DOCKED: ATOM     18  C   UNL     1      36.755  13.939 118.953 -0.33 -0.00    +0.000 A 
DOCKED: ATOM     19  C   UNL     1      37.287  15.204 119.250 -0.21 -0.00    +0.000 A 
DOCKED: ATOM     20  C   UNL     1      38.095  15.838 118.291 -0.14 -0.00    +0.000 A 
DOCKED: ATOM     21  C   UNL     1      38.352  15.226 117.060 -0.18 -0.00    +0.000 A 
DOCKED: ATOM     22  CM  UNL     1      37.552  14.582 118.006 +0.00 -0.00    +0.000 AC
DOCKED: BRANCH  16  23
DOCKED: ATOM     23  C   UNL     1      39.244  12.453 115.304 -0.52 -0.00    +0.000 C 
DOCKED: ATOM     24  N   UNL     1      38.078  13.327 115.474 -0.45 -0.00    +0.000 N 
DOCKED: ATOM     25  C   UNL     1      37.186  13.551 114.330 -0.38 -0.00    +0.000 C 
DOCKED: ENDBRANCH  16  23
DOCKED: ENDBRANCH  14  19
DOCKED: ENDBRANCH   1  14
DOCKED: TORSDOF 7DOCKED: TER
DOCKED: ENDMDL
________________________________________________________________________________


	BEGINNING GENETIC ALGORITHM DOCKING 22 of 100
Run: 22 Seed: 651643235 1204729959 [ Run 22 of 100 GA/GALS ]
Beginning LAMARCKIAN GENETIC ALGORITHM (LGA), with a maximum of 2500000 energy evaluations.

Final-Value: -14.766


	FINAL GENETIC ALGORITHM DOCKED STATE
	_______________________________________________


Detailed state:  trans 36.523 14.343 120.666 quatxyzw 0.423584 -0.083325 0.641718 0.633902 center 1.179 0.138 -0.353 ntor 7 14.9307 -44.0353 9.8207 132.6978 78.2643 -74.0631 -75.3158
State:	 36.523  14.343 120.666   0.548 -0.108  0.830 101.323     14.93  -44.04    9.82  132.70   78.26  -74.06  -75.32

DOCKED: MODEL       22
DOCKED: USER    Run = 22
DOCKED: USER    DPF = ligand_dock.biased.dpf
DOCKED: USER  
DOCKED: USER    Estimated Free Energy of Binding    =  -10.96 kcal/mol  [=(1)+(2)+(3)-(4)]
DOCKED: USER    Estimated Inhibition Constant, Ki   =    9.27 nM (nanomolar)  [Temperature = 298.15 K]
DOCKED: USER    
DOCKED: USER    (1) Final Intermolecular Energy     =  -13.05 kcal/mol
DOCKED: USER        vdW + Hbond + desolv Energy     =  -13.05 kcal/mol
DOCKED: USER        Electrostatic Energy            =   +0.00 kcal/mol
DOCKED: USER    (2) Final Total Internal Energy     =   -1.72 kcal/mol
DOCKED: USER    (3) Torsional Free Energy           =   +2.09 kcal/mol
DOCKED: USER    (4) Unbound System's Energy  [=(2)] =   -1.72 kcal/mol
DOCKED: USER    
DOCKED: USER    
DOCKED: USER    NEWDPF move ligand.dum.pdbqt
DOCKED: USER    NEWDPF about 1.179000 0.138000 -0.353000
DOCKED: USER    NEWDPF tran0 36.523245 14.343340 120.666250
DOCKED: USER    NEWDPF quaternion0 0.423584 -0.083325 0.641718 0.633902
DOCKED: USER    NEWDPF axisangle0 0.547681 -0.107737 0.829722 101.322781
DOCKED: USER    NEWDPF quat0 0.547681 -0.107737 0.829722 101.322781
DOCKED: USER    NEWDPF dihe0 14.93 -44.04 9.82 132.70 78.26 -74.06 -75.32 
DOCKED: USER  keepresnum = 1 
DOCKED: USER  
DOCKED: REMARK  Name = 
DOCKED: REMARK  11 active torsions:
DOCKED: REMARK  status: ('A' for Active; 'I' for Inactive)
DOCKED: REMARK    1  A    between atoms: C_1  and  N_2
DOCKED: REMARK    2  A    between atoms: N_2  and  C_3
DOCKED: REMARK    3  A    between atoms: N_2  and  C_22
DOCKED: REMARK    4  A    between atoms: C_6  and  C_9
DOCKED: REMARK    5  A    between atoms: C_9  and  C_10
DOCKED: REMARK    6  A    between atoms: C_10  and  C_11
DOCKED: REMARK    7  A    between atoms: C_10  and  C_20
DOCKED: REMARK    8  A    between atoms: C_12  and  C_13
DOCKED: REMARK    9  A    between atoms: C_12  and  C_19
DOCKED: REMARK   10  A    between atoms: C_14  and  C_15
DOCKED: REMARK   11  A    between atoms: N_16  and  O_17
DOCKED: REMARK                            x       y       z     vdW  Elec       q    Type
DOCKED: REMARK                         _______ _______ _______ _____ _____    ______ ____
DOCKED: USER                              x       y       z     vdW  Elec       q    Type
DOCKED: USER                           _______ _______ _______ _____ _____    ______ ____
DOCKED: ROOT
DOCKED: ATOM      1  C   UNL     1      37.316  15.468 122.005 -0.30 -0.00    +0.000 C 
DOCKED: ATOM      2  C   UNL     1      38.153  16.175 123.075 -0.30 -0.00    +0.000 C 
DOCKED: ENDROOT
DOCKED: BRANCH   1   3
DOCKED: ATOM      3  C   UNL     1      37.419  13.965 122.161 -0.46 -0.00    +0.000 C 
DOCKED: ATOM      4  C   UNL     1      36.649  13.228 122.988 -0.59 -0.00    +0.000 C 
DOCKED: ATOM      5  C   UNL     1      35.596  13.863 123.871 -0.53 -0.00    +0.000 C 
DOCKED: BRANCH   4   6
DOCKED: ATOM      6  C   UNL     1      36.908  11.766 123.062 -0.67 -0.00    +0.000 C 
DOCKED: ATOM      7  C   UNL     1      36.621  10.920 122.061 -0.63 -0.00    +0.000 C 
DOCKED: BRANCH   7   8
DOCKED: ATOM      8  C   UNL     1      36.875   9.466 122.128 -0.66 -0.00    +0.000 C 
DOCKED: ATOM      9  N   UNL     1      36.885   8.745 123.367 -0.63 -0.00    +0.000 N 
DOCKED: ATOM     10  O   UNL     1      37.065   8.841 121.050 -2.70 -0.00    +0.000 OA
DOCKED: ATOM     11  H   UNL     1      36.637   9.202 124.202 -0.46 -0.00    +0.000 HD
DOCKED: BRANCH   9  12
DOCKED: ATOM     12  O   UNL     1      37.233   7.437 123.389 -2.10 -0.00    +0.000 OA
DOCKED: ATOM     13  H   UNL     1      37.667   7.202 122.554 -0.29 -0.00    +0.000 HD
DOCKED: ENDBRANCH   9  12
DOCKED: ENDBRANCH   7   8
DOCKED: ENDBRANCH   4   6
DOCKED: ENDBRANCH   1   3
DOCKED: BRANCH   1  14
DOCKED: ATOM     14  C   UNL     1      37.787  15.892 120.630 -0.20 -0.00    +0.000 C 
DOCKED: ATOM     15  O   UNL     1      38.783  16.663 120.541 -0.12 -0.00    +0.000 OA
DOCKED: BRANCH  14  19
DOCKED: ATOM     16  C   UNL     1      35.829  14.554 117.013 -0.29 -0.00    +0.000 A 
DOCKED: ATOM     17  C   UNL     1      36.722  13.719 117.714 -0.37 -0.00    +0.000 A 
DOCKED: ATOM     18  C   UNL     1      37.352  14.161 118.880 -0.31 -0.00    +0.000 A 
DOCKED: ATOM     19  C   UNL     1      37.106  15.448 119.386 -0.19 -0.00    +0.000 A 
DOCKED: ATOM     20  C   UNL     1      36.224  16.289 118.687 -0.14 -0.00    +0.000 A 
DOCKED: ATOM     21  C   UNL     1      35.594  15.849 117.519 -0.17 -0.00    +0.000 A 
DOCKED: ATOM     22  CM  UNL     1      36.472  15.003 118.200 +0.00 -0.00    +0.000 AC
DOCKED: BRANCH  16  23
DOCKED: ATOM     23  C   UNL     1      33.715  13.936 115.757 -0.33 -0.00    +0.000 C 
DOCKED: ATOM     24  N   UNL     1      35.173  14.096 115.801 -0.29 -0.00    +0.000 N 
DOCKED: ATOM     25  C   UNL     1      35.958  13.783 114.601 -0.30 -0.00    +0.000 C 
DOCKED: ENDBRANCH  16  23
DOCKED: ENDBRANCH  14  19
DOCKED: ENDBRANCH   1  14
DOCKED: TORSDOF 7DOCKED: TER
DOCKED: ENDMDL
________________________________________________________________________________


	BEGINNING GENETIC ALGORITHM DOCKING 23 of 100
Run: 23 Seed: 754224753 2024579197 [ Run 23 of 100 GA/GALS ]
Beginning LAMARCKIAN GENETIC ALGORITHM (LGA), with a maximum of 2500000 energy evaluations.

Final-Value: -15.543


	FINAL GENETIC ALGORITHM DOCKED STATE
	_______________________________________________


Detailed state:  trans 36.188 14.624 121.942 quatxyzw -0.636280 0.434609 -0.468377 -0.432303 center 1.179 0.138 -0.353 ntor 7 20.8737 105.1553 -42.5271 173.8482 -121.5660 -19.2261 170.6008
State:	 36.188  14.624 121.942  -0.706  0.482 -0.519 -128.772     20.87  105.16  -42.53  173.85 -121.57  -19.23  170.60

DOCKED: MODEL       23
DOCKED: USER    Run = 23
DOCKED: USER    DPF = ligand_dock.biased.dpf
DOCKED: USER  
DOCKED: USER    Estimated Free Energy of Binding    =  -11.60 kcal/mol  [=(1)+(2)+(3)-(4)]
DOCKED: USER    Estimated Inhibition Constant, Ki   =    3.15 nM (nanomolar)  [Temperature = 298.15 K]
DOCKED: USER    
DOCKED: USER    (1) Final Intermolecular Energy     =  -13.69 kcal/mol
DOCKED: USER        vdW + Hbond + desolv Energy     =  -13.69 kcal/mol
DOCKED: USER        Electrostatic Energy            =   +0.00 kcal/mol
DOCKED: USER    (2) Final Total Internal Energy     =   -1.86 kcal/mol
DOCKED: USER    (3) Torsional Free Energy           =   +2.09 kcal/mol
DOCKED: USER    (4) Unbound System's Energy  [=(2)] =   -1.86 kcal/mol
DOCKED: USER    
DOCKED: USER    
DOCKED: USER    NEWDPF move ligand.dum.pdbqt
DOCKED: USER    NEWDPF about 1.179000 0.138000 -0.353000
DOCKED: USER    NEWDPF tran0 36.187586 14.624011 121.942076
DOCKED: USER    NEWDPF quaternion0 -0.636280 0.434609 -0.468377 -0.432303
DOCKED: USER    NEWDPF axisangle0 -0.705623 0.481973 -0.519421 -128.772359
DOCKED: USER    NEWDPF quat0 -0.705623 0.481973 -0.519421 -128.772359
DOCKED: USER    NEWDPF dihe0 20.87 105.16 -42.53 173.85 -121.57 -19.23 170.60 
DOCKED: USER  keepresnum = 1 
DOCKED: USER  
DOCKED: REMARK  Name = 
DOCKED: REMARK  11 active torsions:
DOCKED: REMARK  status: ('A' for Active; 'I' for Inactive)
DOCKED: REMARK    1  A    between atoms: C_1  and  N_2
DOCKED: REMARK    2  A    between atoms: N_2  and  C_3
DOCKED: REMARK    3  A    between atoms: N_2  and  C_22
DOCKED: REMARK    4  A    between atoms: C_6  and  C_9
DOCKED: REMARK    5  A    between atoms: C_9  and  C_10
DOCKED: REMARK    6  A    between atoms: C_10  and  C_11
DOCKED: REMARK    7  A    between atoms: C_10  and  C_20
DOCKED: REMARK    8  A    between atoms: C_12  and  C_13
DOCKED: REMARK    9  A    between atoms: C_12  and  C_19
DOCKED: REMARK   10  A    between atoms: C_14  and  C_15
DOCKED: REMARK   11  A    between atoms: N_16  and  O_17
DOCKED: REMARK                            x       y       z     vdW  Elec       q    Type
DOCKED: REMARK                         _______ _______ _______ _____ _____    ______ ____
DOCKED: USER                              x       y       z     vdW  Elec       q    Type
DOCKED: USER                           _______ _______ _______ _____ _____    ______ ____
DOCKED: ROOT
DOCKED: ATOM      1  C   UNL     1      37.993  15.273 121.994 -0.33 -0.00    +0.000 C 
DOCKED: ATOM      2  C   UNL     1      39.495  15.559 121.892 -0.32 -0.00    +0.000 C 
DOCKED: ENDROOT
DOCKED: BRANCH   1   3
DOCKED: ATOM      3  C   UNL     1      37.747  13.787 122.156 -0.48 -0.00    +0.000 C 
DOCKED: ATOM      4  C   UNL     1      36.816  13.252 122.972 -0.58 -0.00    +0.000 C 
DOCKED: ATOM      5  C   UNL     1      35.920  14.116 123.833 -0.56 -0.00    +0.000 C 
DOCKED: BRANCH   4   6
DOCKED: ATOM      6  C   UNL     1      36.732  11.770 123.054 -0.68 -0.00    +0.000 C 
DOCKED: ATOM      7  C   UNL     1      37.066  10.960 122.039 -0.54 -0.00    +0.000 C 
DOCKED: BRANCH   7   8
DOCKED: ATOM      8  C   UNL     1      36.985   9.486 122.114 -0.64 -0.00    +0.000 C 
DOCKED: ATOM      9  N   UNL     1      37.047   8.776 123.358 -0.64 -0.00    +0.000 N 
DOCKED: ATOM     10  O   UNL     1      36.831   8.839 121.044 -2.64 -0.00    +0.000 OA
DOCKED: ATOM     11  H   UNL     1      37.063   9.276 124.207 -0.58 -0.00    +0.000 HD
DOCKED: BRANCH   9  12
DOCKED: ATOM     12  O   UNL     1      37.081   7.423 123.369 -2.15 -0.00    +0.000 OA
DOCKED: ATOM     13  H   UNL     1      37.385   7.100 122.506 -0.21 -0.00    +0.000 HD
DOCKED: ENDBRANCH   9  12
DOCKED: ENDBRANCH   7   8
DOCKED: ENDBRANCH   4   6
DOCKED: ENDBRANCH   1   3
DOCKED: BRANCH   1  14
DOCKED: ATOM     14  C   UNL     1      37.293  15.795 120.757 -0.22 -0.00    +0.000 C 
DOCKED: ATOM     15  O   UNL     1      36.529  16.794 120.868 -0.20 -0.00    +0.000 OA
DOCKED: BRANCH  14  19
DOCKED: ATOM     16  C   UNL     1      37.747  13.913 116.889 -0.33 -0.00    +0.000 A 
DOCKED: ATOM     17  C   UNL     1      36.856  13.400 117.853 -0.35 -0.00    +0.000 A 
DOCKED: ATOM     18  C   UNL     1      36.718  14.013 119.100 -0.30 -0.00    +0.000 A 
DOCKED: ATOM     19  C   UNL     1      37.461  15.160 119.423 -0.21 -0.00    +0.000 A 
DOCKED: ATOM     20  C   UNL     1      38.359  15.672 118.471 -0.15 -0.00    +0.000 A 
DOCKED: ATOM     21  C   UNL     1      38.499  15.058 117.222 -0.18 -0.00    +0.000 A 
DOCKED: ATOM     22  CM  UNL     1      37.607  14.536 118.160 +0.00 -0.00    +0.000 AC
DOCKED: BRANCH  16  23
DOCKED: ATOM     23  C   UNL     1      38.961  12.300 115.355 -0.57 -0.00    +0.000 C 
DOCKED: ATOM     24  N   UNL     1      37.892  13.277 115.592 -0.44 -0.00    +0.000 N 
DOCKED: ATOM     25  C   UNL     1      36.972  13.602 114.495 -0.37 -0.00    +0.000 C 
DOCKED: ENDBRANCH  16  23
DOCKED: ENDBRANCH  14  19
DOCKED: ENDBRANCH   1  14
DOCKED: TORSDOF 7DOCKED: TER
DOCKED: ENDMDL
________________________________________________________________________________


	BEGINNING GENETIC ALGORITHM DOCKING 24 of 100
Run: 24 Seed: 545422061 25199738 [ Run 24 of 100 GA/GALS ]
Beginning LAMARCKIAN GENETIC ALGORITHM (LGA), with a maximum of 2500000 energy evaluations.

Final-Value: -15.370


	FINAL GENETIC ALGORITHM DOCKED STATE
	_______________________________________________


Detailed state:  trans 35.818 14.634 121.647 quatxyzw 0.589145 -0.402521 0.509059 0.481397 center 1.179 0.138 -0.353 ntor 7 13.5524 103.1259 -65.2773 -159.9567 -131.9341 -32.6734 177.9806
State:	 35.818  14.634 121.647   0.672 -0.459  0.581 122.447     13.55  103.13  -65.28 -159.96 -131.93  -32.67  177.98

DOCKED: MODEL       24
DOCKED: USER    Run = 24
DOCKED: USER    DPF = ligand_dock.biased.dpf
DOCKED: USER  
DOCKED: USER    Estimated Free Energy of Binding    =  -11.46 kcal/mol  [=(1)+(2)+(3)-(4)]
DOCKED: USER    Estimated Inhibition Constant, Ki   =    3.98 nM (nanomolar)  [Temperature = 298.15 K]
DOCKED: USER    
DOCKED: USER    (1) Final Intermolecular Energy     =  -13.55 kcal/mol
DOCKED: USER        vdW + Hbond + desolv Energy     =  -13.55 kcal/mol
DOCKED: USER        Electrostatic Energy            =   +0.00 kcal/mol
DOCKED: USER    (2) Final Total Internal Energy     =   -1.82 kcal/mol
DOCKED: USER    (3) Torsional Free Energy           =   +2.09 kcal/mol
DOCKED: USER    (4) Unbound System's Energy  [=(2)] =   -1.82 kcal/mol
DOCKED: USER    
DOCKED: USER    
DOCKED: USER    NEWDPF move ligand.dum.pdbqt
DOCKED: USER    NEWDPF about 1.179000 0.138000 -0.353000
DOCKED: USER    NEWDPF tran0 35.817517 14.633787 121.647222
DOCKED: USER    NEWDPF quaternion0 0.589145 -0.402521 0.509059 0.481397
DOCKED: USER    NEWDPF axisangle0 0.672154 -0.459236 0.580785 122.446589
DOCKED: USER    NEWDPF quat0 0.672154 -0.459236 0.580785 122.446589
DOCKED: USER    NEWDPF dihe0 13.55 103.13 -65.28 -159.96 -131.93 -32.67 177.98 
DOCKED: USER  keepresnum = 1 
DOCKED: USER  
DOCKED: REMARK  Name = 
DOCKED: REMARK  11 active torsions:
DOCKED: REMARK  status: ('A' for Active; 'I' for Inactive)
DOCKED: REMARK    1  A    between atoms: C_1  and  N_2
DOCKED: REMARK    2  A    between atoms: N_2  and  C_3
DOCKED: REMARK    3  A    between atoms: N_2  and  C_22
DOCKED: REMARK    4  A    between atoms: C_6  and  C_9
DOCKED: REMARK    5  A    between atoms: C_9  and  C_10
DOCKED: REMARK    6  A    between atoms: C_10  and  C_11
DOCKED: REMARK    7  A    between atoms: C_10  and  C_20
DOCKED: REMARK    8  A    between atoms: C_12  and  C_13
DOCKED: REMARK    9  A    between atoms: C_12  and  C_19
DOCKED: REMARK   10  A    between atoms: C_14  and  C_15
DOCKED: REMARK   11  A    between atoms: N_16  and  O_17
DOCKED: REMARK                            x       y       z     vdW  Elec       q    Type
DOCKED: REMARK                         _______ _______ _______ _____ _____    ______ ____
DOCKED: USER                              x       y       z     vdW  Elec       q    Type
DOCKED: USER                           _______ _______ _______ _____ _____    ______ ____
DOCKED: ROOT
DOCKED: ATOM      1  C   UNL     1      37.581  15.294 122.022 -0.32 -0.00    +0.000 C 
DOCKED: ATOM      2  C   UNL     1      39.074  15.595 122.181 -0.33 -0.00    +0.000 C 
DOCKED: ENDROOT
DOCKED: BRANCH   1   3
DOCKED: ATOM      3  C   UNL     1      37.332  13.801 122.086 -0.47 -0.00    +0.000 C 
DOCKED: ATOM      4  C   UNL     1      36.449  13.209 122.917 -0.56 -0.00    +0.000 C 
DOCKED: ATOM      5  C   UNL     1      35.618  14.009 123.897 -0.54 -0.00    +0.000 C 
DOCKED: BRANCH   4   6
DOCKED: ATOM      6  C   UNL     1      36.358  11.726 122.892 -0.68 -0.00    +0.000 C 
DOCKED: ATOM      7  C   UNL     1      37.063  10.962 122.044 -0.55 -0.00    +0.000 C 
DOCKED: BRANCH   7   8
DOCKED: ATOM      8  C   UNL     1      36.975   9.488 122.014 -0.64 -0.00    +0.000 C 
DOCKED: ATOM      9  N   UNL     1      37.039   8.690 123.203 -0.68 -0.00    +0.000 N 
DOCKED: ATOM     10  O   UNL     1      36.815   8.919 120.900 -2.65 -0.00    +0.000 OA
DOCKED: ATOM     11  H   UNL     1      37.061   9.126 124.085 -0.54 -0.00    +0.000 HD
DOCKED: BRANCH   9  12
DOCKED: ATOM     12  O   UNL     1      37.068   7.339 123.116 -2.15 -0.00    +0.000 OA
DOCKED: ATOM     13  H   UNL     1      37.255   7.077 122.200 -0.16 -0.00    +0.000 HD
DOCKED: ENDBRANCH   9  12
DOCKED: ENDBRANCH   7   8
DOCKED: ENDBRANCH   4   6
DOCKED: ENDBRANCH   1   3
DOCKED: BRANCH   1  14
DOCKED: ATOM     14  C   UNL     1      37.088  15.858 120.706 -0.22 -0.00    +0.000 C 
DOCKED: ATOM     15  O   UNL     1      36.418  16.928 120.717 -0.20 -0.00    +0.000 OA
DOCKED: BRANCH  14  19
DOCKED: ATOM     16  C   UNL     1      37.818  13.863 116.938 -0.33 -0.00    +0.000 A 
DOCKED: ATOM     17  C   UNL     1      36.920  13.332 117.886 -0.35 -0.00    +0.000 A 
DOCKED: ATOM     18  C   UNL     1      36.693  13.982 119.101 -0.30 -0.00    +0.000 A 
DOCKED: ATOM     19  C   UNL     1      37.350  15.185 119.406 -0.21 -0.00    +0.000 A 
DOCKED: ATOM     20  C   UNL     1      38.254  15.715 118.470 -0.14 -0.00    +0.000 A 
DOCKED: ATOM     21  C   UNL     1      38.483  15.064 117.254 -0.18 -0.00    +0.000 A 
DOCKED: ATOM     22  CM  UNL     1      37.586  14.523 118.177 +0.00 -0.00    +0.000 AC
DOCKED: BRANCH  16  23
DOCKED: ATOM     23  C   UNL     1      39.217  12.307 115.506 -0.51 -0.00    +0.000 C 
DOCKED: ATOM     24  N   UNL     1      38.055  13.188 115.675 -0.46 -0.00    +0.000 N 
DOCKED: ATOM     25  C   UNL     1      37.139  13.378 114.544 -0.39 -0.00    +0.000 C 
DOCKED: ENDBRANCH  16  23
DOCKED: ENDBRANCH  14  19
DOCKED: ENDBRANCH   1  14
DOCKED: TORSDOF 7DOCKED: TER
DOCKED: ENDMDL
________________________________________________________________________________


	BEGINNING GENETIC ALGORITHM DOCKING 25 of 100
Run: 25 Seed: 2123153023 1238546929 [ Run 25 of 100 GA/GALS ]
Beginning LAMARCKIAN GENETIC ALGORITHM (LGA), with a maximum of 2500000 energy evaluations.

Final-Value: -14.460


	FINAL GENETIC ALGORITHM DOCKED STATE
	_______________________________________________


Detailed state:  trans 35.953 14.376 121.013 quatxyzw 0.301013 0.039489 0.686713 0.660498 center 1.179 0.138 -0.353 ntor 7 18.0392 -10.7326 1.0963 -90.9889 74.0104 132.5075 -80.4897
State:	 35.953  14.376 121.013   0.401  0.053  0.915 97.324     18.04  -10.73    1.10  -90.99   74.01  132.51  -80.49

DOCKED: MODEL       25
DOCKED: USER    Run = 25
DOCKED: USER    DPF = ligand_dock.biased.dpf
DOCKED: USER  
DOCKED: USER    Estimated Free Energy of Binding    =  -10.64 kcal/mol  [=(1)+(2)+(3)-(4)]
DOCKED: USER    Estimated Inhibition Constant, Ki   =   15.75 nM (nanomolar)  [Temperature = 298.15 K]
DOCKED: USER    
DOCKED: USER    (1) Final Intermolecular Energy     =  -12.73 kcal/mol
DOCKED: USER        vdW + Hbond + desolv Energy     =  -12.73 kcal/mol
DOCKED: USER        Electrostatic Energy            =   +0.00 kcal/mol
DOCKED: USER    (2) Final Total Internal Energy     =   -1.73 kcal/mol
DOCKED: USER    (3) Torsional Free Energy           =   +2.09 kcal/mol
DOCKED: USER    (4) Unbound System's Energy  [=(2)] =   -1.73 kcal/mol
DOCKED: USER    
DOCKED: USER    
DOCKED: USER    NEWDPF move ligand.dum.pdbqt
DOCKED: USER    NEWDPF about 1.179000 0.138000 -0.353000
DOCKED: USER    NEWDPF tran0 35.953470 14.376094 121.013338
DOCKED: USER    NEWDPF quaternion0 0.301013 0.039489 0.686713 0.660498
DOCKED: USER    NEWDPF axisangle0 0.400908 0.052594 0.914607 97.324275
DOCKED: USER    NEWDPF quat0 0.400908 0.052594 0.914607 97.324275
DOCKED: USER    NEWDPF dihe0 18.04 -10.73 1.10 -90.99 74.01 132.51 -80.49 
DOCKED: USER  keepresnum = 1 
DOCKED: USER  
DOCKED: REMARK  Name = 
DOCKED: REMARK  11 active torsions:
DOCKED: REMARK  status: ('A' for Active; 'I' for Inactive)
DOCKED: REMARK    1  A    between atoms: C_1  and  N_2
DOCKED: REMARK    2  A    between atoms: N_2  and  C_3
DOCKED: REMARK    3  A    between atoms: N_2  and  C_22
DOCKED: REMARK    4  A    between atoms: C_6  and  C_9
DOCKED: REMARK    5  A    between atoms: C_9  and  C_10
DOCKED: REMARK    6  A    between atoms: C_10  and  C_11
DOCKED: REMARK    7  A    between atoms: C_10  and  C_20
DOCKED: REMARK    8  A    between atoms: C_12  and  C_13
DOCKED: REMARK    9  A    between atoms: C_12  and  C_19
DOCKED: REMARK   10  A    between atoms: C_14  and  C_15
DOCKED: REMARK   11  A    between atoms: N_16  and  O_17
DOCKED: REMARK                            x       y       z     vdW  Elec       q    Type
DOCKED: REMARK                         _______ _______ _______ _____ _____    ______ ____
DOCKED: USER                              x       y       z     vdW  Elec       q    Type
DOCKED: USER                           _______ _______ _______ _____ _____    ______ ____
DOCKED: ROOT
DOCKED: ATOM      1  C   UNL     1      36.157  15.513 122.547 -0.29 -0.00    +0.000 C 
DOCKED: ATOM      2  C   UNL     1      36.523  16.242 123.843 -0.34 -0.00    +0.000 C 
DOCKED: ENDROOT
DOCKED: BRANCH   1   3
DOCKED: ATOM      3  C   UNL     1      36.292  14.015 122.726 -0.41 -0.00    +0.000 C 
DOCKED: ATOM      4  C   UNL     1      37.463  13.369 122.904 -0.56 -0.00    +0.000 C 
DOCKED: ATOM      5  C   UNL     1      38.784  14.107 122.924 -0.36 -0.00    +0.000 C 
DOCKED: BRANCH   4   6
DOCKED: ATOM      6  C   UNL     1      37.429  11.887 123.017 -0.48 -0.00    +0.000 C 
DOCKED: ATOM      7  C   UNL     1      37.066  11.083 122.007 -0.55 -0.00    +0.000 C 
DOCKED: BRANCH   7   8
DOCKED: ATOM      8  C   UNL     1      37.030   9.610 122.113 -0.61 -0.00    +0.000 C 
DOCKED: ATOM      9  N   UNL     1      36.987   8.931 123.375 -0.61 -0.00    +0.000 N 
DOCKED: ATOM     10  O   UNL     1      37.013   8.932 121.050 -2.70 -0.00    +0.000 OA
DOCKED: ATOM     11  H   UNL     1      36.896   9.450 124.207 -0.53 -0.00    +0.000 HD
DOCKED: BRANCH   9  12
DOCKED: ATOM     12  O   UNL     1      37.069   7.581 123.425 -2.23 -0.00    +0.000 OA
DOCKED: ATOM     13  H   UNL     1      37.432   7.247 122.590 -0.20 -0.00    +0.000 HD
DOCKED: ENDBRANCH   9  12
DOCKED: ENDBRANCH   7   8
DOCKED: ENDBRANCH   4   6
DOCKED: ENDBRANCH   1   3
DOCKED: BRANCH   1  14
DOCKED: ATOM     14  C   UNL     1      37.052  15.995 121.425 -0.23 -0.00    +0.000 C 
DOCKED: ATOM     15  O   UNL     1      37.901  16.896 121.670 -0.15 -0.00    +0.000 OA
DOCKED: BRANCH  14  19
DOCKED: ATOM     16  C   UNL     1      36.786  14.393 117.416 -0.30 -0.00    +0.000 A 
DOCKED: ATOM     17  C   UNL     1      37.524  13.734 118.421 -0.33 -0.00    +0.000 A 
DOCKED: ATOM     18  C   UNL     1      37.607  14.261 119.712 -0.30 -0.00    +0.000 A 
DOCKED: ATOM     19  C   UNL     1      36.951  15.458 120.042 -0.18 -0.00    +0.000 A 
DOCKED: ATOM     20  C   UNL     1      36.221  16.125 119.043 -0.13 -0.00    +0.000 A 
DOCKED: ATOM     21  C   UNL     1      36.139  15.600 117.750 -0.18 -0.00    +0.000 A 
DOCKED: ATOM     22  CM  UNL     1      36.872  14.929 118.731 +0.00 -0.00    +0.000 AC
DOCKED: BRANCH  16  23
DOCKED: ATOM     23  C   UNL     1      35.500  14.063 115.256 -0.29 -0.00    +0.000 C 
DOCKED: ATOM     24  N   UNL     1      36.700  13.847 116.074 -0.33 -0.00    +0.000 N 
DOCKED: ATOM     25  C   UNL     1      37.809  13.067 115.512 -0.45 -0.00    +0.000 C 
DOCKED: ENDBRANCH  16  23
DOCKED: ENDBRANCH  14  19
DOCKED: ENDBRANCH   1  14
DOCKED: TORSDOF 7DOCKED: TER
DOCKED: ENDMDL
________________________________________________________________________________


	BEGINNING GENETIC ALGORITHM DOCKING 26 of 100
Run: 26 Seed: 1896734001 1172007685 [ Run 26 of 100 GA/GALS ]
Beginning LAMARCKIAN GENETIC ALGORITHM (LGA), with a maximum of 2500000 energy evaluations.

Final-Value: -15.046


	FINAL GENETIC ALGORITHM DOCKED STATE
	_______________________________________________


Detailed state:  trans 36.091 14.627 122.488 quatxyzw -0.643710 0.484182 -0.418243 -0.419855 center 1.179 0.138 -0.353 ntor 7 18.2325 161.1277 -63.9548 178.1968 -7.3048 -1.7459 170.5928
State:	 36.091  14.627 122.488  -0.709  0.533 -0.461 -130.349     18.23  161.13  -63.95  178.20   -7.30   -1.75  170.59

DOCKED: MODEL       26
DOCKED: USER    Run = 26
DOCKED: USER    DPF = ligand_dock.biased.dpf
DOCKED: USER  
DOCKED: USER    Estimated Free Energy of Binding    =  -11.30 kcal/mol  [=(1)+(2)+(3)-(4)]
DOCKED: USER    Estimated Inhibition Constant, Ki   =    5.22 nM (nanomolar)  [Temperature = 298.15 K]
DOCKED: USER    
DOCKED: USER    (1) Final Intermolecular Energy     =  -13.39 kcal/mol
DOCKED: USER        vdW + Hbond + desolv Energy     =  -13.39 kcal/mol
DOCKED: USER        Electrostatic Energy            =   +0.00 kcal/mol
DOCKED: USER    (2) Final Total Internal Energy     =   -1.66 kcal/mol
DOCKED: USER    (3) Torsional Free Energy           =   +2.09 kcal/mol
DOCKED: USER    (4) Unbound System's Energy  [=(2)] =   -1.66 kcal/mol
DOCKED: USER    
DOCKED: USER    
DOCKED: USER    NEWDPF move ligand.dum.pdbqt
DOCKED: USER    NEWDPF about 1.179000 0.138000 -0.353000
DOCKED: USER    NEWDPF tran0 36.091471 14.627012 122.487962
DOCKED: USER    NEWDPF quaternion0 -0.643710 0.484182 -0.418243 -0.419855
DOCKED: USER    NEWDPF axisangle0 -0.709251 0.533481 -0.460827 -130.349186
DOCKED: USER    NEWDPF quat0 -0.709251 0.533481 -0.460827 -130.349186
DOCKED: USER    NEWDPF dihe0 18.23 161.13 -63.95 178.20 -7.30 -1.75 170.59 
DOCKED: USER  keepresnum = 1 
DOCKED: USER  
DOCKED: REMARK  Name = 
DOCKED: REMARK  11 active torsions:
DOCKED: REMARK  status: ('A' for Active; 'I' for Inactive)
DOCKED: REMARK    1  A    between atoms: C_1  and  N_2
DOCKED: REMARK    2  A    between atoms: N_2  and  C_3
DOCKED: REMARK    3  A    between atoms: N_2  and  C_22
DOCKED: REMARK    4  A    between atoms: C_6  and  C_9
DOCKED: REMARK    5  A    between atoms: C_9  and  C_10
DOCKED: REMARK    6  A    between atoms: C_10  and  C_11
DOCKED: REMARK    7  A    between atoms: C_10  and  C_20
DOCKED: REMARK    8  A    between atoms: C_12  and  C_13
DOCKED: REMARK    9  A    between atoms: C_12  and  C_19
DOCKED: REMARK   10  A    between atoms: C_14  and  C_15
DOCKED: REMARK   11  A    between atoms: N_16  and  O_17
DOCKED: REMARK                            x       y       z     vdW  Elec       q    Type
DOCKED: REMARK                         _______ _______ _______ _____ _____    ______ ____
DOCKED: USER                              x       y       z     vdW  Elec       q    Type
DOCKED: USER                           _______ _______ _______ _____ _____    ______ ____
DOCKED: ROOT
DOCKED: ATOM      1  C   UNL     1      37.908  15.233 122.356 -0.36 -0.00    +0.000 C 
DOCKED: ATOM      2  C   UNL     1      39.393  15.495 122.087 -0.34 -0.00    +0.000 C 
DOCKED: ENDROOT
DOCKED: BRANCH   1   3
DOCKED: ATOM      3  C   UNL     1      37.641  13.745 122.450 -0.50 -0.00    +0.000 C 
DOCKED: ATOM      4  C   UNL     1      36.583  13.198 123.082 -0.60 -0.00    +0.000 C 
DOCKED: ATOM      5  C   UNL     1      35.548  14.049 123.787 -0.54 -0.00    +0.000 C 
DOCKED: BRANCH   4   6
DOCKED: ATOM      6  C   UNL     1      36.490  11.715 123.125 -0.69 -0.00    +0.000 C 
DOCKED: ATOM      7  C   UNL     1      37.069  10.917 122.215 -0.55 -0.00    +0.000 C 
DOCKED: BRANCH   7   8
DOCKED: ATOM      8  C   UNL     1      36.979   9.443 122.252 -0.64 -0.00    +0.000 C 
DOCKED: ATOM      9  N   UNL     1      37.184   8.691 123.455 -0.61 -0.00    +0.000 N 
DOCKED: ATOM     10  O   UNL     1      36.689   8.833 121.188 -2.61 -0.00    +0.000 OA
DOCKED: ATOM     11  H   UNL     1      37.309   9.161 124.312 -0.59 -0.00    +0.000 HD
DOCKED: BRANCH   9  12
DOCKED: ATOM     12  O   UNL     1      37.203   7.338 123.418 -2.05 -0.00    +0.000 OA
DOCKED: ATOM     13  H   UNL     1      37.354   7.041 122.507 -0.21 -0.00    +0.000 HD
DOCKED: ENDBRANCH   9  12
DOCKED: ENDBRANCH   7   8
DOCKED: ENDBRANCH   4   6
DOCKED: ENDBRANCH   1   3
DOCKED: BRANCH   1  14
DOCKED: ATOM     14  C   UNL     1      37.076  15.854 121.254 -0.23 -0.00    +0.000 C 
DOCKED: ATOM     15  O   UNL     1      36.361  16.858 121.525 -0.22 -0.00    +0.000 OA
DOCKED: BRANCH  14  19
DOCKED: ATOM     16  C   UNL     1      37.007  14.313 117.213 -0.30 -0.00    +0.000 A 
DOCKED: ATOM     17  C   UNL     1      36.520  15.602 117.514 -0.17 -0.00    +0.000 A 
DOCKED: ATOM     18  C   UNL     1      36.544  16.089 118.823 -0.15 -0.00    +0.000 A 
DOCKED: ATOM     19  C   UNL     1      37.060  15.310 119.871 -0.20 -0.00    +0.000 A 
DOCKED: ATOM     20  C   UNL     1      37.538  14.021 119.579 -0.32 -0.00    +0.000 A 
DOCKED: ATOM     21  C   UNL     1      37.513  13.530 118.270 -0.34 -0.00    +0.000 A 
DOCKED: ATOM     22  CM  UNL     1      37.030  14.811 118.545 +0.00 -0.00    +0.000 AC
DOCKED: BRANCH  16  23
DOCKED: ATOM     23  C   UNL     1      35.837  14.076 114.976 -0.29 -0.00    +0.000 C 
DOCKED: ATOM     24  N   UNL     1      36.983  13.805 115.853 -0.34 -0.00    +0.000 N 
DOCKED: ATOM     25  C   UNL     1      38.102  13.010 115.333 -0.51 -0.00    +0.000 C 
DOCKED: ENDBRANCH  16  23
DOCKED: ENDBRANCH  14  19
DOCKED: ENDBRANCH   1  14
DOCKED: TORSDOF 7DOCKED: TER
DOCKED: ENDMDL
________________________________________________________________________________


	BEGINNING GENETIC ALGORITHM DOCKING 27 of 100
Run: 27 Seed: 926773753 417779245 [ Run 27 of 100 GA/GALS ]
Beginning LAMARCKIAN GENETIC ALGORITHM (LGA), with a maximum of 2500000 energy evaluations.

Final-Value: -15.342


	FINAL GENETIC ALGORITHM DOCKED STATE
	_______________________________________________


Detailed state:  trans 35.827 14.509 121.559 quatxyzw 0.656551 -0.374439 0.470617 0.455253 center 1.179 0.138 -0.353 ntor 7 7.9322 125.4467 -17.2760 166.6790 -121.1619 -35.7512 166.8979
State:	 35.827  14.509 121.559   0.737 -0.421  0.529 125.838      7.93  125.45  -17.28  166.68 -121.16  -35.75  166.90

DOCKED: MODEL       27
DOCKED: USER    Run = 27
DOCKED: USER    DPF = ligand_dock.biased.dpf
DOCKED: USER  
DOCKED: USER    Estimated Free Energy of Binding    =  -11.39 kcal/mol  [=(1)+(2)+(3)-(4)]
DOCKED: USER    Estimated Inhibition Constant, Ki   =    4.50 nM (nanomolar)  [Temperature = 298.15 K]
DOCKED: USER    
DOCKED: USER    (1) Final Intermolecular Energy     =  -13.47 kcal/mol
DOCKED: USER        vdW + Hbond + desolv Energy     =  -13.47 kcal/mol
DOCKED: USER        Electrostatic Energy            =   +0.00 kcal/mol
DOCKED: USER    (2) Final Total Internal Energy     =   -1.87 kcal/mol
DOCKED: USER    (3) Torsional Free Energy           =   +2.09 kcal/mol
DOCKED: USER    (4) Unbound System's Energy  [=(2)] =   -1.87 kcal/mol
DOCKED: USER    
DOCKED: USER    
DOCKED: USER    NEWDPF move ligand.dum.pdbqt
DOCKED: USER    NEWDPF about 1.179000 0.138000 -0.353000
DOCKED: USER    NEWDPF tran0 35.827023 14.508757 121.559456
DOCKED: USER    NEWDPF quaternion0 0.656551 -0.374439 0.470617 0.455253
DOCKED: USER    NEWDPF axisangle0 0.737398 -0.420547 0.528568 125.837508
DOCKED: USER    NEWDPF quat0 0.737398 -0.420547 0.528568 125.837508
DOCKED: USER    NEWDPF dihe0 7.93 125.45 -17.28 166.68 -121.16 -35.75 166.90 
DOCKED: USER  keepresnum = 1 
DOCKED: USER  
DOCKED: REMARK  Name = 
DOCKED: REMARK  11 active torsions:
DOCKED: REMARK  status: ('A' for Active; 'I' for Inactive)
DOCKED: REMARK    1  A    between atoms: C_1  and  N_2
DOCKED: REMARK    2  A    between atoms: N_2  and  C_3
DOCKED: REMARK    3  A    between atoms: N_2  and  C_22
DOCKED: REMARK    4  A    between atoms: C_6  and  C_9
DOCKED: REMARK    5  A    between atoms: C_9  and  C_10
DOCKED: REMARK    6  A    between atoms: C_10  and  C_11
DOCKED: REMARK    7  A    between atoms: C_10  and  C_20
DOCKED: REMARK    8  A    between atoms: C_12  and  C_13
DOCKED: REMARK    9  A    between atoms: C_12  and  C_19
DOCKED: REMARK   10  A    between atoms: C_14  and  C_15
DOCKED: REMARK   11  A    between atoms: N_16  and  O_17
DOCKED: REMARK                            x       y       z     vdW  Elec       q    Type
DOCKED: REMARK                         _______ _______ _______ _____ _____    ______ ____
DOCKED: USER                              x       y       z     vdW  Elec       q    Type
DOCKED: USER                           _______ _______ _______ _____ _____    ______ ____
DOCKED: ROOT
DOCKED: ATOM      1  C   UNL     1      37.542  15.362 121.674 -0.29 -0.00    +0.000 C 
DOCKED: ATOM      2  C   UNL     1      39.006  15.814 121.638 -0.26 -0.00    +0.000 C 
DOCKED: ENDROOT
DOCKED: BRANCH   1   3
DOCKED: ATOM      3  C   UNL     1      37.456  13.867 121.897 -0.45 -0.00    +0.000 C 
DOCKED: ATOM      4  C   UNL     1      36.777  13.283 122.906 -0.57 -0.00    +0.000 C 
DOCKED: ATOM      5  C   UNL     1      36.034  14.098 123.943 -0.52 -0.00    +0.000 C 
DOCKED: BRANCH   4   6
DOCKED: ATOM      6  C   UNL     1      36.829  11.801 123.014 -0.67 -0.00    +0.000 C 
DOCKED: ATOM      7  C   UNL     1      36.847  10.989 121.947 -0.59 -0.00    +0.000 C 
DOCKED: BRANCH   7   8
DOCKED: ATOM      8  C   UNL     1      36.898   9.516 122.048 -0.65 -0.00    +0.000 C 
DOCKED: ATOM      9  N   UNL     1      36.918   8.832 123.308 -0.64 -0.00    +0.000 N 
DOCKED: ATOM     10  O   UNL     1      36.901   8.842 120.983 -2.67 -0.00    +0.000 OA
DOCKED: ATOM     11  H   UNL     1      36.813   9.342 124.143 -0.50 -0.00    +0.000 HD
DOCKED: BRANCH   9  12
DOCKED: ATOM     12  O   UNL     1      37.079   7.489 123.351 -2.19 -0.00    +0.000 OA
DOCKED: ATOM     13  H   UNL     1      37.292   7.159 122.464 -0.16 -0.00    +0.000 HD
DOCKED: ENDBRANCH   9  12
DOCKED: ENDBRANCH   7   8
DOCKED: ENDBRANCH   4   6
DOCKED: ENDBRANCH   1   3
DOCKED: BRANCH   1  14
DOCKED: ATOM     14  C   UNL     1      36.861  15.746 120.378 -0.20 -0.00    +0.000 C 
DOCKED: ATOM     15  O   UNL     1      35.936  16.604 120.409 -0.22 -0.00    +0.000 OA
DOCKED: BRANCH  14  19
DOCKED: ATOM     16  C   UNL     1      37.916  13.927 116.599 -0.33 -0.00    +0.000 A 
DOCKED: ATOM     17  C   UNL     1      37.044  13.285 117.502 -0.33 -0.00    +0.000 A 
DOCKED: ATOM     18  C   UNL     1      36.712  13.880 118.722 -0.35 -0.00    +0.000 A 
DOCKED: ATOM     19  C   UNL     1      37.233  15.135 119.075 -0.21 -0.00    +0.000 A 
DOCKED: ATOM     20  C   UNL     1      38.110  15.775 118.183 -0.14 -0.00    +0.000 A 
DOCKED: ATOM     21  C   UNL     1      38.445  15.181 116.963 -0.18 -0.00    +0.000 A 
DOCKED: ATOM     22  CM  UNL     1      37.577  14.530 117.841 +0.00 -0.00    +0.000 AC
DOCKED: BRANCH  16  23
DOCKED: ATOM     23  C   UNL     1      39.204  12.185 115.281 -0.53 -0.00    +0.000 C 
DOCKED: ATOM     24  N   UNL     1      38.262  13.310 115.331 -0.47 -0.00    +0.000 N 
DOCKED: ATOM     25  C   UNL     1      37.679  13.802 114.077 -0.34 -0.00    +0.000 C 
DOCKED: ENDBRANCH  16  23
DOCKED: ENDBRANCH  14  19
DOCKED: ENDBRANCH   1  14
DOCKED: TORSDOF 7DOCKED: TER
DOCKED: ENDMDL
________________________________________________________________________________


	BEGINNING GENETIC ALGORITHM DOCKING 28 of 100
Run: 28 Seed: 2131068332 1846056308 [ Run 28 of 100 GA/GALS ]
Beginning LAMARCKIAN GENETIC ALGORITHM (LGA), with a maximum of 2500000 energy evaluations.

Final-Value: -14.287


	FINAL GENETIC ALGORITHM DOCKED STATE
	_______________________________________________


Detailed state:  trans 36.605 14.748 122.485 quatxyzw -0.131422 0.277908 0.659638 0.685837 center 1.179 0.138 -0.353 ntor 7 12.1722 -180.0000 -1.4468 -30.2155 -117.0754 18.8828 38.8512
State:	 36.605  14.748 122.485  -0.181  0.382  0.906 93.397     12.17 -180.00   -1.45  -30.22 -117.08   18.88   38.85

DOCKED: MODEL       28
DOCKED: USER    Run = 28
DOCKED: USER    DPF = ligand_dock.biased.dpf
DOCKED: USER  
DOCKED: USER    Estimated Free Energy of Binding    =  -10.75 kcal/mol  [=(1)+(2)+(3)-(4)]
DOCKED: USER    Estimated Inhibition Constant, Ki   =   13.20 nM (nanomolar)  [Temperature = 298.15 K]
DOCKED: USER    
DOCKED: USER    (1) Final Intermolecular Energy     =  -12.84 kcal/mol
DOCKED: USER        vdW + Hbond + desolv Energy     =  -12.84 kcal/mol
DOCKED: USER        Electrostatic Energy            =   +0.00 kcal/mol
DOCKED: USER    (2) Final Total Internal Energy     =   -1.45 kcal/mol
DOCKED: USER    (3) Torsional Free Energy           =   +2.09 kcal/mol
DOCKED: USER    (4) Unbound System's Energy  [=(2)] =   -1.45 kcal/mol
DOCKED: USER    
DOCKED: USER    
DOCKED: USER    NEWDPF move ligand.dum.pdbqt
DOCKED: USER    NEWDPF about 1.179000 0.138000 -0.353000
DOCKED: USER    NEWDPF tran0 36.605129 14.747638 122.485305
DOCKED: USER    NEWDPF quaternion0 -0.131422 0.277908 0.659638 0.685837
DOCKED: USER    NEWDPF axisangle0 -0.180586 0.381870 0.906402 93.397008
DOCKED: USER    NEWDPF quat0 -0.180586 0.381870 0.906402 93.397008
DOCKED: USER    NEWDPF dihe0 12.17 -180.00 -1.45 -30.22 -117.08 18.88 38.85 
DOCKED: USER  keepresnum = 1 
DOCKED: USER  
DOCKED: REMARK  Name = 
DOCKED: REMARK  11 active torsions:
DOCKED: REMARK  status: ('A' for Active; 'I' for Inactive)
DOCKED: REMARK    1  A    between atoms: C_1  and  N_2
DOCKED: REMARK    2  A    between atoms: N_2  and  C_3
DOCKED: REMARK    3  A    between atoms: N_2  and  C_22
DOCKED: REMARK    4  A    between atoms: C_6  and  C_9
DOCKED: REMARK    5  A    between atoms: C_9  and  C_10
DOCKED: REMARK    6  A    between atoms: C_10  and  C_11
DOCKED: REMARK    7  A    between atoms: C_10  and  C_20
DOCKED: REMARK    8  A    between atoms: C_12  and  C_13
DOCKED: REMARK    9  A    between atoms: C_12  and  C_19
DOCKED: REMARK   10  A    between atoms: C_14  and  C_15
DOCKED: REMARK   11  A    between atoms: N_16  and  O_17
DOCKED: REMARK                            x       y       z     vdW  Elec       q    Type
DOCKED: REMARK                         _______ _______ _______ _____ _____    ______ ____
DOCKED: USER                              x       y       z     vdW  Elec       q    Type
DOCKED: USER                           _______ _______ _______ _____ _____    ______ ____
DOCKED: ROOT
DOCKED: ATOM      1  C   UNL     1      35.195  15.317 123.657 -0.53 -0.00    +0.000 C 
DOCKED: ATOM      2  C   UNL     1      34.190  15.602 124.777 -0.55 -0.00    +0.000 C 
DOCKED: ENDROOT
DOCKED: BRANCH   1   3
DOCKED: ATOM      3  C   UNL     1      35.635  13.869 123.696 -0.53 -0.00    +0.000 C 
DOCKED: ATOM      4  C   UNL     1      36.490  13.306 122.818 -0.54 -0.00    +0.000 C 
DOCKED: ATOM      5  C   UNL     1      37.089  14.094 121.673 -0.38 -0.00    +0.000 C 
DOCKED: BRANCH   4   6
DOCKED: ATOM      6  C   UNL     1      36.785  11.856 122.965 -0.67 -0.00    +0.000 C 
DOCKED: ATOM      7  C   UNL     1      36.650  10.976 121.963 -0.62 -0.00    +0.000 C 
DOCKED: BRANCH   7   8
DOCKED: ATOM      8  C   UNL     1      36.940   9.534 122.103 -0.64 -0.00    +0.000 C 
DOCKED: ATOM      9  N   UNL     1      37.053   8.894 123.381 -0.62 -0.00    +0.000 N 
DOCKED: ATOM     10  O   UNL     1      37.068   8.843 121.056 -2.70 -0.00    +0.000 OA
DOCKED: ATOM     11  H   UNL     1      36.854   9.400 124.202 -0.52 -0.00    +0.000 HD
DOCKED: BRANCH   9  12
DOCKED: ATOM     12  O   UNL     1      37.431   7.596 123.461 -2.12 -0.00    +0.000 OA
DOCKED: ATOM     13  H   UNL     1      37.770   7.304 122.601 -0.31 -0.00    +0.000 HD
DOCKED: ENDBRANCH   9  12
DOCKED: ENDBRANCH   7   8
DOCKED: ENDBRANCH   4   6
DOCKED: ENDBRANCH   1   3
DOCKED: BRANCH   1  14
DOCKED: ATOM     14  C   UNL     1      36.388  16.239 123.799 -0.36 -0.00    +0.000 C 
DOCKED: ATOM     15  O   UNL     1      37.525  15.732 124.008 -0.26 -0.00    +0.000 OA
DOCKED: BRANCH  14  19
DOCKED: ATOM     16  C   UNL     1      36.008  20.543 123.618 -0.13 -0.00    +0.000 A 
DOCKED: ATOM     17  C   UNL     1      35.807  19.841 124.824 -0.16 -0.00    +0.000 A 
DOCKED: ATOM     18  C   UNL     1      35.929  18.450 124.871 -0.21 -0.00    +0.000 A 
DOCKED: ATOM     19  C   UNL     1      36.262  17.718 123.720 -0.23 -0.00    +0.000 A 
DOCKED: ATOM     20  C   UNL     1      36.454  18.411 122.513 -0.17 -0.00    +0.000 A 
DOCKED: ATOM     21  C   UNL     1      36.331  19.803 122.463 -0.15 -0.00    +0.000 A 
DOCKED: ATOM     22  CM  UNL     1      36.131  19.128 123.668 -0.01 -0.00    +0.000 AC
DOCKED: BRANCH  16  23
DOCKED: ATOM     23  C   UNL     1      35.129  22.709 124.601 -0.18 -0.00    +0.000 C 
DOCKED: ATOM     24  N   UNL     1      35.882  21.989 123.567 -0.16 -0.00    +0.000 N 
DOCKED: ATOM     25  C   UNL     1      36.502  22.755 122.479 -0.09 -0.00    +0.000 C 
DOCKED: ENDBRANCH  16  23
DOCKED: ENDBRANCH  14  19
DOCKED: ENDBRANCH   1  14
DOCKED: TORSDOF 7DOCKED: TER
DOCKED: ENDMDL
________________________________________________________________________________


	BEGINNING GENETIC ALGORITHM DOCKING 29 of 100
Run: 29 Seed: 784656664 1621936045 [ Run 29 of 100 GA/GALS ]
Beginning LAMARCKIAN GENETIC ALGORITHM (LGA), with a maximum of 2500000 energy evaluations.

Final-Value: -15.206


	FINAL GENETIC ALGORITHM DOCKED STATE
	_______________________________________________


Detailed state:  trans 36.205 14.724 121.994 quatxyzw -0.581034 0.451900 -0.498840 -0.457543 center 1.179 0.138 -0.353 ntor 7 1.7899 88.9729 -81.7676 -163.4705 52.4065 -14.0020 -179.4497
State:	 36.205  14.724 121.994  -0.653  0.508 -0.561 -125.543      1.79   88.97  -81.77 -163.47   52.41  -14.00 -179.45

DOCKED: MODEL       29
DOCKED: USER    Run = 29
DOCKED: USER    DPF = ligand_dock.biased.dpf
DOCKED: USER  
DOCKED: USER    Estimated Free Energy of Binding    =  -11.17 kcal/mol  [=(1)+(2)+(3)-(4)]
DOCKED: USER    Estimated Inhibition Constant, Ki   =    6.50 nM (nanomolar)  [Temperature = 298.15 K]
DOCKED: USER    
DOCKED: USER    (1) Final Intermolecular Energy     =  -13.26 kcal/mol
DOCKED: USER        vdW + Hbond + desolv Energy     =  -13.26 kcal/mol
DOCKED: USER        Electrostatic Energy            =   +0.00 kcal/mol
DOCKED: USER    (2) Final Total Internal Energy     =   -1.95 kcal/mol
DOCKED: USER    (3) Torsional Free Energy           =   +2.09 kcal/mol
DOCKED: USER    (4) Unbound System's Energy  [=(2)] =   -1.95 kcal/mol
DOCKED: USER    
DOCKED: USER    
DOCKED: USER    NEWDPF move ligand.dum.pdbqt
DOCKED: USER    NEWDPF about 1.179000 0.138000 -0.353000
DOCKED: USER    NEWDPF tran0 36.205172 14.724139 121.994379
DOCKED: USER    NEWDPF quaternion0 -0.581034 0.451900 -0.498840 -0.457543
DOCKED: USER    NEWDPF axisangle0 -0.653443 0.508216 -0.561006 -125.542677
DOCKED: USER    NEWDPF quat0 -0.653443 0.508216 -0.561006 -125.542677
DOCKED: USER    NEWDPF dihe0 1.79 88.97 -81.77 -163.47 52.41 -14.00 -179.45 
DOCKED: USER  keepresnum = 1 
DOCKED: USER  
DOCKED: REMARK  Name = 
DOCKED: REMARK  11 active torsions:
DOCKED: REMARK  status: ('A' for Active; 'I' for Inactive)
DOCKED: REMARK    1  A    between atoms: C_1  and  N_2
DOCKED: REMARK    2  A    between atoms: N_2  and  C_3
DOCKED: REMARK    3  A    between atoms: N_2  and  C_22
DOCKED: REMARK    4  A    between atoms: C_6  and  C_9
DOCKED: REMARK    5  A    between atoms: C_9  and  C_10
DOCKED: REMARK    6  A    between atoms: C_10  and  C_11
DOCKED: REMARK    7  A    between atoms: C_10  and  C_20
DOCKED: REMARK    8  A    between atoms: C_12  and  C_13
DOCKED: REMARK    9  A    between atoms: C_12  and  C_19
DOCKED: REMARK   10  A    between atoms: C_14  and  C_15
DOCKED: REMARK   11  A    between atoms: N_16  and  O_17
DOCKED: REMARK                            x       y       z     vdW  Elec       q    Type
DOCKED: REMARK                         _______ _______ _______ _____ _____    ______ ____
DOCKED: USER                              x       y       z     vdW  Elec       q    Type
DOCKED: USER                           _______ _______ _______ _____ _____    ______ ____
DOCKED: ROOT
DOCKED: ATOM      1  C   UNL     1      38.037  15.229 122.264 -0.35 -0.00    +0.000 C 
DOCKED: ATOM      2  C   UNL     1      39.557  15.407 122.326 -0.38 -0.00    +0.000 C 
DOCKED: ENDROOT
DOCKED: BRANCH   1   3
DOCKED: ATOM      3  C   UNL     1      37.674  13.759 122.294 -0.49 -0.00    +0.000 C 
DOCKED: ATOM      4  C   UNL     1      36.575  13.256 122.892 -0.57 -0.00    +0.000 C 
DOCKED: ATOM      5  C   UNL     1      35.589  14.142 123.622 -0.53 -0.00    +0.000 C 
DOCKED: BRANCH   4   6
DOCKED: ATOM      6  C   UNL     1      36.387  11.781 122.873 -0.68 -0.00    +0.000 C 
DOCKED: ATOM      7  C   UNL     1      37.182  10.949 122.184 -0.38 -0.00    +0.000 C 
DOCKED: BRANCH   7   8
DOCKED: ATOM      8  C   UNL     1      36.999   9.483 122.161 -0.63 -0.00    +0.000 C 
DOCKED: ATOM      9  N   UNL     1      37.131   8.674 123.337 -0.65 -0.00    +0.000 N 
DOCKED: ATOM     10  O   UNL     1      36.694   8.935 121.068 -2.62 -0.00    +0.000 OA
DOCKED: ATOM     11  H   UNL     1      37.267   9.102 124.213 -0.59 -0.00    +0.000 HD
DOCKED: BRANCH   9  12
DOCKED: ATOM     12  O   UNL     1      37.065   7.325 123.246 -2.12 -0.00    +0.000 OA
DOCKED: ATOM     13  H   UNL     1      36.957   7.068 122.317 -0.09 -0.00    +0.000 HD
DOCKED: ENDBRANCH   9  12
DOCKED: ENDBRANCH   7   8
DOCKED: ENDBRANCH   4   6
DOCKED: ENDBRANCH   1   3
DOCKED: BRANCH   1  14
DOCKED: ATOM     14  C   UNL     1      37.502  15.883 121.008 -0.22 -0.00    +0.000 C 
DOCKED: ATOM     15  O   UNL     1      36.967  17.023 121.098 -0.16 -0.00    +0.000 OA
DOCKED: BRANCH  14  19
DOCKED: ATOM     16  C   UNL     1      37.733  13.988 117.127 -0.32 -0.00    +0.000 A 
DOCKED: ATOM     17  C   UNL     1      38.597  15.044 117.478 -0.17 -0.00    +0.000 A 
DOCKED: ATOM     18  C   UNL     1      38.513  15.653 118.733 -0.15 -0.00    +0.000 A 
DOCKED: ATOM     19  C   UNL     1      37.569  15.221 119.679 -0.21 -0.00    +0.000 A 
DOCKED: ATOM     20  C   UNL     1      36.698  14.174 119.332 -0.24 -0.00    +0.000 A 
DOCKED: ATOM     21  C   UNL     1      36.780  13.566 118.075 -0.36 -0.00    +0.000 A 
DOCKED: ATOM     22  CM  UNL     1      37.648  14.608 118.404 +0.00 -0.00    +0.000 AC
DOCKED: BRANCH  16  23
DOCKED: ATOM     23  C   UNL     1      36.742  13.522 114.840 -0.34 -0.00    +0.000 C 
DOCKED: ATOM     24  N   UNL     1      37.820  13.355 115.824 -0.43 -0.00    +0.000 N 
DOCKED: ATOM     25  C   UNL     1      38.984  12.535 115.467 -0.58 -0.00    +0.000 C 
DOCKED: ENDBRANCH  16  23
DOCKED: ENDBRANCH  14  19
DOCKED: ENDBRANCH   1  14
DOCKED: TORSDOF 7DOCKED: TER
DOCKED: ENDMDL
________________________________________________________________________________


	BEGINNING GENETIC ALGORITHM DOCKING 30 of 100
Run: 30 Seed: 347645173 824553312 [ Run 30 of 100 GA/GALS ]
Beginning LAMARCKIAN GENETIC ALGORITHM (LGA), with a maximum of 2500000 energy evaluations.

Final-Value: -15.125


	FINAL GENETIC ALGORITHM DOCKED STATE
	_______________________________________________


Detailed state:  trans 36.222 14.613 122.552 quatxyzw 0.627915 -0.480714 0.428743 0.436825 center 1.179 0.138 -0.353 ntor 7 12.6482 164.7813 -55.0567 169.0941 -21.8225 0.9667 175.9639
State:	 36.222  14.613 122.552   0.698 -0.534  0.477 128.197     12.65  164.78  -55.06  169.09  -21.82    0.97  175.96

DOCKED: MODEL       30
DOCKED: USER    Run = 30
DOCKED: USER    DPF = ligand_dock.biased.dpf
DOCKED: USER  
DOCKED: USER    Estimated Free Energy of Binding    =  -11.32 kcal/mol  [=(1)+(2)+(3)-(4)]
DOCKED: USER    Estimated Inhibition Constant, Ki   =    5.02 nM (nanomolar)  [Temperature = 298.15 K]
DOCKED: USER    
DOCKED: USER    (1) Final Intermolecular Energy     =  -13.41 kcal/mol
DOCKED: USER        vdW + Hbond + desolv Energy     =  -13.41 kcal/mol
DOCKED: USER        Electrostatic Energy            =   +0.00 kcal/mol
DOCKED: USER    (2) Final Total Internal Energy     =   -1.71 kcal/mol
DOCKED: USER    (3) Torsional Free Energy           =   +2.09 kcal/mol
DOCKED: USER    (4) Unbound System's Energy  [=(2)] =   -1.71 kcal/mol
DOCKED: USER    
DOCKED: USER    
DOCKED: USER    NEWDPF move ligand.dum.pdbqt
DOCKED: USER    NEWDPF about 1.179000 0.138000 -0.353000
DOCKED: USER    NEWDPF tran0 36.222474 14.613176 122.551888
DOCKED: USER    NEWDPF quaternion0 0.627915 -0.480714 0.428743 0.436825
DOCKED: USER    NEWDPF axisangle0 0.698035 -0.534396 0.476621 128.196992
DOCKED: USER    NEWDPF quat0 0.698035 -0.534396 0.476621 128.196992
DOCKED: USER    NEWDPF dihe0 12.65 164.78 -55.06 169.09 -21.82 0.97 175.96 
DOCKED: USER  keepresnum = 1 
DOCKED: USER  
DOCKED: REMARK  Name = 
DOCKED: REMARK  11 active torsions:
DOCKED: REMARK  status: ('A' for Active; 'I' for Inactive)
DOCKED: REMARK    1  A    between atoms: C_1  and  N_2
DOCKED: REMARK    2  A    between atoms: N_2  and  C_3
DOCKED: REMARK    3  A    between atoms: N_2  and  C_22
DOCKED: REMARK    4  A    between atoms: C_6  and  C_9
DOCKED: REMARK    5  A    between atoms: C_9  and  C_10
DOCKED: REMARK    6  A    between atoms: C_10  and  C_11
DOCKED: REMARK    7  A    between atoms: C_10  and  C_20
DOCKED: REMARK    8  A    between atoms: C_12  and  C_13
DOCKED: REMARK    9  A    between atoms: C_12  and  C_19
DOCKED: REMARK   10  A    between atoms: C_14  and  C_15
DOCKED: REMARK   11  A    between atoms: N_16  and  O_17
DOCKED: REMARK                            x       y       z     vdW  Elec       q    Type
DOCKED: REMARK                         _______ _______ _______ _____ _____    ______ ____
DOCKED: USER                              x       y       z     vdW  Elec       q    Type
DOCKED: USER                           _______ _______ _______ _____ _____    ______ ____
DOCKED: ROOT
DOCKED: ATOM      1  C   UNL     1      38.046  15.211 122.517 -0.37 -0.00    +0.000 C 
DOCKED: ATOM      2  C   UNL     1      39.543  15.470 122.322 -0.37 -0.00    +0.000 C 
DOCKED: ENDROOT
DOCKED: BRANCH   1   3
DOCKED: ATOM      3  C   UNL     1      37.767  13.723 122.565 -0.51 -0.00    +0.000 C 
DOCKED: ATOM      4  C   UNL     1      36.654  13.171 123.089 -0.60 -0.00    +0.000 C 
DOCKED: ATOM      5  C   UNL     1      35.561  14.017 123.708 -0.53 -0.00    +0.000 C 
DOCKED: BRANCH   4   6
DOCKED: ATOM      6  C   UNL     1      36.553  11.688 123.104 -0.69 -0.00    +0.000 C 
DOCKED: ATOM      7  C   UNL     1      37.066  10.910 122.139 -0.55 -0.00    +0.000 C 
DOCKED: BRANCH   7   8
DOCKED: ATOM      8  C   UNL     1      36.969   9.435 122.147 -0.65 -0.00    +0.000 C 
DOCKED: ATOM      9  N   UNL     1      37.063   8.666 123.353 -0.66 -0.00    +0.000 N 
DOCKED: ATOM     10  O   UNL     1      36.772   8.842 121.053 -2.63 -0.00    +0.000 OA
DOCKED: ATOM     11  H   UNL     1      37.113   9.124 124.224 -0.57 -0.00    +0.000 HD
DOCKED: BRANCH   9  12
DOCKED: ATOM     12  O   UNL     1      37.081   7.314 123.298 -2.09 -0.00    +0.000 OA
DOCKED: ATOM     13  H   UNL     1      37.224   7.028 122.382 -0.16 -0.00    +0.000 HD
DOCKED: ENDBRANCH   9  12
DOCKED: ENDBRANCH   7   8
DOCKED: ENDBRANCH   4   6
DOCKED: ENDBRANCH   1   3
DOCKED: BRANCH   1  14
DOCKED: ATOM     14  C   UNL     1      37.269  15.861 121.392 -0.24 -0.00    +0.000 C 
DOCKED: ATOM     15  O   UNL     1      36.629  16.923 121.630 -0.20 -0.00    +0.000 OA
DOCKED: BRANCH  14  19
DOCKED: ATOM     16  C   UNL     1      37.097  14.212 117.397 -0.32 -0.00    +0.000 A 
DOCKED: ATOM     17  C   UNL     1      36.438  15.415 117.721 -0.19 -0.00    +0.000 A 
DOCKED: ATOM     18  C   UNL     1      36.497  15.938 119.015 -0.16 -0.00    +0.000 A 
DOCKED: ATOM     19  C   UNL     1      37.220  15.281 120.024 -0.21 -0.00    +0.000 A 
DOCKED: ATOM     20  C   UNL     1      37.871  14.076 119.710 -0.30 -0.00    +0.000 A 
DOCKED: ATOM     21  C   UNL     1      37.812  13.550 118.416 -0.25 -0.00    +0.000 A 
DOCKED: ATOM     22  CM  UNL     1      37.155  14.745 118.714 +0.00 -0.00    +0.000 AC
DOCKED: BRANCH  16  23
DOCKED: ATOM     23  C   UNL     1      35.816  13.798 115.249 -0.28 -0.00    +0.000 C 
DOCKED: ATOM     24  N   UNL     1      37.037  13.667 116.053 -0.36 -0.00    +0.000 N 
DOCKED: ATOM     25  C   UNL     1      38.195  12.973 115.476 -0.52 -0.00    +0.000 C 
DOCKED: ENDBRANCH  16  23
DOCKED: ENDBRANCH  14  19
DOCKED: ENDBRANCH   1  14
DOCKED: TORSDOF 7DOCKED: TER
DOCKED: ENDMDL
________________________________________________________________________________


	BEGINNING GENETIC ALGORITHM DOCKING 31 of 100
Run: 31 Seed: 173950498 622240538 [ Run 31 of 100 GA/GALS ]
Beginning LAMARCKIAN GENETIC ALGORITHM (LGA), with a maximum of 2500000 energy evaluations.

Final-Value: -14.715


	FINAL GENETIC ALGORITHM DOCKED STATE
	_______________________________________________


Detailed state:  trans 36.967 14.434 120.670 quatxyzw -0.345873 0.083023 -0.730112 -0.583452 center 1.179 0.138 -0.353 ntor 7 58.1232 66.6301 -44.1479 175.2297 -14.3327 -78.6546 -90.4787
State:	 36.967  14.434 120.670  -0.426  0.102 -0.899 -108.613     58.12   66.63  -44.15  175.23  -14.33  -78.65  -90.48

DOCKED: MODEL       31
DOCKED: USER    Run = 31
DOCKED: USER    DPF = ligand_dock.biased.dpf
DOCKED: USER  
DOCKED: USER    Estimated Free Energy of Binding    =  -11.29 kcal/mol  [=(1)+(2)+(3)-(4)]
DOCKED: USER    Estimated Inhibition Constant, Ki   =    5.29 nM (nanomolar)  [Temperature = 298.15 K]
DOCKED: USER    
DOCKED: USER    (1) Final Intermolecular Energy     =  -13.38 kcal/mol
DOCKED: USER        vdW + Hbond + desolv Energy     =  -13.38 kcal/mol
DOCKED: USER        Electrostatic Energy            =   +0.00 kcal/mol
DOCKED: USER    (2) Final Total Internal Energy     =   -1.33 kcal/mol
DOCKED: USER    (3) Torsional Free Energy           =   +2.09 kcal/mol
DOCKED: USER    (4) Unbound System's Energy  [=(2)] =   -1.33 kcal/mol
DOCKED: USER    
DOCKED: USER    
DOCKED: USER    NEWDPF move ligand.dum.pdbqt
DOCKED: USER    NEWDPF about 1.179000 0.138000 -0.353000
DOCKED: USER    NEWDPF tran0 36.967293 14.434096 120.669647
DOCKED: USER    NEWDPF quaternion0 -0.345873 0.083023 -0.730112 -0.583452
DOCKED: USER    NEWDPF axisangle0 -0.425874 0.102227 -0.898989 -108.612631
DOCKED: USER    NEWDPF quat0 -0.425874 0.102227 -0.898989 -108.612631
DOCKED: USER    NEWDPF dihe0 58.12 66.63 -44.15 175.23 -14.33 -78.65 -90.48 
DOCKED: USER  keepresnum = 1 
DOCKED: USER  
DOCKED: REMARK  Name = 
DOCKED: REMARK  11 active torsions:
DOCKED: REMARK  status: ('A' for Active; 'I' for Inactive)
DOCKED: REMARK    1  A    between atoms: C_1  and  N_2
DOCKED: REMARK    2  A    between atoms: N_2  and  C_3
DOCKED: REMARK    3  A    between atoms: N_2  and  C_22
DOCKED: REMARK    4  A    between atoms: C_6  and  C_9
DOCKED: REMARK    5  A    between atoms: C_9  and  C_10
DOCKED: REMARK    6  A    between atoms: C_10  and  C_11
DOCKED: REMARK    7  A    between atoms: C_10  and  C_20
DOCKED: REMARK    8  A    between atoms: C_12  and  C_13
DOCKED: REMARK    9  A    between atoms: C_12  and  C_19
DOCKED: REMARK   10  A    between atoms: C_14  and  C_15
DOCKED: REMARK   11  A    between atoms: N_16  and  O_17
DOCKED: REMARK                            x       y       z     vdW  Elec       q    Type
DOCKED: REMARK                         _______ _______ _______ _____ _____    ______ ____
DOCKED: USER                              x       y       z     vdW  Elec       q    Type
DOCKED: USER                           _______ _______ _______ _____ _____    ______ ____
DOCKED: ROOT
DOCKED: ATOM      1  C   UNL     1      37.716  15.353 122.180 -0.33 -0.00    +0.000 C 
DOCKED: ATOM      2  C   UNL     1      38.476  15.861 123.408 -0.16 -0.00    +0.000 C 
DOCKED: ENDROOT
DOCKED: BRANCH   1   3
DOCKED: ATOM      3  C   UNL     1      37.512  13.854 122.265 -0.48 -0.00    +0.000 C 
DOCKED: ATOM      4  C   UNL     1      36.542  13.256 122.988 -0.58 -0.00    +0.000 C 
DOCKED: ATOM      5  C   UNL     1      35.556  14.054 123.813 -0.55 -0.00    +0.000 C 
DOCKED: BRANCH   4   6
DOCKED: ATOM      6  C   UNL     1      36.506  11.770 123.006 -0.68 -0.00    +0.000 C 
DOCKED: ATOM      7  C   UNL     1      36.966  11.013 121.999 -0.57 -0.00    +0.000 C 
DOCKED: BRANCH   7   8
DOCKED: ATOM      8  C   UNL     1      36.931   9.536 122.011 -0.64 -0.00    +0.000 C 
DOCKED: ATOM      9  N   UNL     1      36.932   8.778 123.228 -0.66 -0.00    +0.000 N 
DOCKED: ATOM     10  O   UNL     1      36.875   8.929 120.908 -2.66 -0.00    +0.000 OA
DOCKED: ATOM     11  H   UNL     1      36.872   9.241 124.094 -0.51 -0.00    +0.000 HD
DOCKED: BRANCH   9  12
DOCKED: ATOM     12  O   UNL     1      37.014   7.427 123.188 -2.17 -0.00    +0.000 OA
DOCKED: ATOM     13  H   UNL     1      37.825   7.165 122.724 -0.45 -0.00    +0.000 HD
DOCKED: ENDBRANCH   9  12
DOCKED: ENDBRANCH   7   8
DOCKED: ENDBRANCH   4   6
DOCKED: ENDBRANCH   1   3
DOCKED: BRANCH   1  14
DOCKED: ATOM     14  C   UNL     1      38.483  15.713 120.925 -0.23 -0.00    +0.000 C 
DOCKED: ATOM     15  O   UNL     1      39.446  16.524 121.014 -0.15 -0.00    +0.000 OA
DOCKED: BRANCH  14  19
DOCKED: ATOM     16  C   UNL     1      37.494  14.120 117.028 -0.31 -0.00    +0.000 A 
DOCKED: ATOM     17  C   UNL     1      38.667  14.873 117.234 -0.17 -0.00    +0.000 A 
DOCKED: ATOM     18  C   UNL     1      38.976  15.386 118.496 -0.12 -0.00    +0.000 A 
DOCKED: ATOM     19  C   UNL     1      38.129  15.158 119.592 -0.20 -0.00    +0.000 A 
DOCKED: ATOM     20  C   UNL     1      36.952  14.416 119.391 -0.26 -0.00    +0.000 A 
DOCKED: ATOM     21  C   UNL     1      36.640  13.904 118.128 -0.36 -0.00    +0.000 A 
DOCKED: ATOM     22  CM  UNL     1      37.810  14.643 118.311 +0.00 -0.00    +0.000 AC
DOCKED: BRANCH  16  23
DOCKED: ATOM     23  C   UNL     1      35.816  13.724 115.168 -0.28 -0.00    +0.000 C 
DOCKED: ATOM     24  N   UNL     1      37.170  13.586 115.717 -0.37 -0.00    +0.000 N 
DOCKED: ATOM     25  C   UNL     1      38.191  12.896 114.919 -0.49 -0.00    +0.000 C 
DOCKED: ENDBRANCH  16  23
DOCKED: ENDBRANCH  14  19
DOCKED: ENDBRANCH   1  14
DOCKED: TORSDOF 7DOCKED: TER
DOCKED: ENDMDL
________________________________________________________________________________


	BEGINNING GENETIC ALGORITHM DOCKING 32 of 100
Run: 32 Seed: 1479840999 2015854735 [ Run 32 of 100 GA/GALS ]
Beginning LAMARCKIAN GENETIC ALGORITHM (LGA), with a maximum of 2500000 energy evaluations.

Final-Value: -15.462


	FINAL GENETIC ALGORITHM DOCKED STATE
	_______________________________________________


Detailed state:  trans 36.204 14.506 122.016 quatxyzw -0.634443 0.393772 -0.453027 -0.487024 center 1.179 0.138 -0.353 ntor 7 3.3108 124.3211 -3.5643 139.7963 34.1312 -18.6437 -179.9435
State:	 36.204  14.506 122.016  -0.726  0.451 -0.519 -121.710      3.31  124.32   -3.56  139.80   34.13  -18.64 -179.94

DOCKED: MODEL       32
DOCKED: USER    Run = 32
DOCKED: USER    DPF = ligand_dock.biased.dpf
DOCKED: USER  
DOCKED: USER    Estimated Free Energy of Binding    =  -11.56 kcal/mol  [=(1)+(2)+(3)-(4)]
DOCKED: USER    Estimated Inhibition Constant, Ki   =    3.38 nM (nanomolar)  [Temperature = 298.15 K]
DOCKED: USER    
DOCKED: USER    (1) Final Intermolecular Energy     =  -13.64 kcal/mol
DOCKED: USER        vdW + Hbond + desolv Energy     =  -13.64 kcal/mol
DOCKED: USER        Electrostatic Energy            =   +0.00 kcal/mol
DOCKED: USER    (2) Final Total Internal Energy     =   -1.82 kcal/mol
DOCKED: USER    (3) Torsional Free Energy           =   +2.09 kcal/mol
DOCKED: USER    (4) Unbound System's Energy  [=(2)] =   -1.82 kcal/mol
DOCKED: USER    
DOCKED: USER    
DOCKED: USER    NEWDPF move ligand.dum.pdbqt
DOCKED: USER    NEWDPF about 1.179000 0.138000 -0.353000
DOCKED: USER    NEWDPF tran0 36.204024 14.505795 122.016199
DOCKED: USER    NEWDPF quaternion0 -0.634443 0.393772 -0.453027 -0.487024
DOCKED: USER    NEWDPF axisangle0 -0.726415 0.450856 -0.518701 -121.709725
DOCKED: USER    NEWDPF quat0 -0.726415 0.450856 -0.518701 -121.709725
DOCKED: USER    NEWDPF dihe0 3.31 124.32 -3.56 139.80 34.13 -18.64 -179.94 
DOCKED: USER  keepresnum = 1 
DOCKED: USER  
DOCKED: REMARK  Name = 
DOCKED: REMARK  11 active torsions:
DOCKED: REMARK  status: ('A' for Active; 'I' for Inactive)
DOCKED: REMARK    1  A    between atoms: C_1  and  N_2
DOCKED: REMARK    2  A    between atoms: N_2  and  C_3
DOCKED: REMARK    3  A    between atoms: N_2  and  C_22
DOCKED: REMARK    4  A    between atoms: C_6  and  C_9
DOCKED: REMARK    5  A    between atoms: C_9  and  C_10
DOCKED: REMARK    6  A    between atoms: C_10  and  C_11
DOCKED: REMARK    7  A    between atoms: C_10  and  C_20
DOCKED: REMARK    8  A    between atoms: C_12  and  C_13
DOCKED: REMARK    9  A    between atoms: C_12  and  C_19
DOCKED: REMARK   10  A    between atoms: C_14  and  C_15
DOCKED: REMARK   11  A    between atoms: N_16  and  O_17
DOCKED: REMARK                            x       y       z     vdW  Elec       q    Type
DOCKED: REMARK                         _______ _______ _______ _____ _____    ______ ____
DOCKED: USER                              x       y       z     vdW  Elec       q    Type
DOCKED: USER                           _______ _______ _______ _____ _____    ______ ____
DOCKED: ROOT
DOCKED: ATOM      1  C   UNL     1      37.915  15.351 122.217 -0.34 -0.00    +0.000 C 
DOCKED: ATOM      2  C   UNL     1      39.377  15.810 122.229 -0.31 -0.00    +0.000 C 
DOCKED: ENDROOT
DOCKED: BRANCH   1   3
DOCKED: ATOM      3  C   UNL     1      37.834  13.841 122.299 -0.48 -0.00    +0.000 C 
DOCKED: ATOM      4  C   UNL     1      36.915  13.164 123.018 -0.59 -0.00    +0.000 C 
DOCKED: ATOM      5  C   UNL     1      35.864  13.877 123.841 -0.56 -0.00    +0.000 C 
DOCKED: BRANCH   4   6
DOCKED: ATOM      6  C   UNL     1      37.000  11.680 123.033 -0.66 -0.00    +0.000 C 
DOCKED: ATOM      7  C   UNL     1      36.847  10.926 121.935 -0.58 -0.00    +0.000 C 
DOCKED: BRANCH   7   8
DOCKED: ATOM      8  C   UNL     1      36.929   9.450 121.944 -0.65 -0.00    +0.000 C 
DOCKED: ATOM      9  N   UNL     1      36.878   8.686 123.155 -0.69 -0.00    +0.000 N 
DOCKED: ATOM     10  O   UNL     1      37.024   8.849 120.840 -2.71 -0.00    +0.000 OA
DOCKED: ATOM     11  H   UNL     1      36.702   9.137 124.012 -0.45 -0.00    +0.000 HD
DOCKED: BRANCH   9  12
DOCKED: ATOM     12  O   UNL     1      37.071   7.346 123.123 -2.16 -0.00    +0.000 OA
DOCKED: ATOM     13  H   UNL     1      37.282   7.071 122.217 -0.17 -0.00    +0.000 HD
DOCKED: ENDBRANCH   9  12
DOCKED: ENDBRANCH   7   8
DOCKED: ENDBRANCH   4   6
DOCKED: ENDBRANCH   1   3
DOCKED: BRANCH   1  14
DOCKED: ATOM     14  C   UNL     1      37.238  15.852 120.959 -0.22 -0.00    +0.000 C 
DOCKED: ATOM     15  O   UNL     1      36.494  16.869 121.034 -0.20 -0.00    +0.000 OA
DOCKED: BRANCH  14  19
DOCKED: ATOM     16  C   UNL     1      37.738  13.928 117.118 -0.32 -0.00    +0.000 A 
DOCKED: ATOM     17  C   UNL     1      38.058  15.288 117.303 -0.17 -0.00    +0.000 A 
DOCKED: ATOM     18  C   UNL     1      37.890  15.901 118.546 -0.14 -0.00    +0.000 A 
DOCKED: ATOM     19  C   UNL     1      37.404  15.176 119.646 -0.21 -0.00    +0.000 A 
DOCKED: ATOM     20  C   UNL     1      37.074  13.821 119.467 -0.34 -0.00    +0.000 A 
DOCKED: ATOM     21  C   UNL     1      37.240  13.206 118.222 -0.34 -0.00    +0.000 A 
DOCKED: ATOM     22  CM  UNL     1      37.567  14.554 118.384 +0.00 -0.00    +0.000 AC
DOCKED: BRANCH  16  23
DOCKED: ATOM     23  C   UNL     1      36.957  13.533 114.739 -0.37 -0.00    +0.000 C 
DOCKED: ATOM     24  N   UNL     1      37.912  13.289 115.826 -0.44 -0.00    +0.000 N 
DOCKED: ATOM     25  C   UNL     1      39.044  12.385 115.586 -0.54 -0.00    +0.000 C 
DOCKED: ENDBRANCH  16  23
DOCKED: ENDBRANCH  14  19
DOCKED: ENDBRANCH   1  14
DOCKED: TORSDOF 7DOCKED: TER
DOCKED: ENDMDL
________________________________________________________________________________


	BEGINNING GENETIC ALGORITHM DOCKING 33 of 100
Run: 33 Seed: 1834209100 327764588 [ Run 33 of 100 GA/GALS ]
Beginning LAMARCKIAN GENETIC ALGORITHM (LGA), with a maximum of 2500000 energy evaluations.

Final-Value: -14.485


	FINAL GENETIC ALGORITHM DOCKED STATE
	_______________________________________________


Detailed state:  trans 36.188 14.797 123.347 quatxyzw 0.684180 -0.675200 0.062231 0.268570 center 1.179 0.138 -0.353 ntor 7 6.3717 74.9745 -112.7244 -98.0096 24.9169 16.4339 -36.9996
State:	 36.188  14.797 123.347   0.710 -0.701  0.065 148.842      6.37   74.97 -112.72  -98.01   24.92   16.43  -37.00

DOCKED: MODEL       33
DOCKED: USER    Run = 33
DOCKED: USER    DPF = ligand_dock.biased.dpf
DOCKED: USER  
DOCKED: USER    Estimated Free Energy of Binding    =  -10.77 kcal/mol  [=(1)+(2)+(3)-(4)]
DOCKED: USER    Estimated Inhibition Constant, Ki   =   12.79 nM (nanomolar)  [Temperature = 298.15 K]
DOCKED: USER    
DOCKED: USER    (1) Final Intermolecular Energy     =  -12.86 kcal/mol
DOCKED: USER        vdW + Hbond + desolv Energy     =  -12.86 kcal/mol
DOCKED: USER        Electrostatic Energy            =   +0.00 kcal/mol
DOCKED: USER    (2) Final Total Internal Energy     =   -1.63 kcal/mol
DOCKED: USER    (3) Torsional Free Energy           =   +2.09 kcal/mol
DOCKED: USER    (4) Unbound System's Energy  [=(2)] =   -1.63 kcal/mol
DOCKED: USER    
DOCKED: USER    
DOCKED: USER    NEWDPF move ligand.dum.pdbqt
DOCKED: USER    NEWDPF about 1.179000 0.138000 -0.353000
DOCKED: USER    NEWDPF tran0 36.188435 14.797444 123.347096
DOCKED: USER    NEWDPF quaternion0 0.684180 -0.675200 0.062231 0.268570
DOCKED: USER    NEWDPF axisangle0 0.710276 -0.700953 0.064605 148.841625
DOCKED: USER    NEWDPF quat0 0.710276 -0.700953 0.064605 148.841625
DOCKED: USER    NEWDPF dihe0 6.37 74.97 -112.72 -98.01 24.92 16.43 -37.00 
DOCKED: USER  keepresnum = 1 
DOCKED: USER  
DOCKED: REMARK  Name = 
DOCKED: REMARK  11 active torsions:
DOCKED: REMARK  status: ('A' for Active; 'I' for Inactive)
DOCKED: REMARK    1  A    between atoms: C_1  and  N_2
DOCKED: REMARK    2  A    between atoms: N_2  and  C_3
DOCKED: REMARK    3  A    between atoms: N_2  and  C_22
DOCKED: REMARK    4  A    between atoms: C_6  and  C_9
DOCKED: REMARK    5  A    between atoms: C_9  and  C_10
DOCKED: REMARK    6  A    between atoms: C_10  and  C_11
DOCKED: REMARK    7  A    between atoms: C_10  and  C_20
DOCKED: REMARK    8  A    between atoms: C_12  and  C_13
DOCKED: REMARK    9  A    between atoms: C_12  and  C_19
DOCKED: REMARK   10  A    between atoms: C_14  and  C_15
DOCKED: REMARK   11  A    between atoms: N_16  and  O_17
DOCKED: REMARK                            x       y       z     vdW  Elec       q    Type
DOCKED: REMARK                         _______ _______ _______ _____ _____    ______ ____
DOCKED: USER                              x       y       z     vdW  Elec       q    Type
DOCKED: USER                           _______ _______ _______ _____ _____    ______ ____
DOCKED: ROOT
DOCKED: ATOM      1  C   UNL     1      37.415  15.559 122.082 -0.30 -0.00    +0.000 C 
DOCKED: ATOM      2  C   UNL     1      38.268  15.998 120.888 -0.20 -0.00    +0.000 C 
DOCKED: ENDROOT
DOCKED: BRANCH   1   3
DOCKED: ATOM      3  C   UNL     1      37.090  14.082 121.985 -0.42 -0.00    +0.000 C 
DOCKED: ATOM      4  C   UNL     1      36.422  13.384 122.926 -0.54 -0.00    +0.000 C 
DOCKED: ATOM      5  C   UNL     1      35.940  14.032 124.206 -0.47 -0.00    +0.000 C 
DOCKED: BRANCH   4   6
DOCKED: ATOM      6  C   UNL     1      36.226  11.928 122.703 -0.64 -0.00    +0.000 C 
DOCKED: ATOM      7  C   UNL     1      37.242  11.067 122.539 -0.37 -0.00    +0.000 C 
DOCKED: BRANCH   7   8
DOCKED: ATOM      8  C   UNL     1      37.053   9.619 122.316 -0.60 -0.00    +0.000 C 
DOCKED: ATOM      9  N   UNL     1      37.085   8.666 123.387 -0.65 -0.00    +0.000 N 
DOCKED: ATOM     10  O   UNL     1      36.832   9.218 121.142 -2.67 -0.00    +0.000 OA
DOCKED: ATOM     11  H   UNL     1      37.154   8.978 124.318 -0.54 -0.00    +0.000 HD
DOCKED: BRANCH   9  12
DOCKED: ATOM     12  O   UNL     1      37.019   7.341 123.120 -2.14 -0.00    +0.000 OA
DOCKED: ATOM     13  H   UNL     1      37.056   7.201 122.161 -0.09 -0.00    +0.000 HD
DOCKED: ENDBRANCH   9  12
DOCKED: ENDBRANCH   7   8
DOCKED: ENDBRANCH   4   6
DOCKED: ENDBRANCH   1   3
DOCKED: BRANCH   1  14
DOCKED: ATOM     14  C   UNL     1      36.144  16.380 122.126 -0.27 -0.00    +0.000 C 
DOCKED: ATOM     15  O   UNL     1      35.538  16.620 121.045 -0.22 -0.00    +0.000 OA
DOCKED: BRANCH  14  19
DOCKED: ATOM     16  C   UNL     1      34.508  17.957 125.806 -0.31 -0.00    +0.000 A 
DOCKED: ATOM     17  C   UNL     1      33.697  17.271 124.879 -0.23 -0.00    +0.000 A 
DOCKED: ATOM     18  C   UNL     1      34.234  16.769 123.691 -0.39 -0.00    +0.000 A 
DOCKED: ATOM     19  C   UNL     1      35.597  16.928 123.395 -0.32 -0.00    +0.000 A 
DOCKED: ATOM     20  C   UNL     1      36.409  17.618 124.311 -0.22 -0.00    +0.000 A 
DOCKED: ATOM     21  C   UNL     1      35.873  18.124 125.499 -0.18 -0.00    +0.000 A 
DOCKED: ATOM     22  CM  UNL     1      35.053  17.445 124.596 -0.39 -0.00    +0.000 AC
DOCKED: BRANCH  16  23
DOCKED: ATOM     23  C   UNL     1      34.114  19.896 127.391 -0.14 -0.00    +0.000 C 
DOCKED: ATOM     24  N   UNL     1      33.951  18.480 127.041 -0.23 -0.00    +0.000 N 
DOCKED: ATOM     25  C   UNL     1      33.218  17.602 127.961 -0.32 -0.00    +0.000 C 
DOCKED: ENDBRANCH  16  23
DOCKED: ENDBRANCH  14  19
DOCKED: ENDBRANCH   1  14
DOCKED: TORSDOF 7DOCKED: TER
DOCKED: ENDMDL
________________________________________________________________________________


	BEGINNING GENETIC ALGORITHM DOCKING 34 of 100
Run: 34 Seed: 233079312 590423850 [ Run 34 of 100 GA/GALS ]
Beginning LAMARCKIAN GENETIC ALGORITHM (LGA), with a maximum of 2500000 energy evaluations.

Final-Value: -14.964


	FINAL GENETIC ALGORITHM DOCKED STATE
	_______________________________________________


Detailed state:  trans 36.895 14.453 120.830 quatxyzw 0.493367 -0.186984 0.652709 0.543688 center 1.179 0.138 -0.353 ntor 7 32.5677 118.6046 -20.2962 147.7262 -104.4913 -50.9549 -81.3711
State:	 36.895  14.453 120.830   0.588 -0.223  0.778 114.130     32.57  118.60  -20.30  147.73 -104.49  -50.95  -81.37

DOCKED: MODEL       34
DOCKED: USER    Run = 34
DOCKED: USER    DPF = ligand_dock.biased.dpf
DOCKED: USER  
DOCKED: USER    Estimated Free Energy of Binding    =  -11.16 kcal/mol  [=(1)+(2)+(3)-(4)]
DOCKED: USER    Estimated Inhibition Constant, Ki   =    6.60 nM (nanomolar)  [Temperature = 298.15 K]
DOCKED: USER    
DOCKED: USER    (1) Final Intermolecular Energy     =  -13.25 kcal/mol
DOCKED: USER        vdW + Hbond + desolv Energy     =  -13.25 kcal/mol
DOCKED: USER        Electrostatic Energy            =   +0.00 kcal/mol
DOCKED: USER    (2) Final Total Internal Energy     =   -1.72 kcal/mol
DOCKED: USER    (3) Torsional Free Energy           =   +2.09 kcal/mol
DOCKED: USER    (4) Unbound System's Energy  [=(2)] =   -1.72 kcal/mol
DOCKED: USER    
DOCKED: USER    
DOCKED: USER    NEWDPF move ligand.dum.pdbqt
DOCKED: USER    NEWDPF about 1.179000 0.138000 -0.353000
DOCKED: USER    NEWDPF tran0 36.894959 14.453495 120.829862
DOCKED: USER    NEWDPF quaternion0 0.493367 -0.186984 0.652709 0.543688
DOCKED: USER    NEWDPF axisangle0 0.587841 -0.222789 0.777694 114.129885
DOCKED: USER    NEWDPF quat0 0.587841 -0.222789 0.777694 114.129885
DOCKED: USER    NEWDPF dihe0 32.57 118.60 -20.30 147.73 -104.49 -50.95 -81.37 
DOCKED: USER  keepresnum = 1 
DOCKED: USER  
DOCKED: REMARK  Name = 
DOCKED: REMARK  11 active torsions:
DOCKED: REMARK  status: ('A' for Active; 'I' for Inactive)
DOCKED: REMARK    1  A    between atoms: C_1  and  N_2
DOCKED: REMARK    2  A    between atoms: N_2  and  C_3
DOCKED: REMARK    3  A    between atoms: N_2  and  C_22
DOCKED: REMARK    4  A    between atoms: C_6  and  C_9
DOCKED: REMARK    5  A    between atoms: C_9  and  C_10
DOCKED: REMARK    6  A    between atoms: C_10  and  C_11
DOCKED: REMARK    7  A    between atoms: C_10  and  C_20
DOCKED: REMARK    8  A    between atoms: C_12  and  C_13
DOCKED: REMARK    9  A    between atoms: C_12  and  C_19
DOCKED: REMARK   10  A    between atoms: C_14  and  C_15
DOCKED: REMARK   11  A    between atoms: N_16  and  O_17
DOCKED: REMARK                            x       y       z     vdW  Elec       q    Type
DOCKED: REMARK                         _______ _______ _______ _____ _____    ______ ____
DOCKED: USER                              x       y       z     vdW  Elec       q    Type
DOCKED: USER                           _______ _______ _______ _____ _____    ______ ____
DOCKED: ROOT
DOCKED: ATOM      1  C   UNL     1      38.180  15.402 121.895 -0.31 -0.00    +0.000 C 
DOCKED: ATOM      2  C   UNL     1      39.362  15.932 122.712 -0.31 -0.00    +0.000 C 
DOCKED: ENDROOT
DOCKED: BRANCH   1   3
DOCKED: ATOM      3  C   UNL     1      38.013  13.912 122.109 -0.46 -0.00    +0.000 C 
DOCKED: ATOM      4  C   UNL     1      37.007  13.349 122.810 -0.56 -0.00    +0.000 C 
DOCKED: ATOM      5  C   UNL     1      35.936  14.185 123.476 -0.54 -0.00    +0.000 C 
DOCKED: BRANCH   4   6
DOCKED: ATOM      6  C   UNL     1      37.013  11.871 122.969 -0.65 -0.00    +0.000 C 
DOCKED: ATOM      7  C   UNL     1      37.059  11.023 121.931 -0.54 -0.00    +0.000 C 
DOCKED: BRANCH   7   8
DOCKED: ATOM      8  C   UNL     1      37.064   9.553 122.083 -0.61 -0.00    +0.000 C 
DOCKED: ATOM      9  N   UNL     1      37.067   8.913 123.366 -0.62 -0.00    +0.000 N 
DOCKED: ATOM     10  O   UNL     1      37.042   8.843 121.042 -2.70 -0.00    +0.000 OA
DOCKED: ATOM     11  H   UNL     1      36.981   9.455 124.184 -0.55 -0.00    +0.000 HD
DOCKED: BRANCH   9  12
DOCKED: ATOM     12  O   UNL     1      37.185   7.568 123.455 -2.18 -0.00    +0.000 OA
DOCKED: ATOM     13  H   UNL     1      37.741   7.242 122.730 -0.39 -0.00    +0.000 HD
DOCKED: ENDBRANCH   9  12
DOCKED: ENDBRANCH   7   8
DOCKED: ENDBRANCH   4   6
DOCKED: ENDBRANCH   1   3
DOCKED: BRANCH   1  14
DOCKED: ATOM     14  C   UNL     1      38.401  15.706 120.428 -0.21 -0.00    +0.000 C 
DOCKED: ATOM     15  O   UNL     1      39.429  16.356 120.091 -0.15 -0.00    +0.000 OA
DOCKED: BRANCH  14  19
DOCKED: ATOM     16  C   UNL     1      35.583  14.519 117.370 -0.30 -0.00    +0.000 A 
DOCKED: ATOM     17  C   UNL     1      35.581  15.825 117.899 -0.15 -0.00    +0.000 A 
DOCKED: ATOM     18  C   UNL     1      36.493  16.198 118.889 -0.15 -0.00    +0.000 A 
DOCKED: ATOM     19  C   UNL     1      37.439  15.282 119.376 -0.20 -0.00    +0.000 A 
DOCKED: ATOM     20  C   UNL     1      37.440  13.976 118.860 -0.33 -0.00    +0.000 A 
DOCKED: ATOM     21  C   UNL     1      36.527  13.600 117.870 -0.35 -0.00    +0.000 A 
DOCKED: ATOM     22  CM  UNL     1      36.510  14.900 118.378 +0.00 -0.00    +0.000 AC
DOCKED: BRANCH  16  23
DOCKED: ATOM     23  C   UNL     1      33.267  13.736 116.697 -0.39 -0.00    +0.000 C 
DOCKED: ATOM     24  N   UNL     1      34.635  14.129 116.341 -0.32 -0.00    +0.000 N 
DOCKED: ATOM     25  C   UNL     1      35.029  14.120 114.927 -0.28 -0.00    +0.000 C 
DOCKED: ENDBRANCH  16  23
DOCKED: ENDBRANCH  14  19
DOCKED: ENDBRANCH   1  14
DOCKED: TORSDOF 7DOCKED: TER
DOCKED: ENDMDL
________________________________________________________________________________


	BEGINNING GENETIC ALGORITHM DOCKING 35 of 100
Run: 35 Seed: 1501217286 359822765 [ Run 35 of 100 GA/GALS ]
Beginning LAMARCKIAN GENETIC ALGORITHM (LGA), with a maximum of 2500000 energy evaluations.

Final-Value: -14.215


	FINAL GENETIC ALGORITHM DOCKED STATE
	_______________________________________________


Detailed state:  trans 35.170 14.414 124.435 quatxyzw 0.735976 -0.582531 -0.074616 0.336794 center 1.179 0.138 -0.353 ntor 7 0.2262 -180.0000 148.9787 118.8295 67.4511 -97.3649 -10.2236
State:	 35.170  14.414 124.435   0.782 -0.619 -0.079 140.637      0.23 -180.00  148.98  118.83   67.45  -97.36  -10.22

DOCKED: MODEL       35
DOCKED: USER    Run = 35
DOCKED: USER    DPF = ligand_dock.biased.dpf
DOCKED: USER  
DOCKED: USER    Estimated Free Energy of Binding    =  -10.67 kcal/mol  [=(1)+(2)+(3)-(4)]
DOCKED: USER    Estimated Inhibition Constant, Ki   =   15.10 nM (nanomolar)  [Temperature = 298.15 K]
DOCKED: USER    
DOCKED: USER    (1) Final Intermolecular Energy     =  -12.76 kcal/mol
DOCKED: USER        vdW + Hbond + desolv Energy     =  -12.76 kcal/mol
DOCKED: USER        Electrostatic Energy            =   +0.00 kcal/mol
DOCKED: USER    (2) Final Total Internal Energy     =   -1.46 kcal/mol
DOCKED: USER    (3) Torsional Free Energy           =   +2.09 kcal/mol
DOCKED: USER    (4) Unbound System's Energy  [=(2)] =   -1.46 kcal/mol
DOCKED: USER    
DOCKED: USER    
DOCKED: USER    NEWDPF move ligand.dum.pdbqt
DOCKED: USER    NEWDPF about 1.179000 0.138000 -0.353000
DOCKED: USER    NEWDPF tran0 35.170186 14.414155 124.434790
DOCKED: USER    NEWDPF quaternion0 0.735976 -0.582531 -0.074616 0.336794
DOCKED: USER    NEWDPF axisangle0 0.781640 -0.618675 -0.079245 140.636657
DOCKED: USER    NEWDPF quat0 0.781640 -0.618675 -0.079245 140.636657
DOCKED: USER    NEWDPF dihe0 0.23 -180.00 148.98 118.83 67.45 -97.36 -10.22 
DOCKED: USER  keepresnum = 1 
DOCKED: USER  
DOCKED: REMARK  Name = 
DOCKED: REMARK  11 active torsions:
DOCKED: REMARK  status: ('A' for Active; 'I' for Inactive)
DOCKED: REMARK    1  A    between atoms: C_1  and  N_2
DOCKED: REMARK    2  A    between atoms: N_2  and  C_3
DOCKED: REMARK    3  A    between atoms: N_2  and  C_22
DOCKED: REMARK    4  A    between atoms: C_6  and  C_9
DOCKED: REMARK    5  A    between atoms: C_9  and  C_10
DOCKED: REMARK    6  A    between atoms: C_10  and  C_11
DOCKED: REMARK    7  A    between atoms: C_10  and  C_20
DOCKED: REMARK    8  A    between atoms: C_12  and  C_13
DOCKED: REMARK    9  A    between atoms: C_12  and  C_19
DOCKED: REMARK   10  A    between atoms: C_14  and  C_15
DOCKED: REMARK   11  A    between atoms: N_16  and  O_17
DOCKED: REMARK                            x       y       z     vdW  Elec       q    Type
DOCKED: REMARK                         _______ _______ _______ _____ _____    ______ ____
DOCKED: USER                              x       y       z     vdW  Elec       q    Type
DOCKED: USER                           _______ _______ _______ _____ _____    ______ ____
DOCKED: ROOT
DOCKED: ATOM      1  C   UNL     1      36.037  15.755 123.370 -0.42 -0.00    +0.000 C 
DOCKED: ATOM      2  C   UNL     1      36.637  16.676 122.303 -0.25 -0.00    +0.000 C 
DOCKED: ENDROOT
DOCKED: BRANCH   1   3
DOCKED: ATOM      3  C   UNL     1      36.112  14.310 122.925 -0.37 -0.00    +0.000 C 
DOCKED: ATOM      4  C   UNL     1      37.260  13.645 122.680 -0.52 -0.00    +0.000 C 
DOCKED: ATOM      5  C   UNL     1      38.612  14.312 122.817 -0.43 -0.00    +0.000 C 
DOCKED: BRANCH   4   6
DOCKED: ATOM      6  C   UNL     1      37.162  12.240 122.202 -0.56 -0.00    +0.000 C 
DOCKED: ATOM      7  C   UNL     1      37.020  11.194 123.029 -0.64 -0.00    +0.000 C 
DOCKED: BRANCH   7   8
DOCKED: ATOM      8  C   UNL     1      36.923   9.796 122.561 -0.63 -0.00    +0.000 C 
DOCKED: ATOM      9  N   UNL     1      37.045   8.678 123.449 -0.64 -0.00    +0.000 N 
DOCKED: ATOM     10  O   UNL     1      36.701   9.587 121.337 -2.23 -0.00    +0.000 OA
DOCKED: ATOM     11  H   UNL     1      37.115   8.829 124.420 -0.53 -0.00    +0.000 HD
DOCKED: BRANCH   9  12
DOCKED: ATOM     12  O   UNL     1      37.061   7.416 122.959 -2.13 -0.00    +0.000 OA
DOCKED: ATOM     13  H   UNL     1      36.986   7.444 121.992 -0.06 -0.00    +0.000 HD
DOCKED: ENDBRANCH   9  12
DOCKED: ENDBRANCH   7   8
DOCKED: ENDBRANCH   4   6
DOCKED: ENDBRANCH   1   3
DOCKED: BRANCH   1  14
DOCKED: ATOM     14  C   UNL     1      34.601  16.155 123.634 -0.52 -0.00    +0.000 C 
DOCKED: ATOM     15  O   UNL     1      33.741  15.964 122.729 -0.31 -0.00    +0.000 OA
DOCKED: BRANCH  14  19
DOCKED: ATOM     16  C   UNL     1      33.350  17.933 127.373 -0.27 -0.00    +0.000 A 
DOCKED: ATOM     17  C   UNL     1      33.353  16.535 127.192 -0.38 -0.00    +0.000 A 
DOCKED: ATOM     18  C   UNL     1      33.755  15.970 125.979 -0.25 -0.00    +0.000 A 
DOCKED: ATOM     19  C   UNL     1      34.174  16.782 124.913 -0.42 -0.00    +0.000 A 
DOCKED: ATOM     20  C   UNL     1      34.165  18.177 125.083 -0.33 -0.00    +0.000 A 
DOCKED: ATOM     21  C   UNL     1      33.760  18.744 126.296 -0.27 -0.00    +0.000 A 
DOCKED: ATOM     22  CM  UNL     1      33.759  17.356 126.139 -0.08 -0.00    +0.000 AC
DOCKED: BRANCH  16  23
DOCKED: ATOM     23  C   UNL     1      32.099  17.760 129.572 -0.28 -0.00    +0.000 C 
DOCKED: ATOM     24  N   UNL     1      32.932  18.521 128.633 -0.16 -0.00    +0.000 N 
DOCKED: ATOM     25  C   UNL     1      33.332  19.888 128.988 -0.07 -0.00    +0.000 C 
DOCKED: ENDBRANCH  16  23
DOCKED: ENDBRANCH  14  19
DOCKED: ENDBRANCH   1  14
DOCKED: TORSDOF 7DOCKED: TER
DOCKED: ENDMDL
________________________________________________________________________________


	BEGINNING GENETIC ALGORITHM DOCKING 36 of 100
Run: 36 Seed: 55606786 1191903208 [ Run 36 of 100 GA/GALS ]
Beginning LAMARCKIAN GENETIC ALGORITHM (LGA), with a maximum of 2500000 energy evaluations.

Final-Value: -14.051


	FINAL GENETIC ALGORITHM DOCKED STATE
	_______________________________________________


Detailed state:  trans 37.355 15.047 122.966 quatxyzw -0.393094 0.434355 0.587218 0.558559 center 1.179 0.138 -0.353 ntor 7 14.2554 -33.8294 20.5347 -63.4541 -136.3884 -9.5768 83.0632
State:	 37.355  15.047 122.966  -0.474  0.524  0.708 112.088     14.26  -33.83   20.53  -63.45 -136.39   -9.58   83.06

DOCKED: MODEL       36
DOCKED: USER    Run = 36
DOCKED: USER    DPF = ligand_dock.biased.dpf
DOCKED: USER  
DOCKED: USER    Estimated Free Energy of Binding    =  -10.56 kcal/mol  [=(1)+(2)+(3)-(4)]
DOCKED: USER    Estimated Inhibition Constant, Ki   =   18.16 nM (nanomolar)  [Temperature = 298.15 K]
DOCKED: USER    
DOCKED: USER    (1) Final Intermolecular Energy     =  -12.65 kcal/mol
DOCKED: USER        vdW + Hbond + desolv Energy     =  -12.65 kcal/mol
DOCKED: USER        Electrostatic Energy            =   +0.00 kcal/mol
DOCKED: USER    (2) Final Total Internal Energy     =   -1.40 kcal/mol
DOCKED: USER    (3) Torsional Free Energy           =   +2.09 kcal/mol
DOCKED: USER    (4) Unbound System's Energy  [=(2)] =   -1.40 kcal/mol
DOCKED: USER    
DOCKED: USER    
DOCKED: USER    NEWDPF move ligand.dum.pdbqt
DOCKED: USER    NEWDPF about 1.179000 0.138000 -0.353000
DOCKED: USER    NEWDPF tran0 37.355113 15.047319 122.966495
DOCKED: USER    NEWDPF quaternion0 -0.393094 0.434355 0.587218 0.558559
DOCKED: USER    NEWDPF axisangle0 -0.473913 0.523657 0.707948 112.087579
DOCKED: USER    NEWDPF quat0 -0.473913 0.523657 0.707948 112.087579
DOCKED: USER    NEWDPF dihe0 14.26 -33.83 20.53 -63.45 -136.39 -9.58 83.06 
DOCKED: USER  keepresnum = 1 
DOCKED: USER  
DOCKED: REMARK  Name = 
DOCKED: REMARK  11 active torsions:
DOCKED: REMARK  status: ('A' for Active; 'I' for Inactive)
DOCKED: REMARK    1  A    between atoms: C_1  and  N_2
DOCKED: REMARK    2  A    between atoms: N_2  and  C_3
DOCKED: REMARK    3  A    between atoms: N_2  and  C_22
DOCKED: REMARK    4  A    between atoms: C_6  and  C_9
DOCKED: REMARK    5  A    between atoms: C_9  and  C_10
DOCKED: REMARK    6  A    between atoms: C_10  and  C_11
DOCKED: REMARK    7  A    between atoms: C_10  and  C_20
DOCKED: REMARK    8  A    between atoms: C_12  and  C_13
DOCKED: REMARK    9  A    between atoms: C_12  and  C_19
DOCKED: REMARK   10  A    between atoms: C_14  and  C_15
DOCKED: REMARK   11  A    between atoms: N_16  and  O_17
DOCKED: REMARK                            x       y       z     vdW  Elec       q    Type
DOCKED: REMARK                         _______ _______ _______ _____ _____    ______ ____
DOCKED: USER                              x       y       z     vdW  Elec       q    Type
DOCKED: USER                           _______ _______ _______ _____ _____    ______ ____
DOCKED: ROOT
DOCKED: ATOM      1  C   UNL     1      35.483  15.455 123.083 -0.38 -0.00    +0.000 C 
DOCKED: ATOM      2  C   UNL     1      33.985  15.584 123.372 -0.23 -0.00    +0.000 C 
DOCKED: ENDROOT
DOCKED: BRANCH   1   3
DOCKED: ATOM      3  C   UNL     1      35.923  14.011 123.202 -0.46 -0.00    +0.000 C 
DOCKED: ATOM      4  C   UNL     1      36.934  13.460 122.498 -0.52 -0.00    +0.000 C 
DOCKED: ATOM      5  C   UNL     1      37.727  14.258 121.486 -0.40 -0.00    +0.000 C 
DOCKED: BRANCH   4   6
DOCKED: ATOM      6  C   UNL     1      37.210  12.013 122.696 -0.57 -0.00    +0.000 C 
DOCKED: ATOM      7  C   UNL     1      36.683  11.053 121.922 -0.61 -0.00    +0.000 C 
DOCKED: BRANCH   7   8
DOCKED: ATOM      8  C   UNL     1      36.953   9.613 122.114 -0.63 -0.00    +0.000 C 
DOCKED: ATOM      9  N   UNL     1      37.062   9.019 123.414 -0.59 -0.00    +0.000 N 
DOCKED: ATOM     10  O   UNL     1      37.068   8.884 121.093 -2.70 -0.00    +0.000 OA
DOCKED: ATOM     11  H   UNL     1      36.872   9.557 124.216 -0.52 -0.00    +0.000 HD
DOCKED: BRANCH   9  12
DOCKED: ATOM     12  O   UNL     1      37.421   7.720 123.541 -2.12 -0.00    +0.000 OA
DOCKED: ATOM     13  H   UNL     1      37.785   7.401 122.700 -0.35 -0.00    +0.000 HD
DOCKED: ENDBRANCH   9  12
DOCKED: ENDBRANCH   7   8
DOCKED: ENDBRANCH   4   6
DOCKED: ENDBRANCH   1   3
DOCKED: BRANCH   1  14
DOCKED: ATOM     14  C   UNL     1      36.262  16.329 124.043 -0.33 -0.00    +0.000 C 
DOCKED: ATOM     15  O   UNL     1      37.494  16.108 124.202 -0.22 -0.00    +0.000 OA
DOCKED: BRANCH  14  19
DOCKED: ATOM     16  C   UNL     1      34.369  19.481 126.321 -0.19 -0.00    +0.000 A 
DOCKED: ATOM     17  C   UNL     1      34.054  18.125 126.545 -0.28 -0.00    +0.000 A 
DOCKED: ATOM     18  C   UNL     1      34.668  17.114 125.802 -0.21 -0.00    +0.000 A 
DOCKED: ATOM     19  C   UNL     1      35.620  17.424 124.818 -0.26 -0.00    +0.000 A 
DOCKED: ATOM     20  C   UNL     1      35.932  18.774 124.583 -0.20 -0.00    +0.000 A 
DOCKED: ATOM     21  C   UNL     1      35.316  19.787 125.324 -0.17 -0.00    +0.000 A 
DOCKED: ATOM     22  CM  UNL     1      34.993  18.451 125.565 -0.28 -0.00    +0.000 AC
DOCKED: BRANCH  16  23
DOCKED: ATOM     23  C   UNL     1      34.538  21.522 127.816 -0.06 -0.00    +0.000 C 
DOCKED: ATOM     24  N   UNL     1      33.730  20.532 127.092 -0.13 -0.00    +0.000 N 
DOCKED: ATOM     25  C   UNL     1      32.267  20.623 127.164 -0.21 -0.00    +0.000 C 
DOCKED: ENDBRANCH  16  23
DOCKED: ENDBRANCH  14  19
DOCKED: ENDBRANCH   1  14
DOCKED: TORSDOF 7DOCKED: TER
DOCKED: ENDMDL
________________________________________________________________________________


	BEGINNING GENETIC ALGORITHM DOCKING 37 of 100
Run: 37 Seed: 1896695862 1376418112 [ Run 37 of 100 GA/GALS ]
Beginning LAMARCKIAN GENETIC ALGORITHM (LGA), with a maximum of 2500000 energy evaluations.

Final-Value: -15.565


	FINAL GENETIC ALGORITHM DOCKED STATE
	_______________________________________________


Detailed state:  trans 36.202 14.616 122.101 quatxyzw 0.621227 -0.436977 0.474108 0.445365 center 1.179 0.138 -0.353 ntor 7 13.5099 -69.0663 -49.0122 170.1191 48.0291 -13.9400 173.5161
State:	 36.202  14.616 122.101   0.694 -0.488  0.530 127.107     13.51  -69.07  -49.01  170.12   48.03  -13.94  173.52

DOCKED: MODEL       37
DOCKED: USER    Run = 37
DOCKED: USER    DPF = ligand_dock.biased.dpf
DOCKED: USER  
DOCKED: USER    Estimated Free Energy of Binding    =  -11.58 kcal/mol  [=(1)+(2)+(3)-(4)]
DOCKED: USER    Estimated Inhibition Constant, Ki   =    3.25 nM (nanomolar)  [Temperature = 298.15 K]
DOCKED: USER    
DOCKED: USER    (1) Final Intermolecular Energy     =  -13.67 kcal/mol
DOCKED: USER        vdW + Hbond + desolv Energy     =  -13.67 kcal/mol
DOCKED: USER        Electrostatic Energy            =   +0.00 kcal/mol
DOCKED: USER    (2) Final Total Internal Energy     =   -1.90 kcal/mol
DOCKED: USER    (3) Torsional Free Energy           =   +2.09 kcal/mol
DOCKED: USER    (4) Unbound System's Energy  [=(2)] =   -1.90 kcal/mol
DOCKED: USER    
DOCKED: USER    
DOCKED: USER    NEWDPF move ligand.dum.pdbqt
DOCKED: USER    NEWDPF about 1.179000 0.138000 -0.353000
DOCKED: USER    NEWDPF tran0 36.202067 14.616113 122.101405
DOCKED: USER    NEWDPF quaternion0 0.621227 -0.436977 0.474108 0.445365
DOCKED: USER    NEWDPF axisangle0 0.693837 -0.488052 0.529523 127.106572
DOCKED: USER    NEWDPF quat0 0.693837 -0.488052 0.529523 127.106572
DOCKED: USER    NEWDPF dihe0 13.51 -69.07 -49.01 170.12 48.03 -13.94 173.52 
DOCKED: USER  keepresnum = 1 
DOCKED: USER  
DOCKED: REMARK  Name = 
DOCKED: REMARK  11 active torsions:
DOCKED: REMARK  status: ('A' for Active; 'I' for Inactive)
DOCKED: REMARK    1  A    between atoms: C_1  and  N_2
DOCKED: REMARK    2  A    between atoms: N_2  and  C_3
DOCKED: REMARK    3  A    between atoms: N_2  and  C_22
DOCKED: REMARK    4  A    between atoms: C_6  and  C_9
DOCKED: REMARK    5  A    between atoms: C_9  and  C_10
DOCKED: REMARK    6  A    between atoms: C_10  and  C_11
DOCKED: REMARK    7  A    between atoms: C_10  and  C_20
DOCKED: REMARK    8  A    between atoms: C_12  and  C_13
DOCKED: REMARK    9  A    between atoms: C_12  and  C_19
DOCKED: REMARK   10  A    between atoms: C_14  and  C_15
DOCKED: REMARK   11  A    between atoms: N_16  and  O_17
DOCKED: REMARK                            x       y       z     vdW  Elec       q    Type
DOCKED: REMARK                         _______ _______ _______ _____ _____    ______ ____
DOCKED: USER                              x       y       z     vdW  Elec       q    Type
DOCKED: USER                           _______ _______ _______ _____ _____    ______ ____
DOCKED: ROOT
DOCKED: ATOM      1  C   UNL     1      38.011  15.247 122.226 -0.35 -0.00    +0.000 C 
DOCKED: ATOM      2  C   UNL     1      39.517  15.522 122.178 -0.35 -0.00    +0.000 C 
DOCKED: ENDROOT
DOCKED: BRANCH   1   3
DOCKED: ATOM      3  C   UNL     1      37.747  13.760 122.340 -0.49 -0.00    +0.000 C 
DOCKED: ATOM      4  C   UNL     1      36.724  13.216 123.031 -0.59 -0.00    +0.000 C 
DOCKED: ATOM      5  C   UNL     1      35.730  14.072 123.787 -0.56 -0.00    +0.000 C 
DOCKED: BRANCH   4   6
DOCKED: ATOM      6  C   UNL     1      36.632  11.733 123.086 -0.69 -0.00    +0.000 C 
DOCKED: ATOM      7  C   UNL     1      37.020  10.937 122.079 -0.56 -0.00    +0.000 C 
DOCKED: BRANCH   7   8
DOCKED: ATOM      8  C   UNL     1      36.930   9.463 122.127 -0.65 -0.00    +0.000 C 
DOCKED: ATOM      9  N   UNL     1      37.056   8.726 123.350 -0.65 -0.00    +0.000 N 
DOCKED: ATOM     10  O   UNL     1      36.711   8.840 121.053 -2.62 -0.00    +0.000 OA
DOCKED: ATOM     11  H   UNL     1      37.124   9.206 124.207 -0.59 -0.00    +0.000 HD
DOCKED: BRANCH   9  12
DOCKED: ATOM     12  O   UNL     1      37.079   7.373 123.329 -2.13 -0.00    +0.000 OA
DOCKED: ATOM     13  H   UNL     1      37.217   7.064 122.420 -0.15 -0.00    +0.000 HD
DOCKED: ENDBRANCH   9  12
DOCKED: ENDBRANCH   7   8
DOCKED: ENDBRANCH   4   6
DOCKED: ENDBRANCH   1   3
DOCKED: BRANCH   1  14
DOCKED: ATOM     14  C   UNL     1      37.353  15.808 120.982 -0.22 -0.00    +0.000 C 
DOCKED: ATOM     15  O   UNL     1      36.639  16.843 121.089 -0.20 -0.00    +0.000 OA
DOCKED: BRANCH  14  19
DOCKED: ATOM     16  C   UNL     1      37.825  13.992 117.086 -0.32 -0.00    +0.000 A 
DOCKED: ATOM     17  C   UNL     1      38.437  15.223 117.399 -0.17 -0.00    +0.000 A 
DOCKED: ATOM     18  C   UNL     1      38.276  15.803 118.659 -0.14 -0.00    +0.000 A 
DOCKED: ATOM     19  C   UNL     1      37.506  15.171 119.648 -0.21 -0.00    +0.000 A 
DOCKED: ATOM     20  C   UNL     1      36.885  13.948 119.340 -0.30 -0.00    +0.000 A 
DOCKED: ATOM     21  C   UNL     1      37.043  13.367 118.078 -0.37 -0.00    +0.000 A 
DOCKED: ATOM     22  CM  UNL     1      37.661  14.585 118.368 +0.00 -0.00    +0.000 AC
DOCKED: BRANCH  16  23
DOCKED: ATOM     23  C   UNL     1      39.094  12.455 115.519 -0.55 -0.00    +0.000 C 
DOCKED: ATOM     24  N   UNL     1      37.990  13.388 115.776 -0.43 -0.00    +0.000 N 
DOCKED: ATOM     25  C   UNL     1      37.060  13.702 114.685 -0.37 -0.00    +0.000 C 
DOCKED: ENDBRANCH  16  23
DOCKED: ENDBRANCH  14  19
DOCKED: ENDBRANCH   1  14
DOCKED: TORSDOF 7DOCKED: TER
DOCKED: ENDMDL
________________________________________________________________________________


	BEGINNING GENETIC ALGORITHM DOCKING 38 of 100
Run: 38 Seed: 808085244 1715878112 [ Run 38 of 100 GA/GALS ]
Beginning LAMARCKIAN GENETIC ALGORITHM (LGA), with a maximum of 2500000 energy evaluations.

Final-Value: -15.063


	FINAL GENETIC ALGORITHM DOCKED STATE
	_______________________________________________


Detailed state:  trans 36.162 14.574 122.659 quatxyzw 0.639006 -0.444310 0.407576 0.477641 center 1.179 0.138 -0.353 ntor 7 8.2816 164.8723 -16.3361 141.2777 161.0718 -0.8262 179.6224
State:	 36.162  14.574 122.659   0.727 -0.506  0.464 122.937      8.28  164.87  -16.34  141.28  161.07   -0.83  179.62

DOCKED: MODEL       38
DOCKED: USER    Run = 38
DOCKED: USER    DPF = ligand_dock.biased.dpf
DOCKED: USER  
DOCKED: USER    Estimated Free Energy of Binding    =  -11.41 kcal/mol  [=(1)+(2)+(3)-(4)]
DOCKED: USER    Estimated Inhibition Constant, Ki   =    4.34 nM (nanomolar)  [Temperature = 298.15 K]
DOCKED: USER    
DOCKED: USER    (1) Final Intermolecular Energy     =  -13.50 kcal/mol
DOCKED: USER        vdW + Hbond + desolv Energy     =  -13.50 kcal/mol
DOCKED: USER        Electrostatic Energy            =   +0.00 kcal/mol
DOCKED: USER    (2) Final Total Internal Energy     =   -1.57 kcal/mol
DOCKED: USER    (3) Torsional Free Energy           =   +2.09 kcal/mol
DOCKED: USER    (4) Unbound System's Energy  [=(2)] =   -1.57 kcal/mol
DOCKED: USER    
DOCKED: USER    
DOCKED: USER    NEWDPF move ligand.dum.pdbqt
DOCKED: USER    NEWDPF about 1.179000 0.138000 -0.353000
DOCKED: USER    NEWDPF tran0 36.161821 14.574444 122.658577
DOCKED: USER    NEWDPF quaternion0 0.639006 -0.444310 0.407576 0.477641
DOCKED: USER    NEWDPF axisangle0 0.727338 -0.505729 0.463916 122.937083
DOCKED: USER    NEWDPF quat0 0.727338 -0.505729 0.463916 122.937083
DOCKED: USER    NEWDPF dihe0 8.28 164.87 -16.34 141.28 161.07 -0.83 179.62 
DOCKED: USER  keepresnum = 1 
DOCKED: USER  
DOCKED: REMARK  Name = 
DOCKED: REMARK  11 active torsions:
DOCKED: REMARK  status: ('A' for Active; 'I' for Inactive)
DOCKED: REMARK    1  A    between atoms: C_1  and  N_2
DOCKED: REMARK    2  A    between atoms: N_2  and  C_3
DOCKED: REMARK    3  A    between atoms: N_2  and  C_22
DOCKED: REMARK    4  A    between atoms: C_6  and  C_9
DOCKED: REMARK    5  A    between atoms: C_9  and  C_10
DOCKED: REMARK    6  A    between atoms: C_10  and  C_11
DOCKED: REMARK    7  A    between atoms: C_10  and  C_20
DOCKED: REMARK    8  A    between atoms: C_12  and  C_13
DOCKED: REMARK    9  A    between atoms: C_12  and  C_19
DOCKED: REMARK   10  A    between atoms: C_14  and  C_15
DOCKED: REMARK   11  A    between atoms: N_16  and  O_17
DOCKED: REMARK                            x       y       z     vdW  Elec       q    Type
DOCKED: REMARK                         _______ _______ _______ _____ _____    ______ ____
DOCKED: USER                              x       y       z     vdW  Elec       q    Type
DOCKED: USER                           _______ _______ _______ _____ _____    ______ ____
DOCKED: ROOT
DOCKED: ATOM      1  C   UNL     1      37.909  15.369 122.708 -0.37 -0.00    +0.000 C 
DOCKED: ATOM      2  C   UNL     1      39.374  15.795 122.575 -0.32 -0.00    +0.000 C 
DOCKED: ENDROOT
DOCKED: BRANCH   1   3
DOCKED: ATOM      3  C   UNL     1      37.794  13.859 122.703 -0.50 -0.00    +0.000 C 
DOCKED: ATOM      4  C   UNL     1      36.747  13.170 123.201 -0.60 -0.00    +0.000 C 
DOCKED: ATOM      5  C   UNL     1      35.567  13.869 123.842 -0.54 -0.00    +0.000 C 
DOCKED: BRANCH   4   6
DOCKED: ATOM      6  C   UNL     1      36.809  11.686 123.164 -0.68 -0.00    +0.000 C 
DOCKED: ATOM      7  C   UNL     1      36.888  10.984 122.023 -0.58 -0.00    +0.000 C 
DOCKED: BRANCH   7   8
DOCKED: ATOM      8  C   UNL     1      36.949   9.508 121.979 -0.64 -0.00    +0.000 C 
DOCKED: ATOM      9  N   UNL     1      36.893   8.702 123.163 -0.68 -0.00    +0.000 N 
DOCKED: ATOM     10  O   UNL     1      37.030   8.945 120.855 -2.71 -0.00    +0.000 OA
DOCKED: ATOM     11  H   UNL     1      36.727   9.125 124.037 -0.46 -0.00    +0.000 HD
DOCKED: BRANCH   9  12
DOCKED: ATOM     12  O   UNL     1      37.065   7.362 123.082 -2.17 -0.00    +0.000 OA
DOCKED: ATOM     13  H   UNL     1      37.345   7.124 122.184 -0.17 -0.00    +0.000 HD
DOCKED: ENDBRANCH   9  12
DOCKED: ENDBRANCH   7   8
DOCKED: ENDBRANCH   4   6
DOCKED: ENDBRANCH   1   3
DOCKED: BRANCH   1  14
DOCKED: ATOM     14  C   UNL     1      37.102  15.966 121.574 -0.24 -0.00    +0.000 C 
DOCKED: ATOM     15  O   UNL     1      36.396  16.986 121.803 -0.22 -0.00    +0.000 OA
DOCKED: BRANCH  14  19
DOCKED: ATOM     16  C   UNL     1      37.129  14.226 117.614 -0.31 -0.00    +0.000 A 
DOCKED: ATOM     17  C   UNL     1      37.817  13.620 118.685 -0.26 -0.00    +0.000 A 
DOCKED: ATOM     18  C   UNL     1      37.805  14.191 119.960 -0.30 -0.00    +0.000 A 
DOCKED: ATOM     19  C   UNL     1      37.102  15.381 120.207 -0.20 -0.00    +0.000 A 
DOCKED: ATOM     20  C   UNL     1      36.422  15.996 119.142 -0.15 -0.00    +0.000 A 
DOCKED: ATOM     21  C   UNL     1      36.434  15.426 117.865 -0.19 -0.00    +0.000 A 
DOCKED: ATOM     22  CM  UNL     1      37.119  14.807 118.913 +0.00 -0.00    +0.000 AC
DOCKED: BRANCH  16  23
DOCKED: ATOM     23  C   UNL     1      38.339  12.949 115.788 -0.52 -0.00    +0.000 C 
DOCKED: ATOM     24  N   UNL     1      37.141  13.634 116.289 -0.37 -0.00    +0.000 N 
DOCKED: ATOM     25  C   UNL     1      35.956  13.711 115.426 -0.28 -0.00    +0.000 C 
DOCKED: ENDBRANCH  16  23
DOCKED: ENDBRANCH  14  19
DOCKED: ENDBRANCH   1  14
DOCKED: TORSDOF 7DOCKED: TER
DOCKED: ENDMDL
________________________________________________________________________________


	BEGINNING GENETIC ALGORITHM DOCKING 39 of 100
Run: 39 Seed: 1477655960 1784403614 [ Run 39 of 100 GA/GALS ]
Beginning LAMARCKIAN GENETIC ALGORITHM (LGA), with a maximum of 2500000 energy evaluations.

Final-Value: -14.756


	FINAL GENETIC ALGORITHM DOCKED STATE
	_______________________________________________


Detailed state:  trans 39.281 14.425 121.775 quatxyzw -0.328618 0.518162 0.652240 0.445085 center 1.179 0.138 -0.353 ntor 7 10.3161 -73.4011 -5.2429 158.7852 -109.9174 156.5305 -52.4585
State:	 39.281  14.425 121.775  -0.367  0.579  0.728 127.142     10.32  -73.40   -5.24  158.79 -109.92  156.53  -52.46

DOCKED: MODEL       39
DOCKED: USER    Run = 39
DOCKED: USER    DPF = ligand_dock.biased.dpf
DOCKED: USER  
DOCKED: USER    Estimated Free Energy of Binding    =  -11.32 kcal/mol  [=(1)+(2)+(3)-(4)]
DOCKED: USER    Estimated Inhibition Constant, Ki   =    5.01 nM (nanomolar)  [Temperature = 298.15 K]
DOCKED: USER    
DOCKED: USER    (1) Final Intermolecular Energy     =  -13.41 kcal/mol
DOCKED: USER        vdW + Hbond + desolv Energy     =  -13.41 kcal/mol
DOCKED: USER        Electrostatic Energy            =   +0.00 kcal/mol
DOCKED: USER    (2) Final Total Internal Energy     =   -1.35 kcal/mol
DOCKED: USER    (3) Torsional Free Energy           =   +2.09 kcal/mol
DOCKED: USER    (4) Unbound System's Energy  [=(2)] =   -1.35 kcal/mol
DOCKED: USER    
DOCKED: USER    
DOCKED: USER    NEWDPF move ligand.dum.pdbqt
DOCKED: USER    NEWDPF about 1.179000 0.138000 -0.353000
DOCKED: USER    NEWDPF tran0 39.280660 14.424509 121.774723
DOCKED: USER    NEWDPF quaternion0 -0.328618 0.518162 0.652240 0.445085
DOCKED: USER    NEWDPF axisangle0 -0.366971 0.578637 0.728362 127.142402
DOCKED: USER    NEWDPF quat0 -0.366971 0.578637 0.728362 127.142402
DOCKED: USER    NEWDPF dihe0 10.32 -73.40 -5.24 158.79 -109.92 156.53 -52.46 
DOCKED: USER  keepresnum = 1 
DOCKED: USER  
DOCKED: REMARK  Name = 
DOCKED: REMARK  11 active torsions:
DOCKED: REMARK  status: ('A' for Active; 'I' for Inactive)
DOCKED: REMARK    1  A    between atoms: C_1  and  N_2
DOCKED: REMARK    2  A    between atoms: N_2  and  C_3
DOCKED: REMARK    3  A    between atoms: N_2  and  C_22
DOCKED: REMARK    4  A    between atoms: C_6  and  C_9
DOCKED: REMARK    5  A    between atoms: C_9  and  C_10
DOCKED: REMARK    6  A    between atoms: C_10  and  C_11
DOCKED: REMARK    7  A    between atoms: C_10  and  C_20
DOCKED: REMARK    8  A    between atoms: C_12  and  C_13
DOCKED: REMARK    9  A    between atoms: C_12  and  C_19
DOCKED: REMARK   10  A    between atoms: C_14  and  C_15
DOCKED: REMARK   11  A    between atoms: N_16  and  O_17
DOCKED: REMARK                            x       y       z     vdW  Elec       q    Type
DOCKED: REMARK                         _______ _______ _______ _____ _____    ______ ____
DOCKED: USER                              x       y       z     vdW  Elec       q    Type
DOCKED: USER                           _______ _______ _______ _____ _____    ______ ____
DOCKED: ROOT
DOCKED: ATOM      1  C   UNL     1      37.638  15.418 121.757 -0.29 -0.00    +0.000 C 
DOCKED: ATOM      2  C   UNL     1      36.248  16.033 121.942 -0.23 -0.00    +0.000 C 
DOCKED: ENDROOT
DOCKED: BRANCH   1   3
DOCKED: ATOM      3  C   UNL     1      37.579  13.914 121.926 -0.45 -0.00    +0.000 C 
DOCKED: ATOM      4  C   UNL     1      36.899  13.282 122.904 -0.57 -0.00    +0.000 C 
DOCKED: ATOM      5  C   UNL     1      36.126  14.045 123.958 -0.50 -0.00    +0.000 C 
DOCKED: BRANCH   4   6
DOCKED: ATOM      6  C   UNL     1      36.980  11.799 122.961 -0.66 -0.00    +0.000 C 
DOCKED: ATOM      7  C   UNL     1      36.874  11.017 121.876 -0.57 -0.00    +0.000 C 
DOCKED: BRANCH   7   8
DOCKED: ATOM      8  C   UNL     1      36.953   9.542 121.926 -0.63 -0.00    +0.000 C 
DOCKED: ATOM      9  N   UNL     1      36.883   8.810 123.157 -0.67 -0.00    +0.000 N 
DOCKED: ATOM     10  O   UNL     1      37.063   8.911 120.841 -2.72 -0.00    +0.000 OA
DOCKED: ATOM     11  H   UNL     1      36.694   9.285 123.999 -0.46 -0.00    +0.000 HD
DOCKED: BRANCH   9  12
DOCKED: ATOM     12  O   UNL     1      37.072   7.470 123.164 -2.21 -0.00    +0.000 OA
DOCKED: ATOM     13  H   UNL     1      37.404   7.185 122.298 -0.18 -0.00    +0.000 HD
DOCKED: ENDBRANCH   9  12
DOCKED: ENDBRANCH   7   8
DOCKED: ENDBRANCH   4   6
DOCKED: ENDBRANCH   1   3
DOCKED: BRANCH   1  14
DOCKED: ATOM     14  C   UNL     1      38.599  16.027 122.756 -0.30 -0.00    +0.000 C 
DOCKED: ATOM     15  O   UNL     1      38.138  16.483 123.840 -0.33 -0.00    +0.000 OA
DOCKED: BRANCH  14  19
DOCKED: ATOM     16  C   UNL     1      42.841  16.351 121.982 -0.33 -0.00    +0.000 A 
DOCKED: ATOM     17  C   UNL     1      41.957  17.403 121.665 -0.16 -0.00    +0.000 A 
DOCKED: ATOM     18  C   UNL     1      40.588  17.287 121.917 -0.15 -0.00    +0.000 A 
DOCKED: ATOM     19  C   UNL     1      40.059  16.123 122.497 -0.28 -0.00    +0.000 A 
DOCKED: ATOM     20  C   UNL     1      40.934  15.067 122.805 -0.40 -0.00    +0.000 A 
DOCKED: ATOM     21  C   UNL     1      42.304  15.180 122.553 -0.39 -0.00    +0.000 A 
DOCKED: ATOM     22  CM  UNL     1      41.447  16.235 122.236 +0.00 -0.00    +0.000 AC
DOCKED: BRANCH  16  23
DOCKED: ATOM     23  C   UNL     1      45.154  17.096 122.706 -0.34 -0.00    +0.000 C 
DOCKED: ATOM     24  N   UNL     1      44.265  16.469 121.721 -0.28 -0.00    +0.000 N 
DOCKED: ATOM     25  C   UNL     1      44.838  15.966 120.467 -0.29 +0.00    +0.000 C 
DOCKED: ENDBRANCH  16  23
DOCKED: ENDBRANCH  14  19
DOCKED: ENDBRANCH   1  14
DOCKED: TORSDOF 7DOCKED: TER
DOCKED: ENDMDL
________________________________________________________________________________


	BEGINNING GENETIC ALGORITHM DOCKING 40 of 100
Run: 40 Seed: 12331307 1516053026 [ Run 40 of 100 GA/GALS ]
Beginning LAMARCKIAN GENETIC ALGORITHM (LGA), with a maximum of 2500000 energy evaluations.

Final-Value: -14.083


	FINAL GENETIC ALGORITHM DOCKED STATE
	_______________________________________________


Detailed state:  trans 36.685 14.655 121.622 quatxyzw -0.505256 0.483746 -0.480859 -0.528660 center 1.179 0.138 -0.353 ntor 7 21.4716 -87.6298 179.1294 -64.6097 59.2218 -15.2265 -165.5561
State:	 36.685  14.655 121.622  -0.595  0.570 -0.566 -116.170     21.47  -87.63  179.13  -64.61   59.22  -15.23 -165.56

DOCKED: MODEL       40
DOCKED: USER    Run = 40
DOCKED: USER    DPF = ligand_dock.biased.dpf
DOCKED: USER  
DOCKED: USER    Estimated Free Energy of Binding    =  -10.23 kcal/mol  [=(1)+(2)+(3)-(4)]
DOCKED: USER    Estimated Inhibition Constant, Ki   =   31.46 nM (nanomolar)  [Temperature = 298.15 K]
DOCKED: USER    
DOCKED: USER    (1) Final Intermolecular Energy     =  -12.32 kcal/mol
DOCKED: USER        vdW + Hbond + desolv Energy     =  -12.32 kcal/mol
DOCKED: USER        Electrostatic Energy            =   +0.00 kcal/mol
DOCKED: USER    (2) Final Total Internal Energy     =   -1.76 kcal/mol
DOCKED: USER    (3) Torsional Free Energy           =   +2.09 kcal/mol
DOCKED: USER    (4) Unbound System's Energy  [=(2)] =   -1.76 kcal/mol
DOCKED: USER    
DOCKED: USER    
DOCKED: USER    NEWDPF move ligand.dum.pdbqt
DOCKED: USER    NEWDPF about 1.179000 0.138000 -0.353000
DOCKED: USER    NEWDPF tran0 36.685037 14.654944 121.621684
DOCKED: USER    NEWDPF quaternion0 -0.505256 0.483746 -0.480859 -0.528660
DOCKED: USER    NEWDPF axisangle0 -0.595236 0.569895 -0.566493 -116.170134
DOCKED: USER    NEWDPF quat0 -0.595236 0.569895 -0.566493 -116.170134
DOCKED: USER    NEWDPF dihe0 21.47 -87.63 179.13 -64.61 59.22 -15.23 -165.56 
DOCKED: USER  keepresnum = 1 
DOCKED: USER  
DOCKED: REMARK  Name = 
DOCKED: REMARK  11 active torsions:
DOCKED: REMARK  status: ('A' for Active; 'I' for Inactive)
DOCKED: REMARK    1  A    between atoms: C_1  and  N_2
DOCKED: REMARK    2  A    between atoms: N_2  and  C_3
DOCKED: REMARK    3  A    between atoms: N_2  and  C_22
DOCKED: REMARK    4  A    between atoms: C_6  and  C_9
DOCKED: REMARK    5  A    between atoms: C_9  and  C_10
DOCKED: REMARK    6  A    between atoms: C_10  and  C_11
DOCKED: REMARK    7  A    between atoms: C_10  and  C_20
DOCKED: REMARK    8  A    between atoms: C_12  and  C_13
DOCKED: REMARK    9  A    between atoms: C_12  and  C_19
DOCKED: REMARK   10  A    between atoms: C_14  and  C_15
DOCKED: REMARK   11  A    between atoms: N_16  and  O_17
DOCKED: REMARK                            x       y       z     vdW  Elec       q    Type
DOCKED: REMARK                         _______ _______ _______ _____ _____    ______ ____
DOCKED: USER                              x       y       z     vdW  Elec       q    Type
DOCKED: USER                           _______ _______ _______ _____ _____    ______ ____
DOCKED: ROOT
DOCKED: ATOM      1  C   UNL     1      38.489  15.047 122.146 -0.37 -0.00    +0.000 C 
DOCKED: ATOM      2  C   UNL     1      39.999  15.168 122.375 -0.42 -0.00    +0.000 C 
DOCKED: ENDROOT
DOCKED: BRANCH   1   3
DOCKED: ATOM      3  C   UNL     1      38.112  13.610 121.850 -0.45 -0.00    +0.000 C 
DOCKED: ATOM      4  C   UNL     1      36.969  13.021 122.257 -0.53 -0.00    +0.000 C 
DOCKED: ATOM      5  C   UNL     1      35.942  13.764 123.085 -0.45 -0.00    +0.000 C 
DOCKED: BRANCH   4   6
DOCKED: ATOM      6  C   UNL     1      36.769  11.586 121.925 -0.60 -0.00    +0.000 C 
DOCKED: ATOM      7  C   UNL     1      37.127  10.587 122.745 -0.49 -0.00    +0.000 C 
DOCKED: BRANCH   7   8
DOCKED: ATOM      8  C   UNL     1      36.932   9.159 122.419 -0.68 -0.00    +0.000 C 
DOCKED: ATOM      9  N   UNL     1      36.978   8.131 123.417 -0.73 -0.00    +0.000 N 
DOCKED: ATOM     10  O   UNL     1      36.693   8.844 121.223 -2.60 -0.00    +0.000 OA
DOCKED: ATOM     11  H   UNL     1      37.061   8.374 124.368 -0.43 -0.00    +0.000 HD
DOCKED: BRANCH   9  12
DOCKED: ATOM     12  O   UNL     1      36.905   6.829 123.056 -1.60 -0.00    +0.000 OA
DOCKED: ATOM     13  H   UNL     1      37.164   6.735 122.126 -0.27 -0.00    +0.000 HD
DOCKED: ENDBRANCH   9  12
DOCKED: ENDBRANCH   7   8
DOCKED: ENDBRANCH   4   6
DOCKED: ENDBRANCH   1   3
DOCKED: BRANCH   1  14
DOCKED: ATOM     14  C   UNL     1      38.076  15.951 121.004 -0.20 -0.00    +0.000 C 
DOCKED: ATOM     15  O   UNL     1      37.797  17.156 121.254 -0.12 -0.00    +0.000 OA
DOCKED: BRANCH  14  19
DOCKED: ATOM     16  C   UNL     1      37.818  14.549 116.920 -0.25 -0.00    +0.000 A 
DOCKED: ATOM     17  C   UNL     1      38.960  15.230 117.390 -0.16 -0.00    +0.000 A 
DOCKED: ATOM     18  C   UNL     1      39.032  15.682 118.709 -0.14 -0.00    +0.000 A 
DOCKED: ATOM     19  C   UNL     1      37.972  15.463 119.604 -0.18 -0.00    +0.000 A 
DOCKED: ATOM     20  C   UNL     1      36.828  14.792 119.140 -0.23 -0.00    +0.000 A 
DOCKED: ATOM     21  C   UNL     1      36.752  14.341 117.818 -0.31 -0.00    +0.000 A 
DOCKED: ATOM     22  CM  UNL     1      37.894  15.010 118.264 +0.00 -0.00    +0.000 AC
DOCKED: BRANCH  16  23
DOCKED: ATOM     23  C   UNL     1      38.548  12.935 115.106 -0.53 -0.00    +0.000 C 
DOCKED: ATOM     24  N   UNL     1      37.741  14.079 115.549 -0.32 -0.00    +0.000 N 
DOCKED: ATOM     25  C   UNL     1      36.857  14.740 114.581 -0.23 -0.00    +0.000 C 
DOCKED: ENDBRANCH  16  23
DOCKED: ENDBRANCH  14  19
DOCKED: ENDBRANCH   1  14
DOCKED: TORSDOF 7DOCKED: TER
DOCKED: ENDMDL
________________________________________________________________________________


	BEGINNING GENETIC ALGORITHM DOCKING 41 of 100
Run: 41 Seed: 2060736522 1512236398 [ Run 41 of 100 GA/GALS ]
Beginning LAMARCKIAN GENETIC ALGORITHM (LGA), with a maximum of 2500000 energy evaluations.

Final-Value: -15.246


	FINAL GENETIC ALGORITHM DOCKED STATE
	_______________________________________________


Detailed state:  trans 35.728 14.441 121.713 quatxyzw -0.631716 0.371920 -0.472474 -0.489264 center 1.179 0.138 -0.353 ntor 7 9.5374 -15.0993 -19.0722 173.5845 36.4616 -39.7263 170.7879
State:	 35.728  14.441 121.713  -0.724  0.426 -0.542 -121.416      9.54  -15.10  -19.07  173.58   36.46  -39.73  170.79

DOCKED: MODEL       41
DOCKED: USER    Run = 41
DOCKED: USER    DPF = ligand_dock.biased.dpf
DOCKED: USER  
DOCKED: USER    Estimated Free Energy of Binding    =  -11.37 kcal/mol  [=(1)+(2)+(3)-(4)]
DOCKED: USER    Estimated Inhibition Constant, Ki   =    4.60 nM (nanomolar)  [Temperature = 298.15 K]
DOCKED: USER    
DOCKED: USER    (1) Final Intermolecular Energy     =  -13.46 kcal/mol
DOCKED: USER        vdW + Hbond + desolv Energy     =  -13.46 kcal/mol
DOCKED: USER        Electrostatic Energy            =   +0.00 kcal/mol
DOCKED: USER    (2) Final Total Internal Energy     =   -1.78 kcal/mol
DOCKED: USER    (3) Torsional Free Energy           =   +2.09 kcal/mol
DOCKED: USER    (4) Unbound System's Energy  [=(2)] =   -1.78 kcal/mol
DOCKED: USER    
DOCKED: USER    
DOCKED: USER    NEWDPF move ligand.dum.pdbqt
DOCKED: USER    NEWDPF about 1.179000 0.138000 -0.353000
DOCKED: USER    NEWDPF tran0 35.728289 14.440609 121.712856
DOCKED: USER    NEWDPF quaternion0 -0.631716 0.371920 -0.472474 -0.489264
DOCKED: USER    NEWDPF axisangle0 -0.724333 0.426447 -0.541743 -121.415626
DOCKED: USER    NEWDPF quat0 -0.724333 0.426447 -0.541743 -121.415626
DOCKED: USER    NEWDPF dihe0 9.54 -15.10 -19.07 173.58 36.46 -39.73 170.79 
DOCKED: USER  keepresnum = 1 
DOCKED: USER  
DOCKED: REMARK  Name = 
DOCKED: REMARK  11 active torsions:
DOCKED: REMARK  status: ('A' for Active; 'I' for Inactive)
DOCKED: REMARK    1  A    between atoms: C_1  and  N_2
DOCKED: REMARK    2  A    between atoms: N_2  and  C_3
DOCKED: REMARK    3  A    between atoms: N_2  and  C_22
DOCKED: REMARK    4  A    between atoms: C_6  and  C_9
DOCKED: REMARK    5  A    between atoms: C_9  and  C_10
DOCKED: REMARK    6  A    between atoms: C_10  and  C_11
DOCKED: REMARK    7  A    between atoms: C_10  and  C_20
DOCKED: REMARK    8  A    between atoms: C_12  and  C_13
DOCKED: REMARK    9  A    between atoms: C_12  and  C_19
DOCKED: REMARK   10  A    between atoms: C_14  and  C_15
DOCKED: REMARK   11  A    between atoms: N_16  and  O_17
DOCKED: REMARK                            x       y       z     vdW  Elec       q    Type
DOCKED: REMARK                         _______ _______ _______ _____ _____    ______ ____
DOCKED: USER                              x       y       z     vdW  Elec       q    Type
DOCKED: USER                           _______ _______ _______ _____ _____    ______ ____
DOCKED: ROOT
DOCKED: ATOM      1  C   UNL     1      37.421  15.308 121.974 -0.32 -0.00    +0.000 C 
DOCKED: ATOM      2  C   UNL     1      38.876  15.780 122.045 -0.29 -0.00    +0.000 C 
DOCKED: ENDROOT
DOCKED: BRANCH   1   3
DOCKED: ATOM      3  C   UNL     1      37.347  13.800 122.097 -0.47 -0.00    +0.000 C 
DOCKED: ATOM      4  C   UNL     1      36.688  13.145 123.074 -0.60 -0.00    +0.000 C 
DOCKED: ATOM      5  C   UNL     1      35.956  13.883 124.174 -0.46 -0.00    +0.000 C 
DOCKED: BRANCH   4   6
DOCKED: ATOM      6  C   UNL     1      36.752  11.660 123.082 -0.69 -0.00    +0.000 C 
DOCKED: ATOM      7  C   UNL     1      36.893  10.927 121.967 -0.58 -0.00    +0.000 C 
DOCKED: BRANCH   7   8
DOCKED: ATOM      8  C   UNL     1      36.957   9.450 121.968 -0.65 -0.00    +0.000 C 
DOCKED: ATOM      9  N   UNL     1      36.894   8.679 123.175 -0.68 -0.00    +0.000 N 
DOCKED: ATOM     10  O   UNL     1      37.046   8.854 120.861 -2.71 -0.00    +0.000 OA
DOCKED: ATOM     11  H   UNL     1      36.721   9.128 124.034 -0.46 -0.00    +0.000 HD
DOCKED: BRANCH   9  12
DOCKED: ATOM     12  O   UNL     1      37.069   7.338 123.135 -2.15 -0.00    +0.000 OA
DOCKED: ATOM     13  H   UNL     1      37.374   7.077 122.253 -0.19 -0.00    +0.000 HD
DOCKED: ENDBRANCH   9  12
DOCKED: ENDBRANCH   7   8
DOCKED: ENDBRANCH   4   6
DOCKED: ENDBRANCH   1   3
DOCKED: BRANCH   1  14
DOCKED: ATOM     14  C   UNL     1      36.803  15.765 120.669 -0.19 -0.00    +0.000 C 
DOCKED: ATOM     15  O   UNL     1      35.914  16.661 120.699 -0.23 -0.00    +0.000 OA
DOCKED: BRANCH  14  19
DOCKED: ATOM     16  C   UNL     1      37.956  14.113 116.842 -0.30 -0.00    +0.000 A 
DOCKED: ATOM     17  C   UNL     1      38.098  15.488 117.119 -0.15 -0.00    +0.000 A 
DOCKED: ATOM     18  C   UNL     1      37.720  16.013 118.357 -0.13 -0.00    +0.000 A 
DOCKED: ATOM     19  C   UNL     1      37.195  15.182 119.359 -0.21 -0.00    +0.000 A 
DOCKED: ATOM     20  C   UNL     1      37.041  13.811 119.086 -0.35 -0.00    +0.000 A 
DOCKED: ATOM     21  C   UNL     1      37.417  13.285 117.847 -0.36 -0.00    +0.000 A 
DOCKED: ATOM     22  CM  UNL     1      37.571  14.649 118.102 +0.00 -0.00    +0.000 AC
DOCKED: BRANCH  16  23
DOCKED: ATOM     23  C   UNL     1      38.939  12.226 115.463 -0.56 -0.00    +0.000 C 
DOCKED: ATOM     24  N   UNL     1      38.348  13.567 115.555 -0.43 -0.00    +0.000 N 
DOCKED: ATOM     25  C   UNL     1      38.163  14.345 114.325 -0.30 -0.00    +0.000 C 
DOCKED: ENDBRANCH  16  23
DOCKED: ENDBRANCH  14  19
DOCKED: ENDBRANCH   1  14
DOCKED: TORSDOF 7DOCKED: TER
DOCKED: ENDMDL
________________________________________________________________________________


	BEGINNING GENETIC ALGORITHM DOCKING 42 of 100
Run: 42 Seed: 253305999 1076275404 [ Run 42 of 100 GA/GALS ]
Beginning LAMARCKIAN GENETIC ALGORITHM (LGA), with a maximum of 2500000 energy evaluations.

Final-Value: -14.842


	FINAL GENETIC ALGORITHM DOCKED STATE
	_______________________________________________


Detailed state:  trans 36.838 14.432 120.881 quatxyzw -0.448350 0.155483 -0.681599 -0.556983 center 1.179 0.138 -0.353 ntor 7 19.7510 -57.3209 -36.9053 151.3435 -89.9306 -53.9053 -82.0608
State:	 36.838  14.432 120.881  -0.540  0.187 -0.821 -112.305     19.75  -57.32  -36.91  151.34  -89.93  -53.91  -82.06

DOCKED: MODEL       42
DOCKED: USER    Run = 42
DOCKED: USER    DPF = ligand_dock.biased.dpf
DOCKED: USER  
DOCKED: USER    Estimated Free Energy of Binding    =  -10.97 kcal/mol  [=(1)+(2)+(3)-(4)]
DOCKED: USER    Estimated Inhibition Constant, Ki   =    9.03 nM (nanomolar)  [Temperature = 298.15 K]
DOCKED: USER    
DOCKED: USER    (1) Final Intermolecular Energy     =  -13.06 kcal/mol
DOCKED: USER        vdW + Hbond + desolv Energy     =  -13.06 kcal/mol
DOCKED: USER        Electrostatic Energy            =   +0.00 kcal/mol
DOCKED: USER    (2) Final Total Internal Energy     =   -1.78 kcal/mol
DOCKED: USER    (3) Torsional Free Energy           =   +2.09 kcal/mol
DOCKED: USER    (4) Unbound System's Energy  [=(2)] =   -1.78 kcal/mol
DOCKED: USER    
DOCKED: USER    
DOCKED: USER    NEWDPF move ligand.dum.pdbqt
DOCKED: USER    NEWDPF about 1.179000 0.138000 -0.353000
DOCKED: USER    NEWDPF tran0 36.837717 14.432288 120.880842
DOCKED: USER    NEWDPF quaternion0 -0.448350 0.155483 -0.681599 -0.556983
DOCKED: USER    NEWDPF axisangle0 -0.539840 0.187211 -0.820686 -112.305191
DOCKED: USER    NEWDPF quat0 -0.539840 0.187211 -0.820686 -112.305191
DOCKED: USER    NEWDPF dihe0 19.75 -57.32 -36.91 151.34 -89.93 -53.91 -82.06 
DOCKED: USER  keepresnum = 1 
DOCKED: USER  
DOCKED: REMARK  Name = 
DOCKED: REMARK  11 active torsions:
DOCKED: REMARK  status: ('A' for Active; 'I' for Inactive)
DOCKED: REMARK    1  A    between atoms: C_1  and  N_2
DOCKED: REMARK    2  A    between atoms: N_2  and  C_3
DOCKED: REMARK    3  A    between atoms: N_2  and  C_22
DOCKED: REMARK    4  A    between atoms: C_6  and  C_9
DOCKED: REMARK    5  A    between atoms: C_9  and  C_10
DOCKED: REMARK    6  A    between atoms: C_10  and  C_11
DOCKED: REMARK    7  A    between atoms: C_10  and  C_20
DOCKED: REMARK    8  A    between atoms: C_12  and  C_13
DOCKED: REMARK    9  A    between atoms: C_12  and  C_19
DOCKED: REMARK   10  A    between atoms: C_14  and  C_15
DOCKED: REMARK   11  A    between atoms: N_16  and  O_17
DOCKED: REMARK                            x       y       z     vdW  Elec       q    Type
DOCKED: REMARK                         _______ _______ _______ _____ _____    ______ ____
DOCKED: USER                              x       y       z     vdW  Elec       q    Type
DOCKED: USER                           _______ _______ _______ _____ _____    ______ ____
DOCKED: ROOT
DOCKED: ATOM      1  C   UNL     1      37.977  15.370 122.109 -0.33 -0.00    +0.000 C 
DOCKED: ATOM      2  C   UNL     1      39.046  15.890 123.074 -0.26 -0.00    +0.000 C 
DOCKED: ENDROOT
DOCKED: BRANCH   1   3
DOCKED: ATOM      3  C   UNL     1      37.786  13.878 122.285 -0.48 -0.00    +0.000 C 
DOCKED: ATOM      4  C   UNL     1      36.726  13.311 122.899 -0.57 -0.00    +0.000 C 
DOCKED: ATOM      5  C   UNL     1      35.612  14.143 123.496 -0.51 -0.00    +0.000 C 
DOCKED: BRANCH   4   6
DOCKED: ATOM      6  C   UNL     1      36.711  11.830 123.033 -0.68 -0.00    +0.000 C 
DOCKED: ATOM      7  C   UNL     1      36.902  10.998 121.999 -0.58 -0.00    +0.000 C 
DOCKED: BRANCH   7   8
DOCKED: ATOM      8  C   UNL     1      36.887   9.526 122.126 -0.66 -0.00    +0.000 C 
DOCKED: ATOM      9  N   UNL     1      37.062   8.862 123.384 -0.62 -0.00    +0.000 N 
DOCKED: ATOM     10  O   UNL     1      36.689   8.837 121.089 -2.61 -0.00    +0.000 OA
DOCKED: ATOM     11  H   UNL     1      37.114   9.390 124.214 -0.58 -0.00    +0.000 HD
DOCKED: BRANCH   9  12
DOCKED: ATOM     12  O   UNL     1      37.153   7.513 123.435 -2.16 -0.00    +0.000 OA
DOCKED: ATOM     13  H   UNL     1      37.395   7.171 122.560 -0.20 -0.00    +0.000 HD
DOCKED: ENDBRANCH   9  12
DOCKED: ENDBRANCH   7   8
DOCKED: ENDBRANCH   4   6
DOCKED: ENDBRANCH   1   3
DOCKED: BRANCH   1  14
DOCKED: ATOM     14  C   UNL     1      38.381  15.688 120.685 -0.22 -0.00    +0.000 C 
DOCKED: ATOM     15  O   UNL     1      39.437  16.352 120.488 -0.15 -0.00    +0.000 OA
DOCKED: BRANCH  14  19
DOCKED: ATOM     16  C   UNL     1      36.005  14.498 117.273 -0.30 -0.00    +0.000 A 
DOCKED: ATOM     17  C   UNL     1      36.154  15.855 117.624 -0.16 -0.00    +0.000 A 
DOCKED: ATOM     18  C   UNL     1      36.921  16.229 118.729 -0.14 -0.00    +0.000 A 
DOCKED: ATOM     19  C   UNL     1      37.568  15.263 119.516 -0.20 -0.00    +0.000 A 
DOCKED: ATOM     20  C   UNL     1      37.416  13.907 119.177 -0.34 -0.00    +0.000 A 
DOCKED: ATOM     21  C   UNL     1      36.647  13.530 118.072 -0.35 -0.00    +0.000 A 
DOCKED: ATOM     22  CM  UNL     1      36.784  14.881 118.399 +0.00 -0.00    +0.000 AC
DOCKED: BRANCH  16  23
DOCKED: ATOM     23  C   UNL     1      35.854  13.724 114.863 -0.29 -0.00    +0.000 C 
DOCKED: ATOM     24  N   UNL     1      35.207  14.107 116.125 -0.30 -0.00    +0.000 N 
DOCKED: ATOM     25  C   UNL     1      33.742  14.090 116.204 -0.36 -0.00    +0.000 C 
DOCKED: ENDBRANCH  16  23
DOCKED: ENDBRANCH  14  19
DOCKED: ENDBRANCH   1  14
DOCKED: TORSDOF 7DOCKED: TER
DOCKED: ENDMDL
________________________________________________________________________________


	BEGINNING GENETIC ALGORITHM DOCKING 43 of 100
Run: 43 Seed: 732961155 1785796628 [ Run 43 of 100 GA/GALS ]
Beginning LAMARCKIAN GENETIC ALGORITHM (LGA), with a maximum of 2500000 energy evaluations.

Final-Value: -14.438


	FINAL GENETIC ALGORITHM DOCKED STATE
	_______________________________________________


Detailed state:  trans 36.621 14.791 122.516 quatxyzw -0.716989 0.636322 -0.023350 -0.283683 center 1.179 0.138 -0.353 ntor 7 8.0359 92.5278 159.4210 6.4765 -145.9639 7.7506 -37.6675
State:	 36.621  14.791 122.516  -0.748  0.664 -0.024 -147.040      8.04   92.53  159.42    6.48 -145.96    7.75  -37.67

DOCKED: MODEL       43
DOCKED: USER    Run = 43
DOCKED: USER    DPF = ligand_dock.biased.dpf
DOCKED: USER  
DOCKED: USER    Estimated Free Energy of Binding    =  -10.62 kcal/mol  [=(1)+(2)+(3)-(4)]
DOCKED: USER    Estimated Inhibition Constant, Ki   =   16.29 nM (nanomolar)  [Temperature = 298.15 K]
DOCKED: USER    
DOCKED: USER    (1) Final Intermolecular Energy     =  -12.71 kcal/mol
DOCKED: USER        vdW + Hbond + desolv Energy     =  -12.71 kcal/mol
DOCKED: USER        Electrostatic Energy            =   +0.00 kcal/mol
DOCKED: USER    (2) Final Total Internal Energy     =   -1.73 kcal/mol
DOCKED: USER    (3) Torsional Free Energy           =   +2.09 kcal/mol
DOCKED: USER    (4) Unbound System's Energy  [=(2)] =   -1.73 kcal/mol
DOCKED: USER    
DOCKED: USER    
DOCKED: USER    NEWDPF move ligand.dum.pdbqt
DOCKED: USER    NEWDPF about 1.179000 0.138000 -0.353000
DOCKED: USER    NEWDPF tran0 36.621184 14.791300 122.515824
DOCKED: USER    NEWDPF quaternion0 -0.716989 0.636322 -0.023350 -0.283683
DOCKED: USER    NEWDPF axisangle0 -0.747707 0.663583 -0.024351 -147.039730
DOCKED: USER    NEWDPF quat0 -0.747707 0.663583 -0.024351 -147.039730
DOCKED: USER    NEWDPF dihe0 8.04 92.53 159.42 6.48 -145.96 7.75 -37.67 
DOCKED: USER  keepresnum = 1 
DOCKED: USER  
DOCKED: REMARK  Name = 
DOCKED: REMARK  11 active torsions:
DOCKED: REMARK  status: ('A' for Active; 'I' for Inactive)
DOCKED: REMARK    1  A    between atoms: C_1  and  N_2
DOCKED: REMARK    2  A    between atoms: N_2  and  C_3
DOCKED: REMARK    3  A    between atoms: N_2  and  C_22
DOCKED: REMARK    4  A    between atoms: C_6  and  C_9
DOCKED: REMARK    5  A    between atoms: C_9  and  C_10
DOCKED: REMARK    6  A    between atoms: C_10  and  C_11
DOCKED: REMARK    7  A    between atoms: C_10  and  C_20
DOCKED: REMARK    8  A    between atoms: C_12  and  C_13
DOCKED: REMARK    9  A    between atoms: C_12  and  C_19
DOCKED: REMARK   10  A    between atoms: C_14  and  C_15
DOCKED: REMARK   11  A    between atoms: N_16  and  O_17
DOCKED: REMARK                            x       y       z     vdW  Elec       q    Type
DOCKED: REMARK                         _______ _______ _______ _____ _____    ______ ____
DOCKED: USER                              x       y       z     vdW  Elec       q    Type
DOCKED: USER                           _______ _______ _______ _____ _____    ______ ____
DOCKED: ROOT
DOCKED: ATOM      1  C   UNL     1      37.723  15.757 121.276 -0.23 -0.00    +0.000 C 
DOCKED: ATOM      2  C   UNL     1      38.495  16.355 120.095 -0.14 -0.00    +0.000 C 
DOCKED: ENDROOT
DOCKED: BRANCH   1   3
DOCKED: ATOM      3  C   UNL     1      37.576  14.259 121.107 -0.37 -0.00    +0.000 C 
DOCKED: ATOM      4  C   UNL     1      37.170  13.417 122.080 -0.49 -0.00    +0.000 C 
DOCKED: ATOM      5  C   UNL     1      36.833  13.911 123.471 -0.53 -0.00    +0.000 C 
DOCKED: BRANCH   4   6
DOCKED: ATOM      6  C   UNL     1      37.124  11.964 121.768 -0.55 -0.00    +0.000 C 
DOCKED: ATOM      7  C   UNL     1      37.058  11.014 122.712 -0.60 -0.00    +0.000 C 
DOCKED: BRANCH   7   8
DOCKED: ATOM      8  C   UNL     1      37.012   9.568 122.409 -0.62 -0.00    +0.000 C 
DOCKED: ATOM      9  N   UNL     1      36.996   8.568 123.435 -0.66 -0.00    +0.000 N 
DOCKED: ATOM     10  O   UNL     1      36.962   9.211 121.201 -2.71 -0.00    +0.000 OA
DOCKED: ATOM     11  H   UNL     1      36.931   8.837 124.380 -0.48 -0.00    +0.000 HD
DOCKED: BRANCH   9  12
DOCKED: ATOM     12  O   UNL     1      37.067   7.256 123.109 -2.07 -0.00    +0.000 OA
DOCKED: ATOM     13  H   UNL     1      37.253   7.168 122.161 -0.14 -0.00    +0.000 HD
DOCKED: ENDBRANCH   9  12
DOCKED: ENDBRANCH   7   8
DOCKED: ENDBRANCH   4   6
DOCKED: ENDBRANCH   1   3
DOCKED: BRANCH   1  14
DOCKED: ATOM     14  C   UNL     1      36.364  16.416 121.379 -0.22 -0.00    +0.000 C 
DOCKED: ATOM     15  O   UNL     1      35.719  16.646 120.318 -0.20 -0.00    +0.000 OA
DOCKED: BRANCH  14  19
DOCKED: ATOM     16  C   UNL     1      34.687  17.610 125.182 -0.34 -0.00    +0.000 A 
DOCKED: ATOM     17  C   UNL     1      35.944  18.084 124.755 -0.23 -0.00    +0.000 A 
DOCKED: ATOM     18  C   UNL     1      36.479  17.690 123.526 -0.21 -0.00    +0.000 A 
DOCKED: ATOM     19  C   UNL     1      35.774  16.817 122.683 -0.28 -0.00    +0.000 A 
DOCKED: ATOM     20  C   UNL     1      34.525  16.332 123.107 -0.39 -0.00    +0.000 A 
DOCKED: ATOM     21  C   UNL     1      33.989  16.724 124.337 -0.30 -0.00    +0.000 A 
DOCKED: ATOM     22  CM  UNL     1      35.234  17.209 123.932 -0.16 -0.00    +0.000 AC
DOCKED: BRANCH  16  23
DOCKED: ATOM     23  C   UNL     1      34.065  17.073 127.581 -0.23 -0.00    +0.000 C 
DOCKED: ATOM     24  N   UNL     1      34.131  18.018 126.459 -0.30 -0.00    +0.000 N 
DOCKED: ATOM     25  C   UNL     1      33.622  19.382 126.651 -0.24 -0.00    +0.000 C 
DOCKED: ENDBRANCH  16  23
DOCKED: ENDBRANCH  14  19
DOCKED: ENDBRANCH   1  14
DOCKED: TORSDOF 7DOCKED: TER
DOCKED: ENDMDL
________________________________________________________________________________


	BEGINNING GENETIC ALGORITHM DOCKING 44 of 100
Run: 44 Seed: 421146047 227394684 [ Run 44 of 100 GA/GALS ]
Beginning LAMARCKIAN GENETIC ALGORITHM (LGA), with a maximum of 2500000 energy evaluations.

Final-Value: -14.796


	FINAL GENETIC ALGORITHM DOCKED STATE
	_______________________________________________


Detailed state:  trans 36.814 14.485 120.476 quatxyzw 0.302789 -0.041363 0.738030 0.601597 center 1.179 0.138 -0.353 ntor 7 6.3251 83.3998 -49.4349 -163.7860 164.0327 -97.0397 -91.6101
State:	 36.814  14.485 120.476   0.379 -0.052  0.924 106.031      6.33   83.40  -49.43 -163.79  164.03  -97.04  -91.61

DOCKED: MODEL       44
DOCKED: USER    Run = 44
DOCKED: USER    DPF = ligand_dock.biased.dpf
DOCKED: USER  
DOCKED: USER    Estimated Free Energy of Binding    =  -11.16 kcal/mol  [=(1)+(2)+(3)-(4)]
DOCKED: USER    Estimated Inhibition Constant, Ki   =    6.55 nM (nanomolar)  [Temperature = 298.15 K]
DOCKED: USER    
DOCKED: USER    (1) Final Intermolecular Energy     =  -13.25 kcal/mol
DOCKED: USER        vdW + Hbond + desolv Energy     =  -13.25 kcal/mol
DOCKED: USER        Electrostatic Energy            =   +0.00 kcal/mol
DOCKED: USER    (2) Final Total Internal Energy     =   -1.54 kcal/mol
DOCKED: USER    (3) Torsional Free Energy           =   +2.09 kcal/mol
DOCKED: USER    (4) Unbound System's Energy  [=(2)] =   -1.54 kcal/mol
DOCKED: USER    
DOCKED: USER    
DOCKED: USER    NEWDPF move ligand.dum.pdbqt
DOCKED: USER    NEWDPF about 1.179000 0.138000 -0.353000
DOCKED: USER    NEWDPF tran0 36.813557 14.484514 120.475543
DOCKED: USER    NEWDPF quaternion0 0.302789 -0.041363 0.738030 0.601597
DOCKED: USER    NEWDPF axisangle0 0.379055 -0.051781 0.923924 106.031282
DOCKED: USER    NEWDPF quat0 0.379055 -0.051781 0.923924 106.031282
DOCKED: USER    NEWDPF dihe0 6.33 83.40 -49.43 -163.79 164.03 -97.04 -91.61 
DOCKED: USER  keepresnum = 1 
DOCKED: USER  
DOCKED: REMARK  Name = 
DOCKED: REMARK  11 active torsions:
DOCKED: REMARK  status: ('A' for Active; 'I' for Inactive)
DOCKED: REMARK    1  A    between atoms: C_1  and  N_2
DOCKED: REMARK    2  A    between atoms: N_2  and  C_3
DOCKED: REMARK    3  A    between atoms: N_2  and  C_22
DOCKED: REMARK    4  A    between atoms: C_6  and  C_9
DOCKED: REMARK    5  A    between atoms: C_9  and  C_10
DOCKED: REMARK    6  A    between atoms: C_10  and  C_11
DOCKED: REMARK    7  A    between atoms: C_10  and  C_20
DOCKED: REMARK    8  A    between atoms: C_12  and  C_13
DOCKED: REMARK    9  A    between atoms: C_12  and  C_19
DOCKED: REMARK   10  A    between atoms: C_14  and  C_15
DOCKED: REMARK   11  A    between atoms: N_16  and  O_17
DOCKED: REMARK                            x       y       z     vdW  Elec       q    Type
DOCKED: REMARK                         _______ _______ _______ _____ _____    ______ ____
DOCKED: USER                              x       y       z     vdW  Elec       q    Type
DOCKED: USER                           _______ _______ _______ _____ _____    ______ ____
DOCKED: ROOT
DOCKED: ATOM      1  C   UNL     1      37.340  15.427 122.063 -0.31 -0.00    +0.000 C 
DOCKED: ATOM      2  C   UNL     1      37.927  15.960 123.373 -0.30 -0.00    +0.000 C 
DOCKED: ENDROOT
DOCKED: BRANCH   1   3
DOCKED: ATOM      3  C   UNL     1      37.185  13.922 122.126 -0.45 -0.00    +0.000 C 
DOCKED: ATOM      4  C   UNL     1      36.389  13.272 123.000 -0.57 -0.00    +0.000 C 
DOCKED: ATOM      5  C   UNL     1      35.569  14.013 124.034 -0.49 -0.00    +0.000 C 
DOCKED: BRANCH   4   6
DOCKED: ATOM      6  C   UNL     1      36.385  11.786 122.964 -0.68 -0.00    +0.000 C 
DOCKED: ATOM      7  C   UNL     1      37.024  11.073 122.025 -0.56 -0.00    +0.000 C 
DOCKED: BRANCH   7   8
DOCKED: ATOM      8  C   UNL     1      37.024   9.596 121.984 -0.61 -0.00    +0.000 C 
DOCKED: ATOM      9  N   UNL     1      36.951   8.795 123.170 -0.67 -0.00    +0.000 N 
DOCKED: ATOM     10  O   UNL     1      37.065   9.028 120.860 -2.73 -0.00    +0.000 OA
DOCKED: ATOM     11  H   UNL     1      36.815   9.226 124.045 -0.49 -0.00    +0.000 HD
DOCKED: BRANCH   9  12
DOCKED: ATOM     12  O   UNL     1      37.066   7.449 123.091 -2.22 -0.00    +0.000 OA
DOCKED: ATOM     13  H   UNL     1      37.293   7.196 122.182 -0.14 -0.00    +0.000 HD
DOCKED: ENDBRANCH   9  12
DOCKED: ENDBRANCH   7   8
DOCKED: ENDBRANCH   4   6
DOCKED: ENDBRANCH   1   3
DOCKED: BRANCH   1  14
DOCKED: ATOM     14  C   UNL     1      38.237  15.820 120.908 -0.21 -0.00    +0.000 C 
DOCKED: ATOM     15  O   UNL     1      39.136  16.684 121.105 -0.14 -0.00    +0.000 OA
DOCKED: BRANCH  14  19
DOCKED: ATOM     16  C   UNL     1      37.745  14.102 116.970 -0.31 -0.00    +0.000 A 
DOCKED: ATOM     17  C   UNL     1      36.822  13.841 118.003 -0.36 -0.00    +0.000 A 
DOCKED: ATOM     18  C   UNL     1      36.991  14.398 119.273 -0.27 -0.00    +0.000 A 
DOCKED: ATOM     19  C   UNL     1      38.082  15.238 119.549 -0.19 -0.00    +0.000 A 
DOCKED: ATOM     20  C   UNL     1      39.011  15.495 118.527 -0.12 -0.00    +0.000 A 
DOCKED: ATOM     21  C   UNL     1      38.845  14.936 117.256 -0.14 -0.00    +0.000 A 
DOCKED: ATOM     22  CM  UNL     1      37.916  14.668 118.263 +0.00 -0.00    +0.000 AC
DOCKED: BRANCH  16  23
DOCKED: ATOM     23  C   UNL     1      38.565  12.590 115.107 -0.54 -0.00    +0.000 C 
DOCKED: ATOM     24  N   UNL     1      37.571  13.524 115.650 -0.40 -0.00    +0.000 N 
DOCKED: ATOM     25  C   UNL     1      36.399  13.864 114.834 -0.32 -0.00    +0.000 C 
DOCKED: ENDBRANCH  16  23
DOCKED: ENDBRANCH  14  19
DOCKED: ENDBRANCH   1  14
DOCKED: TORSDOF 7DOCKED: TER
DOCKED: ENDMDL
________________________________________________________________________________


	BEGINNING GENETIC ALGORITHM DOCKING 45 of 100
Run: 45 Seed: 1769391068 1248828111 [ Run 45 of 100 GA/GALS ]
Beginning LAMARCKIAN GENETIC ALGORITHM (LGA), with a maximum of 2500000 energy evaluations.

Final-Value: -14.372


	FINAL GENETIC ALGORITHM DOCKED STATE
	_______________________________________________


Detailed state:  trans 38.544 15.078 123.551 quatxyzw -0.509284 0.669682 0.469313 0.268144 center 1.179 0.138 -0.353 ntor 7 3.1812 -104.1943 -54.4840 48.3268 8.6675 -96.7822 143.7482
State:	 38.544  15.078 123.551  -0.529  0.695  0.487 148.892      3.18 -104.19  -54.48   48.33    8.67  -96.78  143.75

DOCKED: MODEL       45
DOCKED: USER    Run = 45
DOCKED: USER    DPF = ligand_dock.biased.dpf
DOCKED: USER  
DOCKED: USER    Estimated Free Energy of Binding    =  -10.78 kcal/mol  [=(1)+(2)+(3)-(4)]
DOCKED: USER    Estimated Inhibition Constant, Ki   =   12.45 nM (nanomolar)  [Temperature = 298.15 K]
DOCKED: USER    
DOCKED: USER    (1) Final Intermolecular Energy     =  -12.87 kcal/mol
DOCKED: USER        vdW + Hbond + desolv Energy     =  -12.87 kcal/mol
DOCKED: USER        Electrostatic Energy            =   +0.00 kcal/mol
DOCKED: USER    (2) Final Total Internal Energy     =   -1.50 kcal/mol
DOCKED: USER    (3) Torsional Free Energy           =   +2.09 kcal/mol
DOCKED: USER    (4) Unbound System's Energy  [=(2)] =   -1.50 kcal/mol
DOCKED: USER    
DOCKED: USER    
DOCKED: USER    NEWDPF move ligand.dum.pdbqt
DOCKED: USER    NEWDPF about 1.179000 0.138000 -0.353000
DOCKED: USER    NEWDPF tran0 38.543592 15.077923 123.550817
DOCKED: USER    NEWDPF quaternion0 -0.509284 0.669682 0.469313 0.268144
DOCKED: USER    NEWDPF axisangle0 -0.528644 0.695139 0.487153 148.892277
DOCKED: USER    NEWDPF quat0 -0.528644 0.695139 0.487153 148.892277
DOCKED: USER    NEWDPF dihe0 3.18 -104.19 -54.48 48.33 8.67 -96.78 143.75 
DOCKED: USER  keepresnum = 1 
DOCKED: USER  
DOCKED: REMARK  Name = 
DOCKED: REMARK  11 active torsions:
DOCKED: REMARK  status: ('A' for Active; 'I' for Inactive)
DOCKED: REMARK    1  A    between atoms: C_1  and  N_2
DOCKED: REMARK    2  A    between atoms: N_2  and  C_3
DOCKED: REMARK    3  A    between atoms: N_2  and  C_22
DOCKED: REMARK    4  A    between atoms: C_6  and  C_9
DOCKED: REMARK    5  A    between atoms: C_9  and  C_10
DOCKED: REMARK    6  A    between atoms: C_10  and  C_11
DOCKED: REMARK    7  A    between atoms: C_10  and  C_20
DOCKED: REMARK    8  A    between atoms: C_12  and  C_13
DOCKED: REMARK    9  A    between atoms: C_12  and  C_19
DOCKED: REMARK   10  A    between atoms: C_14  and  C_15
DOCKED: REMARK   11  A    between atoms: N_16  and  O_17
DOCKED: REMARK                            x       y       z     vdW  Elec       q    Type
DOCKED: REMARK                         _______ _______ _______ _____ _____    ______ ____
DOCKED: USER                              x       y       z     vdW  Elec       q    Type
DOCKED: USER                           _______ _______ _______ _____ _____    ______ ____
DOCKED: ROOT
DOCKED: ATOM      1  C   UNL     1      37.305  15.972 122.389 -0.29 -0.00    +0.000 C 
DOCKED: ATOM      2  C   UNL     1      36.125  16.524 121.583 -0.22 -0.00    +0.000 C 
DOCKED: ENDROOT
DOCKED: BRANCH   1   3
DOCKED: ATOM      3  C   UNL     1      37.124  14.491 122.647 -0.45 -0.00    +0.000 C 
DOCKED: ATOM      4  C   UNL     1      37.067  13.549 121.683 -0.44 -0.00    +0.000 C 
DOCKED: ATOM      5  C   UNL     1      37.166  13.905 120.215 -0.36 -0.00    +0.000 C 
DOCKED: BRANCH   4   6
DOCKED: ATOM      6  C   UNL     1      36.836  12.141 122.099 -0.59 -0.00    +0.000 C 
DOCKED: ATOM      7  C   UNL     1      37.229  11.087 121.367 -0.37 -0.00    +0.000 C 
DOCKED: BRANCH   7   8
DOCKED: ATOM      8  C   UNL     1      37.002   9.685 121.775 -0.58 -0.00    +0.000 C 
DOCKED: ATOM      9  N   UNL     1      37.076   9.261 123.142 -0.63 -0.00    +0.000 N 
DOCKED: ATOM     10  O   UNL     1      36.710   8.842 120.885 -2.62 -0.00    +0.000 OA
DOCKED: ATOM     11  H   UNL     1      37.202   9.928 123.856 -0.40 -0.00    +0.000 HD
DOCKED: BRANCH   9  12
DOCKED: ATOM     12  O   UNL     1      36.972   7.948 123.455 -2.20 -0.00    +0.000 OA
DOCKED: ATOM     13  H   UNL     1      36.903   7.426 122.640 -0.06 -0.00    +0.000 HD
DOCKED: ENDBRANCH   9  12
DOCKED: ENDBRANCH   7   8
DOCKED: ENDBRANCH   4   6
DOCKED: ENDBRANCH   1   3
DOCKED: BRANCH   1  14
DOCKED: ATOM     14  C   UNL     1      37.423  16.728 123.696 -0.26 -0.00    +0.000 C 
DOCKED: ATOM     15  O   UNL     1      38.570  17.070 124.097 -0.30 -0.00    +0.000 OA
DOCKED: BRANCH  14  19
DOCKED: ATOM     16  C   UNL     1      34.000  17.743 126.136 -0.34 -0.00    +0.000 A 
DOCKED: ATOM     17  C   UNL     1      35.138  18.573 126.091 -0.21 -0.00    +0.000 A 
DOCKED: ATOM     18  C   UNL     1      36.241  18.235 125.302 -0.19 -0.00    +0.000 A 
DOCKED: ATOM     19  C   UNL     1      36.239  17.062 124.529 -0.19 -0.00    +0.000 A 
DOCKED: ATOM     20  C   UNL     1      35.111  16.226 124.577 -0.42 -0.00    +0.000 A 
DOCKED: ATOM     21  C   UNL     1      34.007  16.562 125.367 -0.39 -0.00    +0.000 A 
DOCKED: ATOM     22  CM  UNL     1      35.123  17.400 125.334 -0.40 -0.00    +0.000 AC
DOCKED: BRANCH  16  23
DOCKED: ATOM     23  C   UNL     1      32.189  19.391 126.793 -0.28 -0.00    +0.000 C 
DOCKED: ATOM     24  N   UNL     1      32.854  18.092 126.955 -0.29 -0.00    +0.000 N 
DOCKED: ATOM     25  C   UNL     1      32.341  17.155 127.962 -0.41 -0.00    +0.000 C 
DOCKED: ENDBRANCH  16  23
DOCKED: ENDBRANCH  14  19
DOCKED: ENDBRANCH   1  14
DOCKED: TORSDOF 7DOCKED: TER
DOCKED: ENDMDL
________________________________________________________________________________


	BEGINNING GENETIC ALGORITHM DOCKING 46 of 100
Run: 46 Seed: 443238738 526916891 [ Run 46 of 100 GA/GALS ]
Beginning LAMARCKIAN GENETIC ALGORITHM (LGA), with a maximum of 2500000 energy evaluations.

Final-Value: -14.370


	FINAL GENETIC ALGORITHM DOCKED STATE
	_______________________________________________


Detailed state:  trans 35.805 14.579 120.839 quatxyzw -0.494630 0.265261 -0.498033 -0.661015 center 1.179 0.138 -0.353 ntor 7 21.7218 142.0179 123.6033 36.8735 58.5355 -60.0199 -158.4316
State:	 35.805  14.579 120.839  -0.659  0.354 -0.664 -97.245     21.72  142.02  123.60   36.87   58.54  -60.02 -158.43

DOCKED: MODEL       46
DOCKED: USER    Run = 46
DOCKED: USER    DPF = ligand_dock.biased.dpf
DOCKED: USER  
DOCKED: USER    Estimated Free Energy of Binding    =  -10.65 kcal/mol  [=(1)+(2)+(3)-(4)]
DOCKED: USER    Estimated Inhibition Constant, Ki   =   15.68 nM (nanomolar)  [Temperature = 298.15 K]
DOCKED: USER    
DOCKED: USER    (1) Final Intermolecular Energy     =  -12.74 kcal/mol
DOCKED: USER        vdW + Hbond + desolv Energy     =  -12.74 kcal/mol
DOCKED: USER        Electrostatic Energy            =   +0.00 kcal/mol
DOCKED: USER    (2) Final Total Internal Energy     =   -1.63 kcal/mol
DOCKED: USER    (3) Torsional Free Energy           =   +2.09 kcal/mol
DOCKED: USER    (4) Unbound System's Energy  [=(2)] =   -1.63 kcal/mol
DOCKED: USER    
DOCKED: USER    
DOCKED: USER    NEWDPF move ligand.dum.pdbqt
DOCKED: USER    NEWDPF about 1.179000 0.138000 -0.353000
DOCKED: USER    NEWDPF tran0 35.805333 14.578523 120.838504
DOCKED: USER    NEWDPF quaternion0 -0.494630 0.265261 -0.498033 -0.661015
DOCKED: USER    NEWDPF axisangle0 -0.659179 0.353505 -0.663715 -97.245309
DOCKED: USER    NEWDPF quat0 -0.659179 0.353505 -0.663715 -97.245309
DOCKED: USER    NEWDPF dihe0 21.72 142.02 123.60 36.87 58.54 -60.02 -158.43 
DOCKED: USER  keepresnum = 1 
DOCKED: USER  
DOCKED: REMARK  Name = 
DOCKED: REMARK  11 active torsions:
DOCKED: REMARK  status: ('A' for Active; 'I' for Inactive)
DOCKED: REMARK    1  A    between atoms: C_1  and  N_2
DOCKED: REMARK    2  A    between atoms: N_2  and  C_3
DOCKED: REMARK    3  A    between atoms: N_2  and  C_22
DOCKED: REMARK    4  A    between atoms: C_6  and  C_9
DOCKED: REMARK    5  A    between atoms: C_9  and  C_10
DOCKED: REMARK    6  A    between atoms: C_10  and  C_11
DOCKED: REMARK    7  A    between atoms: C_10  and  C_20
DOCKED: REMARK    8  A    between atoms: C_12  and  C_13
DOCKED: REMARK    9  A    between atoms: C_12  and  C_19
DOCKED: REMARK   10  A    between atoms: C_14  and  C_15
DOCKED: REMARK   11  A    between atoms: N_16  and  O_17
DOCKED: REMARK                            x       y       z     vdW  Elec       q    Type
DOCKED: REMARK                         _______ _______ _______ _____ _____    ______ ____
DOCKED: USER                              x       y       z     vdW  Elec       q    Type
DOCKED: USER                           _______ _______ _______ _____ _____    ______ ____
DOCKED: ROOT
DOCKED: ATOM      1  C   UNL     1      37.065  15.545 121.918 -0.29 -0.00    +0.000 C 
DOCKED: ATOM      2  C   UNL     1      38.261  16.153 122.657 -0.28 -0.00    +0.000 C 
DOCKED: ENDROOT
DOCKED: BRANCH   1   3
DOCKED: ATOM      3  C   UNL     1      37.271  14.058 121.711 -0.40 -0.00    +0.000 C 
DOCKED: ATOM      4  C   UNL     1      36.724  13.097 122.482 -0.54 -0.00    +0.000 C 
DOCKED: ATOM      5  C   UNL     1      35.843  13.431 123.667 -0.56 -0.00    +0.000 C 
DOCKED: BRANCH   4   6
DOCKED: ATOM      6  C   UNL     1      37.063  11.682 122.176 -0.58 -0.00    +0.000 C 
DOCKED: ATOM      7  C   UNL     1      36.390  10.640 122.685 -0.69 -0.00    +0.000 C 
DOCKED: BRANCH   7   8
DOCKED: ATOM      8  C   UNL     1      36.723   9.232 122.385 -0.72 -0.00    +0.000 C 
DOCKED: ATOM      9  N   UNL     1      36.652   8.198 123.375 -0.70 -0.00    +0.000 N 
DOCKED: ATOM     10  O   UNL     1      37.058   8.934 121.207 -2.70 -0.00    +0.000 OA
DOCKED: ATOM     11  H   UNL     1      36.293   8.400 124.270 -0.26 -0.00    +0.000 HD
DOCKED: BRANCH   9  12
DOCKED: ATOM     12  O   UNL     1      37.074   6.946 123.083 -1.76 -0.00    +0.000 OA
DOCKED: ATOM     13  H   UNL     1      37.690   6.978 122.334 -0.36 -0.00    +0.000 HD
DOCKED: ENDBRANCH   9  12
DOCKED: ENDBRANCH   7   8
DOCKED: ENDBRANCH   4   6
DOCKED: ENDBRANCH   1   3
DOCKED: BRANCH   1  14
DOCKED: ATOM     14  C   UNL     1      36.881  16.246 120.588 -0.19 -0.00    +0.000 C 
DOCKED: ATOM     15  O   UNL     1      36.303  17.367 120.569 -0.18 -0.00    +0.000 OA
DOCKED: BRANCH  14  19
DOCKED: ATOM     16  C   UNL     1      38.259  14.538 116.862 -0.24 -0.00    +0.000 A 
DOCKED: ATOM     17  C   UNL     1      39.019  15.507 117.548 -0.15 -0.00    +0.000 A 
DOCKED: ATOM     18  C   UNL     1      38.563  16.055 118.749 -0.12 -0.00    +0.000 A 
DOCKED: ATOM     19  C   UNL     1      37.340  15.649 119.307 -0.17 -0.00    +0.000 A 
DOCKED: ATOM     20  C   UNL     1      36.574  14.690 118.623 -0.25 -0.00    +0.000 A 
DOCKED: ATOM     21  C   UNL     1      37.027  14.142 117.419 -0.33 -0.00    +0.000 A 
DOCKED: ATOM     22  CM  UNL     1      37.797  15.098 118.084 +0.00 -0.00    +0.000 AC
DOCKED: BRANCH  16  23
DOCKED: ATOM     23  C   UNL     1      39.016  14.830 114.459 -0.26 -0.00    +0.000 C 
DOCKED: ATOM     24  N   UNL     1      38.731  13.968 115.612 -0.38 -0.00    +0.000 N 
DOCKED: ATOM     25  C   UNL     1      38.929  12.519 115.480 -0.59 -0.00    +0.000 C 
DOCKED: ENDBRANCH  16  23
DOCKED: ENDBRANCH  14  19
DOCKED: ENDBRANCH   1  14
DOCKED: TORSDOF 7DOCKED: TER
DOCKED: ENDMDL
________________________________________________________________________________


	BEGINNING GENETIC ALGORITHM DOCKING 47 of 100
Run: 47 Seed: 1264047079 1003960769 [ Run 47 of 100 GA/GALS ]
Beginning LAMARCKIAN GENETIC ALGORITHM (LGA), with a maximum of 2500000 energy evaluations.

Final-Value: -14.826


	FINAL GENETIC ALGORITHM DOCKED STATE
	_______________________________________________


Detailed state:  trans 35.658 14.520 121.163 quatxyzw 0.632369 -0.297378 0.459357 0.548331 center 1.179 0.138 -0.353 ntor 7 7.6796 139.2450 41.7806 127.2413 43.3923 -54.7523 -175.8736
State:	 35.658  14.520 121.163   0.756 -0.356  0.549 113.495      7.68  139.24   41.78  127.24   43.39  -54.75 -175.87

DOCKED: MODEL       47
DOCKED: USER    Run = 47
DOCKED: USER    DPF = ligand_dock.biased.dpf
DOCKED: USER  
DOCKED: USER    Estimated Free Energy of Binding    =  -11.00 kcal/mol  [=(1)+(2)+(3)-(4)]
DOCKED: USER    Estimated Inhibition Constant, Ki   =    8.69 nM (nanomolar)  [Temperature = 298.15 K]
DOCKED: USER    
DOCKED: USER    (1) Final Intermolecular Energy     =  -13.09 kcal/mol
DOCKED: USER        vdW + Hbond + desolv Energy     =  -13.09 kcal/mol
DOCKED: USER        Electrostatic Energy            =   +0.00 kcal/mol
DOCKED: USER    (2) Final Total Internal Energy     =   -1.74 kcal/mol
DOCKED: USER    (3) Torsional Free Energy           =   +2.09 kcal/mol
DOCKED: USER    (4) Unbound System's Energy  [=(2)] =   -1.74 kcal/mol
DOCKED: USER    
DOCKED: USER    
DOCKED: USER    NEWDPF move ligand.dum.pdbqt
DOCKED: USER    NEWDPF about 1.179000 0.138000 -0.353000
DOCKED: USER    NEWDPF tran0 35.657727 14.520225 121.162740
DOCKED: USER    NEWDPF quaternion0 0.632369 -0.297378 0.459357 0.548331
DOCKED: USER    NEWDPF axisangle0 0.756186 -0.355604 0.549298 113.494817
DOCKED: USER    NEWDPF quat0 0.756186 -0.355604 0.549298 113.494817
DOCKED: USER    NEWDPF dihe0 7.68 139.24 41.78 127.24 43.39 -54.75 -175.87 
DOCKED: USER  keepresnum = 1 
DOCKED: USER  
DOCKED: REMARK  Name = 
DOCKED: REMARK  11 active torsions:
DOCKED: REMARK  status: ('A' for Active; 'I' for Inactive)
DOCKED: REMARK    1  A    between atoms: C_1  and  N_2
DOCKED: REMARK    2  A    between atoms: N_2  and  C_3
DOCKED: REMARK    3  A    between atoms: N_2  and  C_22
DOCKED: REMARK    4  A    between atoms: C_6  and  C_9
DOCKED: REMARK    5  A    between atoms: C_9  and  C_10
DOCKED: REMARK    6  A    between atoms: C_10  and  C_11
DOCKED: REMARK    7  A    between atoms: C_10  and  C_20
DOCKED: REMARK    8  A    between atoms: C_12  and  C_13
DOCKED: REMARK    9  A    between atoms: C_12  and  C_19
DOCKED: REMARK   10  A    between atoms: C_14  and  C_15
DOCKED: REMARK   11  A    between atoms: N_16  and  O_17
DOCKED: REMARK                            x       y       z     vdW  Elec       q    Type
DOCKED: REMARK                         _______ _______ _______ _____ _____    ______ ____
DOCKED: USER                              x       y       z     vdW  Elec       q    Type
DOCKED: USER                           _______ _______ _______ _____ _____    ______ ____
DOCKED: ROOT
DOCKED: ATOM      1  C   UNL     1      37.152  15.644 121.597 -0.26 -0.00    +0.000 C 
DOCKED: ATOM      2  C   UNL     1      38.496  16.345 121.816 -0.21 -0.00    +0.000 C 
DOCKED: ENDROOT
DOCKED: BRANCH   1   3
DOCKED: ATOM      3  C   UNL     1      37.314  14.142 121.704 -0.40 -0.00    +0.000 C 
DOCKED: ATOM      4  C   UNL     1      36.920  13.405 122.763 -0.55 -0.00    +0.000 C 
DOCKED: ATOM      5  C   UNL     1      36.277  14.038 123.979 -0.46 -0.00    +0.000 C 
DOCKED: BRANCH   4   6
DOCKED: ATOM      6  C   UNL     1      37.195  11.945 122.734 -0.57 -0.00    +0.000 C 
DOCKED: ATOM      7  C   UNL     1      36.483  11.079 121.997 -0.62 -0.00    +0.000 C 
DOCKED: BRANCH   7   8
DOCKED: ATOM      8  C   UNL     1      36.750   9.626 121.965 -0.67 -0.00    +0.000 C 
DOCKED: ATOM      9  N   UNL     1      36.689   8.808 123.141 -0.67 -0.00    +0.000 N 
DOCKED: ATOM     10  O   UNL     1      37.018   9.091 120.856 -2.71 -0.00    +0.000 OA
DOCKED: ATOM     11  H   UNL     1      36.381   9.196 123.992 -0.35 -0.00    +0.000 HD
DOCKED: BRANCH   9  12
DOCKED: ATOM     12  O   UNL     1      37.051   7.505 123.083 -2.24 -0.00    +0.000 OA
DOCKED: ATOM     13  H   UNL     1      37.439   7.315 122.214 -0.15 -0.00    +0.000 HD
DOCKED: ENDBRANCH   9  12
DOCKED: ENDBRANCH   7   8
DOCKED: ENDBRANCH   4   6
DOCKED: ENDBRANCH   1   3
DOCKED: BRANCH   1  14
DOCKED: ATOM     14  C   UNL     1      36.599  16.023 120.239 -0.17 -0.00    +0.000 C 
DOCKED: ATOM     15  O   UNL     1      35.749  16.953 120.168 -0.21 -0.00    +0.000 OA
DOCKED: BRANCH  14  19
DOCKED: ATOM     16  C   UNL     1      37.815  14.034 116.596 -0.33 -0.00    +0.000 A 
DOCKED: ATOM     17  C   UNL     1      38.134  15.387 116.833 -0.16 -0.00    +0.000 A 
DOCKED: ATOM     18  C   UNL     1      37.734  16.021 118.011 -0.13 -0.00    +0.000 A 
DOCKED: ATOM     19  C   UNL     1      37.010  15.325 118.992 -0.20 -0.00    +0.000 A 
DOCKED: ATOM     20  C   UNL     1      36.681  13.979 118.758 -0.33 -0.00    +0.000 A 
DOCKED: ATOM     21  C   UNL     1      37.079  13.343 117.579 -0.36 -0.00    +0.000 A 
DOCKED: ATOM     22  CM  UNL     1      37.408  14.682 117.795 +0.00 -0.00    +0.000 AC
DOCKED: BRANCH  16  23
DOCKED: ATOM     23  C   UNL     1      37.762  13.857 114.067 -0.33 -0.00    +0.000 C 
DOCKED: ATOM     24  N   UNL     1      38.230  13.373 115.372 -0.46 -0.00    +0.000 N 
DOCKED: ATOM     25  C   UNL     1      39.123  12.209 115.417 -0.53 -0.00    +0.000 C 
DOCKED: ENDBRANCH  16  23
DOCKED: ENDBRANCH  14  19
DOCKED: ENDBRANCH   1  14
DOCKED: TORSDOF 7DOCKED: TER
DOCKED: ENDMDL
________________________________________________________________________________


	BEGINNING GENETIC ALGORITHM DOCKING 48 of 100
Run: 48 Seed: 783309633 1393575471 [ Run 48 of 100 GA/GALS ]
Beginning LAMARCKIAN GENETIC ALGORITHM (LGA), with a maximum of 2500000 energy evaluations.

Final-Value: -14.802


	FINAL GENETIC ALGORITHM DOCKED STATE
	_______________________________________________


Detailed state:  trans 36.201 14.748 122.865 quatxyzw 0.705090 -0.647291 0.000166 0.289590 center 1.179 0.138 -0.353 ntor 7 3.3595 -139.9939 -179.9712 -8.8419 -112.8370 0.6143 -42.6245
State:	 36.201  14.748 122.865   0.737 -0.676  0.000 146.333      3.36 -139.99 -179.97   -8.84 -112.84    0.61  -42.62

DOCKED: MODEL       48
DOCKED: USER    Run = 48
DOCKED: USER    DPF = ligand_dock.biased.dpf
DOCKED: USER  
DOCKED: USER    Estimated Free Energy of Binding    =  -11.11 kcal/mol  [=(1)+(2)+(3)-(4)]
DOCKED: USER    Estimated Inhibition Constant, Ki   =    7.13 nM (nanomolar)  [Temperature = 298.15 K]
DOCKED: USER    
DOCKED: USER    (1) Final Intermolecular Energy     =  -13.20 kcal/mol
DOCKED: USER        vdW + Hbond + desolv Energy     =  -13.20 kcal/mol
DOCKED: USER        Electrostatic Energy            =   +0.00 kcal/mol
DOCKED: USER    (2) Final Total Internal Energy     =   -1.60 kcal/mol
DOCKED: USER    (3) Torsional Free Energy           =   +2.09 kcal/mol
DOCKED: USER    (4) Unbound System's Energy  [=(2)] =   -1.60 kcal/mol
DOCKED: USER    
DOCKED: USER    
DOCKED: USER    NEWDPF move ligand.dum.pdbqt
DOCKED: USER    NEWDPF about 1.179000 0.138000 -0.353000
DOCKED: USER    NEWDPF tran0 36.201470 14.748204 122.864858
DOCKED: USER    NEWDPF quaternion0 0.705090 -0.647291 0.000166 0.289590
DOCKED: USER    NEWDPF axisangle0 0.736655 -0.676269 0.000174 146.333155
DOCKED: USER    NEWDPF quat0 0.736655 -0.676269 0.000174 146.333155
DOCKED: USER    NEWDPF dihe0 3.36 -139.99 -179.97 -8.84 -112.84 0.61 -42.62 
DOCKED: USER  keepresnum = 1 
DOCKED: USER  
DOCKED: REMARK  Name = 
DOCKED: REMARK  11 active torsions:
DOCKED: REMARK  status: ('A' for Active; 'I' for Inactive)
DOCKED: REMARK    1  A    between atoms: C_1  and  N_2
DOCKED: REMARK    2  A    between atoms: N_2  and  C_3
DOCKED: REMARK    3  A    between atoms: N_2  and  C_22
DOCKED: REMARK    4  A    between atoms: C_6  and  C_9
DOCKED: REMARK    5  A    between atoms: C_9  and  C_10
DOCKED: REMARK    6  A    between atoms: C_10  and  C_11
DOCKED: REMARK    7  A    between atoms: C_10  and  C_20
DOCKED: REMARK    8  A    between atoms: C_12  and  C_13
DOCKED: REMARK    9  A    between atoms: C_12  and  C_19
DOCKED: REMARK   10  A    between atoms: C_14  and  C_15
DOCKED: REMARK   11  A    between atoms: N_16  and  O_17
DOCKED: REMARK                            x       y       z     vdW  Elec       q    Type
DOCKED: REMARK                         _______ _______ _______ _____ _____    ______ ____
DOCKED: USER                              x       y       z     vdW  Elec       q    Type
DOCKED: USER                           _______ _______ _______ _____ _____    ______ ____
DOCKED: ROOT
DOCKED: ATOM      1  C   UNL     1      37.282  15.750 121.635 -0.26 -0.00    +0.000 C 
DOCKED: ATOM      2  C   UNL     1      38.027  16.388 120.459 -0.16 -0.00    +0.000 C 
DOCKED: ENDROOT
DOCKED: BRANCH   1   3
DOCKED: ATOM      3  C   UNL     1      37.102  14.264 121.404 -0.34 -0.00    +0.000 C 
DOCKED: ATOM      4  C   UNL     1      36.846  13.366 122.377 -0.51 -0.00    +0.000 C 
DOCKED: ATOM      5  C   UNL     1      36.729  13.776 123.829 -0.45 -0.00    +0.000 C 
DOCKED: BRANCH   4   6
DOCKED: ATOM      6  C   UNL     1      36.744  11.934 121.992 -0.59 -0.00    +0.000 C 
DOCKED: ATOM      7  C   UNL     1      37.109  10.929 122.802 -0.55 -0.00    +0.000 C 
DOCKED: BRANCH   7   8
DOCKED: ATOM      8  C   UNL     1      37.011   9.504 122.425 -0.63 -0.00    +0.000 C 
DOCKED: ATOM      9  N   UNL     1      37.036   8.449 123.395 -0.69 -0.00    +0.000 N 
DOCKED: ATOM     10  O   UNL     1      36.876   9.215 121.206 -2.69 -0.00    +0.000 OA
DOCKED: ATOM     11  H   UNL     1      37.038   8.666 124.356 -0.49 -0.00    +0.000 HD
DOCKED: BRANCH   9  12
DOCKED: ATOM     12  O   UNL     1      37.057   7.156 122.995 -1.93 -0.00    +0.000 OA
DOCKED: ATOM     13  H   UNL     1      37.105   7.117 122.026 -0.12 -0.00    +0.000 HD
DOCKED: ENDBRANCH   9  12
DOCKED: ENDBRANCH   7   8
DOCKED: ENDBRANCH   4   6
DOCKED: ENDBRANCH   1   3
DOCKED: BRANCH   1  14
DOCKED: ATOM     14  C   UNL     1      35.939  16.427 121.811 -0.22 -0.00    +0.000 C 
DOCKED: ATOM     15  O   UNL     1      35.309  16.801 120.783 -0.20 -0.00    +0.000 OA
DOCKED: BRANCH  14  19
DOCKED: ATOM     16  C   UNL     1      34.243  17.210 125.711 -0.37 -0.00    +0.000 A 
DOCKED: ATOM     17  C   UNL     1      35.081  18.148 125.076 -0.28 -0.00    +0.000 A 
DOCKED: ATOM     18  C   UNL     1      35.626  17.885 123.817 -0.26 -0.00    +0.000 A 
DOCKED: ATOM     19  C   UNL     1      35.348  16.681 123.151 -0.34 -0.00    +0.000 A 
DOCKED: ATOM     20  C   UNL     1      34.521  15.737 123.783 -0.51 -0.00    +0.000 A 
DOCKED: ATOM     21  C   UNL     1      33.975  15.998 125.044 -0.39 -0.00    +0.000 A 
DOCKED: ATOM     22  CM  UNL     1      34.800  16.943 124.430 -0.24 -0.00    +0.000 AC
DOCKED: BRANCH  16  23
DOCKED: ATOM     23  C   UNL     1      33.592  18.857 127.525 -0.21 -0.00    +0.000 C 
DOCKED: ATOM     24  N   UNL     1      33.675  17.482 127.020 -0.34 -0.00    +0.000 N 
DOCKED: ATOM     25  C   UNL     1      33.177  16.386 127.860 -0.44 -0.00    +0.000 C 
DOCKED: ENDBRANCH  16  23
DOCKED: ENDBRANCH  14  19
DOCKED: ENDBRANCH   1  14
DOCKED: TORSDOF 7DOCKED: TER
DOCKED: ENDMDL
________________________________________________________________________________


	BEGINNING GENETIC ALGORITHM DOCKING 49 of 100
Run: 49 Seed: 946852248 419706891 [ Run 49 of 100 GA/GALS ]
Beginning LAMARCKIAN GENETIC ALGORITHM (LGA), with a maximum of 2500000 energy evaluations.

Final-Value: -14.704


	FINAL GENETIC ALGORITHM DOCKED STATE
	_______________________________________________


Detailed state:  trans 38.666 14.718 121.462 quatxyzw -0.240363 0.326682 0.713259 0.571635 center 1.179 0.138 -0.353 ntor 7 28.7344 147.5099 120.5878 -111.9742 -133.0177 -37.1072 -73.9731
State:	 38.666  14.718 121.462  -0.293  0.398  0.869 110.271     28.73  147.51  120.59 -111.97 -133.02  -37.11  -73.97

DOCKED: MODEL       49
DOCKED: USER    Run = 49
DOCKED: USER    DPF = ligand_dock.biased.dpf
DOCKED: USER  
DOCKED: USER    Estimated Free Energy of Binding    =  -10.93 kcal/mol  [=(1)+(2)+(3)-(4)]
DOCKED: USER    Estimated Inhibition Constant, Ki   =    9.76 nM (nanomolar)  [Temperature = 298.15 K]
DOCKED: USER    
DOCKED: USER    (1) Final Intermolecular Energy     =  -13.02 kcal/mol
DOCKED: USER        vdW + Hbond + desolv Energy     =  -13.02 kcal/mol
DOCKED: USER        Electrostatic Energy            =   +0.00 kcal/mol
DOCKED: USER    (2) Final Total Internal Energy     =   -1.69 kcal/mol
DOCKED: USER    (3) Torsional Free Energy           =   +2.09 kcal/mol
DOCKED: USER    (4) Unbound System's Energy  [=(2)] =   -1.69 kcal/mol
DOCKED: USER    
DOCKED: USER    
DOCKED: USER    NEWDPF move ligand.dum.pdbqt
DOCKED: USER    NEWDPF about 1.179000 0.138000 -0.353000
DOCKED: USER    NEWDPF tran0 38.666372 14.718424 121.461543
DOCKED: USER    NEWDPF quaternion0 -0.240363 0.326682 0.713259 0.571635
DOCKED: USER    NEWDPF axisangle0 -0.292944 0.398146 0.869289 110.271344
DOCKED: USER    NEWDPF quat0 -0.292944 0.398146 0.869289 110.271344
DOCKED: USER    NEWDPF dihe0 28.73 147.51 120.59 -111.97 -133.02 -37.11 -73.97 
DOCKED: USER  keepresnum = 1 
DOCKED: USER  
DOCKED: REMARK  Name = 
DOCKED: REMARK  11 active torsions:
DOCKED: REMARK  status: ('A' for Active; 'I' for Inactive)
DOCKED: REMARK    1  A    between atoms: C_1  and  N_2
DOCKED: REMARK    2  A    between atoms: N_2  and  C_3
DOCKED: REMARK    3  A    between atoms: N_2  and  C_22
DOCKED: REMARK    4  A    between atoms: C_6  and  C_9
DOCKED: REMARK    5  A    between atoms: C_9  and  C_10
DOCKED: REMARK    6  A    between atoms: C_10  and  C_11
DOCKED: REMARK    7  A    between atoms: C_10  and  C_20
DOCKED: REMARK    8  A    between atoms: C_12  and  C_13
DOCKED: REMARK    9  A    between atoms: C_12  and  C_19
DOCKED: REMARK   10  A    between atoms: C_14  and  C_15
DOCKED: REMARK   11  A    between atoms: N_16  and  O_17
DOCKED: REMARK                            x       y       z     vdW  Elec       q    Type
DOCKED: REMARK                         _______ _______ _______ _____ _____    ______ ____
DOCKED: USER                              x       y       z     vdW  Elec       q    Type
DOCKED: USER                           _______ _______ _______ _____ _____    ______ ____
DOCKED: ROOT
DOCKED: ATOM      1  C   UNL     1      37.099  15.405 122.332 -0.34 -0.00    +0.000 C 
DOCKED: ATOM      2  C   UNL     1      35.887  15.742 123.206 -0.42 -0.00    +0.000 C 
DOCKED: ENDROOT
DOCKED: BRANCH   1   3
DOCKED: ATOM      3  C   UNL     1      37.283  13.904 122.237 -0.47 -0.00    +0.000 C 
DOCKED: ATOM      4  C   UNL     1      37.298  13.208 121.082 -0.47 -0.00    +0.000 C 
DOCKED: ATOM      5  C   UNL     1      37.111  13.886 119.741 -0.37 -0.00    +0.000 C 
DOCKED: BRANCH   4   6
DOCKED: ATOM      6  C   UNL     1      37.440  11.731 121.162 -0.46 -0.00    +0.000 C 
DOCKED: ATOM      7  C   UNL     1      36.752  10.974 122.031 -0.61 -0.00    +0.000 C 
DOCKED: BRANCH   7   8
DOCKED: ATOM      8  C   UNL     1      36.889   9.506 122.116 -0.66 -0.00    +0.000 C 
DOCKED: ATOM      9  N   UNL     1      36.933   8.809 123.368 -0.63 -0.00    +0.000 N 
DOCKED: ATOM     10  O   UNL     1      36.946   8.846 121.043 -2.67 -0.00    +0.000 OA
DOCKED: ATOM     11  H   UNL     1      36.787   9.302 124.208 -0.50 -0.00    +0.000 HD
DOCKED: BRANCH   9  12
DOCKED: ATOM     12  O   UNL     1      37.172   7.478 123.398 -2.14 -0.00    +0.000 OA
DOCKED: ATOM     13  H   UNL     1      37.716   7.228 122.635 -0.34 -0.00    +0.000 HD
DOCKED: ENDBRANCH   9  12
DOCKED: ENDBRANCH   7   8
DOCKED: ENDBRANCH   4   6
DOCKED: ENDBRANCH   1   3
DOCKED: BRANCH   1  14
DOCKED: ATOM     14  C   UNL     1      38.338  16.055 122.912 -0.30 -0.00    +0.000 C 
DOCKED: ATOM     15  O   UNL     1      38.244  16.666 124.012 -0.29 -0.00    +0.000 OA
DOCKED: BRANCH  14  19
DOCKED: ATOM     16  C   UNL     1      42.145  15.969 120.862 -0.22 -0.00    +0.000 A 
DOCKED: ATOM     17  C   UNL     1      41.065  16.728 120.367 -0.13 -0.00    +0.000 A 
DOCKED: ATOM     18  C   UNL     1      39.838  16.747 121.035 -0.13 -0.00    +0.000 A 
DOCKED: ATOM     19  C   UNL     1      39.653  16.015 122.219 -0.26 -0.00    +0.000 A 
DOCKED: ATOM     20  C   UNL     1      40.723  15.249 122.712 -0.41 -0.00    +0.000 A 
DOCKED: ATOM     21  C   UNL     1      41.951  15.228 122.044 -0.41 -0.00    +0.000 A 
DOCKED: ATOM     22  CM  UNL     1      40.895  15.989 121.539 +0.00 -0.00    +0.000 AC
DOCKED: BRANCH  16  23
DOCKED: ATOM     23  C   UNL     1      43.488  15.616 118.740 -0.27 -0.00    +0.000 C 
DOCKED: ATOM     24  N   UNL     1      43.421  15.948 120.169 -0.24 -0.00    +0.000 N 
DOCKED: ATOM     25  C   UNL     1      44.665  16.255 120.885 -0.27 +0.00    +0.000 C 
DOCKED: ENDBRANCH  16  23
DOCKED: ENDBRANCH  14  19
DOCKED: ENDBRANCH   1  14
DOCKED: TORSDOF 7DOCKED: TER
DOCKED: ENDMDL
________________________________________________________________________________


	BEGINNING GENETIC ALGORITHM DOCKING 50 of 100
Run: 50 Seed: 1979824178 814745728 [ Run 50 of 100 GA/GALS ]
Beginning LAMARCKIAN GENETIC ALGORITHM (LGA), with a maximum of 2500000 energy evaluations.

Final-Value: -14.860


	FINAL GENETIC ALGORITHM DOCKED STATE
	_______________________________________________


Detailed state:  trans 35.559 14.857 121.638 quatxyzw 0.619040 -0.396529 0.477552 0.481143 center 1.179 0.138 -0.353 ntor 7 4.7915 -153.5556 -51.0121 -161.6481 -54.2768 -32.9525 -179.8909
State:	 35.559  14.857 121.638   0.706 -0.452  0.545 122.480      4.79 -153.56  -51.01 -161.65  -54.28  -32.95 -179.89

DOCKED: MODEL       50
DOCKED: USER    Run = 50
DOCKED: USER    DPF = ligand_dock.biased.dpf
DOCKED: USER  
DOCKED: USER    Estimated Free Energy of Binding    =  -10.93 kcal/mol  [=(1)+(2)+(3)-(4)]
DOCKED: USER    Estimated Inhibition Constant, Ki   =    9.73 nM (nanomolar)  [Temperature = 298.15 K]
DOCKED: USER    
DOCKED: USER    (1) Final Intermolecular Energy     =  -13.02 kcal/mol
DOCKED: USER        vdW + Hbond + desolv Energy     =  -13.02 kcal/mol
DOCKED: USER        Electrostatic Energy            =   +0.00 kcal/mol
DOCKED: USER    (2) Final Total Internal Energy     =   -1.84 kcal/mol
DOCKED: USER    (3) Torsional Free Energy           =   +2.09 kcal/mol
DOCKED: USER    (4) Unbound System's Energy  [=(2)] =   -1.84 kcal/mol
DOCKED: USER    
DOCKED: USER    
DOCKED: USER    NEWDPF move ligand.dum.pdbqt
DOCKED: USER    NEWDPF about 1.179000 0.138000 -0.353000
DOCKED: USER    NEWDPF tran0 35.559184 14.857128 121.638209
DOCKED: USER    NEWDPF quaternion0 0.619040 -0.396529 0.477552 0.481143
DOCKED: USER    NEWDPF axisangle0 0.706149 -0.452326 0.544751 122.479862
DOCKED: USER    NEWDPF quat0 0.706149 -0.452326 0.544751 122.479862
DOCKED: USER    NEWDPF dihe0 4.79 -153.56 -51.01 -161.65 -54.28 -32.95 -179.89 
DOCKED: USER  keepresnum = 1 
DOCKED: USER  
DOCKED: REMARK  Name = 
DOCKED: REMARK  11 active torsions:
DOCKED: REMARK  status: ('A' for Active; 'I' for Inactive)
DOCKED: REMARK    1  A    between atoms: C_1  and  N_2
DOCKED: REMARK    2  A    between atoms: N_2  and  C_3
DOCKED: REMARK    3  A    between atoms: N_2  and  C_22
DOCKED: REMARK    4  A    between atoms: C_6  and  C_9
DOCKED: REMARK    5  A    between atoms: C_9  and  C_10
DOCKED: REMARK    6  A    between atoms: C_10  and  C_11
DOCKED: REMARK    7  A    between atoms: C_10  and  C_20
DOCKED: REMARK    8  A    between atoms: C_12  and  C_13
DOCKED: REMARK    9  A    between atoms: C_12  and  C_19
DOCKED: REMARK   10  A    between atoms: C_14  and  C_15
DOCKED: REMARK   11  A    between atoms: N_16  and  O_17
DOCKED: REMARK                            x       y       z     vdW  Elec       q    Type
DOCKED: REMARK                         _______ _______ _______ _____ _____    ______ ____
DOCKED: USER                              x       y       z     vdW  Elec       q    Type
DOCKED: USER                           _______ _______ _______ _____ _____    ______ ____
DOCKED: ROOT
DOCKED: ATOM      1  C   UNL     1      37.298  15.627 121.897 -0.28 -0.00    +0.000 C 
DOCKED: ATOM      2  C   UNL     1      38.777  16.021 121.961 -0.25 -0.00    +0.000 C 
DOCKED: ENDROOT
DOCKED: BRANCH   1   3
DOCKED: ATOM      3  C   UNL     1      37.146  14.123 121.989 -0.42 -0.00    +0.000 C 
DOCKED: ATOM      4  C   UNL     1      36.358  13.488 122.881 -0.52 -0.00    +0.000 C 
DOCKED: ATOM      5  C   UNL     1      35.547  14.247 123.909 -0.54 -0.00    +0.000 C 
DOCKED: BRANCH   4   6
DOCKED: ATOM      6  C   UNL     1      36.356  12.002 122.873 -0.66 -0.00    +0.000 C 
DOCKED: ATOM      7  C   UNL     1      37.022  11.273 121.965 -0.56 -0.00    +0.000 C 
DOCKED: BRANCH   7   8
DOCKED: ATOM      8  C   UNL     1      37.023   9.796 121.951 -0.59 -0.00    +0.000 C 
DOCKED: ATOM      9  N   UNL     1      36.950   9.016 123.151 -0.66 -0.00    +0.000 N 
DOCKED: ATOM     10  O   UNL     1      37.066   9.207 120.837 -2.74 -0.00    +0.000 OA
DOCKED: ATOM     11  H   UNL     1      36.813   9.463 124.018 -0.48 -0.00    +0.000 HD
DOCKED: BRANCH   9  12
DOCKED: ATOM     12  O   UNL     1      37.068   7.669 123.096 -2.33 -0.00    +0.000 OA
DOCKED: ATOM     13  H   UNL     1      37.272   7.398 122.188 -0.10 -0.00    +0.000 HD
DOCKED: ENDBRANCH   9  12
DOCKED: ENDBRANCH   7   8
DOCKED: ENDBRANCH   4   6
DOCKED: ENDBRANCH   1   3
DOCKED: BRANCH   1  14
DOCKED: ATOM     14  C   UNL     1      36.691  16.145 120.610 -0.20 -0.00    +0.000 C 
DOCKED: ATOM     15  O   UNL     1      35.993  17.196 120.648 -0.21 -0.00    +0.000 OA
DOCKED: BRANCH  14  19
DOCKED: ATOM     16  C   UNL     1      37.181  14.133 116.813 -0.32 -0.00    +0.000 A 
DOCKED: ATOM     17  C   UNL     1      36.011  14.861 117.110 -0.26 -0.00    +0.000 A 
DOCKED: ATOM     18  C   UNL     1      35.861  15.505 118.341 -0.11 -0.00    +0.000 A 
DOCKED: ATOM     19  C   UNL     1      36.875  15.448 119.310 -0.19 -0.00    +0.000 A 
DOCKED: ATOM     20  C   UNL     1      38.040  14.716 119.024 -0.22 -0.00    +0.000 A 
DOCKED: ATOM     21  C   UNL     1      38.192  14.070 117.793 -0.12 -0.00    +0.000 A 
DOCKED: ATOM     22  CM  UNL     1      37.026  14.788 118.065 +0.00 -0.00    +0.000 AC
DOCKED: BRANCH  16  23
DOCKED: ATOM     23  C   UNL     1      36.340  13.637 114.473 -0.32 -0.00    +0.000 C 
DOCKED: ATOM     24  N   UNL     1      37.339  13.463 115.535 -0.39 -0.00    +0.000 N 
DOCKED: ATOM     25  C   UNL     1      38.498  12.598 115.282 -0.54 -0.00    +0.000 C 
DOCKED: ENDBRANCH  16  23
DOCKED: ENDBRANCH  14  19
DOCKED: ENDBRANCH   1  14
DOCKED: TORSDOF 7DOCKED: TER
DOCKED: ENDMDL
________________________________________________________________________________


	BEGINNING GENETIC ALGORITHM DOCKING 51 of 100
Run: 51 Seed: 1993881925 1418531325 [ Run 51 of 100 GA/GALS ]
Beginning LAMARCKIAN GENETIC ALGORITHM (LGA), with a maximum of 2500000 energy evaluations.

Final-Value: -15.320


	FINAL GENETIC ALGORITHM DOCKED STATE
	_______________________________________________


Detailed state:  trans 36.355 14.531 122.081 quatxyzw -0.638003 0.396080 -0.446068 -0.486925 center 1.179 0.138 -0.353 ntor 7 2.8607 -104.0607 3.9515 126.1291 73.5479 -10.3235 -179.7674
State:	 36.355  14.531 122.081  -0.730  0.453 -0.511 -121.723      2.86 -104.06    3.95  126.13   73.55  -10.32 -179.77

DOCKED: MODEL       51
DOCKED: USER    Run = 51
DOCKED: USER    DPF = ligand_dock.biased.dpf
DOCKED: USER  
DOCKED: USER    Estimated Free Energy of Binding    =  -11.22 kcal/mol  [=(1)+(2)+(3)-(4)]
DOCKED: USER    Estimated Inhibition Constant, Ki   =    5.98 nM (nanomolar)  [Temperature = 298.15 K]
DOCKED: USER    
DOCKED: USER    (1) Final Intermolecular Energy     =  -13.31 kcal/mol
DOCKED: USER        vdW + Hbond + desolv Energy     =  -13.31 kcal/mol
DOCKED: USER        Electrostatic Energy            =   +0.00 kcal/mol
DOCKED: USER    (2) Final Total Internal Energy     =   -2.01 kcal/mol
DOCKED: USER    (3) Torsional Free Energy           =   +2.09 kcal/mol
DOCKED: USER    (4) Unbound System's Energy  [=(2)] =   -2.01 kcal/mol
DOCKED: USER    
DOCKED: USER    
DOCKED: USER    NEWDPF move ligand.dum.pdbqt
DOCKED: USER    NEWDPF about 1.179000 0.138000 -0.353000
DOCKED: USER    NEWDPF tran0 36.355094 14.531468 122.081288
DOCKED: USER    NEWDPF quaternion0 -0.638003 0.396080 -0.446068 -0.486925
DOCKED: USER    NEWDPF axisangle0 -0.730445 0.453470 -0.510700 -121.722668
DOCKED: USER    NEWDPF quat0 -0.730445 0.453470 -0.510700 -121.722668
DOCKED: USER    NEWDPF dihe0 2.86 -104.06 3.95 126.13 73.55 -10.32 -179.77 
DOCKED: USER  keepresnum = 1 
DOCKED: USER  
DOCKED: REMARK  Name = 
DOCKED: REMARK  11 active torsions:
DOCKED: REMARK  status: ('A' for Active; 'I' for Inactive)
DOCKED: REMARK    1  A    between atoms: C_1  and  N_2
DOCKED: REMARK    2  A    between atoms: N_2  and  C_3
DOCKED: REMARK    3  A    between atoms: N_2  and  C_22
DOCKED: REMARK    4  A    between atoms: C_6  and  C_9
DOCKED: REMARK    5  A    between atoms: C_9  and  C_10
DOCKED: REMARK    6  A    between atoms: C_10  and  C_11
DOCKED: REMARK    7  A    between atoms: C_10  and  C_20
DOCKED: REMARK    8  A    between atoms: C_12  and  C_13
DOCKED: REMARK    9  A    between atoms: C_12  and  C_19
DOCKED: REMARK   10  A    between atoms: C_14  and  C_15
DOCKED: REMARK   11  A    between atoms: N_16  and  O_17
DOCKED: REMARK                            x       y       z     vdW  Elec       q    Type
DOCKED: REMARK                         _______ _______ _______ _____ _____    ______ ____
DOCKED: USER                              x       y       z     vdW  Elec       q    Type
DOCKED: USER                           _______ _______ _______ _____ _____    ______ ____
DOCKED: ROOT
DOCKED: ATOM      1  C   UNL     1      38.064  15.388 122.261 -0.34 -0.00    +0.000 C 
DOCKED: ATOM      2  C   UNL     1      39.522  15.856 122.254 -0.32 -0.00    +0.000 C 
DOCKED: ENDROOT
DOCKED: BRANCH   1   3
DOCKED: ATOM      3  C   UNL     1      37.993  13.876 122.338 -0.48 -0.00    +0.000 C 
DOCKED: ATOM      4  C   UNL     1      36.998  13.188 122.934 -0.58 -0.00    +0.000 C 
DOCKED: ATOM      5  C   UNL     1      35.839  13.888 123.611 -0.55 -0.00    +0.000 C 
DOCKED: BRANCH   4   6
DOCKED: ATOM      6  C   UNL     1      37.101  11.705 122.966 -0.63 -0.00    +0.000 C 
DOCKED: ATOM      7  C   UNL     1      36.839  10.929 121.904 -0.58 -0.00    +0.000 C 
DOCKED: BRANCH   7   8
DOCKED: ATOM      8  C   UNL     1      36.939   9.455 121.931 -0.64 -0.00    +0.000 C 
DOCKED: ATOM      9  N   UNL     1      36.869   8.702 123.148 -0.69 -0.00    +0.000 N 
DOCKED: ATOM     10  O   UNL     1      37.067   8.843 120.836 -2.72 -0.00    +0.000 OA
DOCKED: ATOM     11  H   UNL     1      36.667   9.160 123.997 -0.44 -0.00    +0.000 HD
DOCKED: BRANCH   9  12
DOCKED: ATOM     12  O   UNL     1      37.078   7.365 123.135 -2.16 -0.00    +0.000 OA
DOCKED: ATOM     13  H   UNL     1      37.307   7.081 122.236 -0.17 -0.00    +0.000 HD
DOCKED: ENDBRANCH   9  12
DOCKED: ENDBRANCH   7   8
DOCKED: ENDBRANCH   4   6
DOCKED: ENDBRANCH   1   3
DOCKED: BRANCH   1  14
DOCKED: ATOM     14  C   UNL     1      37.365  15.889 121.015 -0.22 -0.00    +0.000 C 
DOCKED: ATOM     15  O   UNL     1      36.618  16.902 121.104 -0.19 -0.00    +0.000 OA
DOCKED: BRANCH  14  19
DOCKED: ATOM     16  C   UNL     1      37.840  13.959 117.174 -0.31 -0.00    +0.000 A 
DOCKED: ATOM     17  C   UNL     1      38.782  14.897 117.643 -0.09 -0.00    +0.000 A 
DOCKED: ATOM     18  C   UNL     1      38.618  15.517 118.884 -0.16 -0.00    +0.000 A 
DOCKED: ATOM     19  C   UNL     1      37.513  15.216 119.697 -0.21 -0.00    +0.000 A 
DOCKED: ATOM     20  C   UNL     1      36.566  14.289 119.231 -0.15 -0.00    +0.000 A 
DOCKED: ATOM     21  C   UNL     1      36.727  13.669 117.989 -0.37 -0.00    +0.000 A 
DOCKED: ATOM     22  CM  UNL     1      37.674  14.592 118.436 +0.00 -0.00    +0.000 AC
DOCKED: BRANCH  16  23
DOCKED: ATOM     23  C   UNL     1      39.241  12.578 115.573 -0.53 -0.00    +0.000 C 
DOCKED: ATOM     24  N   UNL     1      38.009  13.313 115.884 -0.44 -0.00    +0.000 N 
DOCKED: ATOM     25  C   UNL     1      36.952  13.386 114.869 -0.36 -0.00    +0.000 C 
DOCKED: ENDBRANCH  16  23
DOCKED: ENDBRANCH  14  19
DOCKED: ENDBRANCH   1  14
DOCKED: TORSDOF 7DOCKED: TER
DOCKED: ENDMDL
________________________________________________________________________________


	BEGINNING GENETIC ALGORITHM DOCKING 52 of 100
Run: 52 Seed: 443008737 772544263 [ Run 52 of 100 GA/GALS ]
Beginning LAMARCKIAN GENETIC ALGORITHM (LGA), with a maximum of 2500000 energy evaluations.

Final-Value: -14.923


	FINAL GENETIC ALGORITHM DOCKED STATE
	_______________________________________________


Detailed state:  trans 36.859 14.523 120.556 quatxyzw -0.335627 0.017724 -0.699687 -0.630459 center 1.179 0.138 -0.353 ntor 7 -3.2526 -84.9438 -20.7457 155.9317 -14.9026 -85.5052 -95.9562
State:	 36.859  14.523 120.556  -0.432  0.023 -0.901 -101.832     -3.25  -84.94  -20.75  155.93  -14.90  -85.51  -95.96

DOCKED: MODEL       52
DOCKED: USER    Run = 52
DOCKED: USER    DPF = ligand_dock.biased.dpf
DOCKED: USER  
DOCKED: USER    Estimated Free Energy of Binding    =  -11.21 kcal/mol  [=(1)+(2)+(3)-(4)]
DOCKED: USER    Estimated Inhibition Constant, Ki   =    6.03 nM (nanomolar)  [Temperature = 298.15 K]
DOCKED: USER    
DOCKED: USER    (1) Final Intermolecular Energy     =  -13.30 kcal/mol
DOCKED: USER        vdW + Hbond + desolv Energy     =  -13.30 kcal/mol
DOCKED: USER        Electrostatic Energy            =   +0.00 kcal/mol
DOCKED: USER    (2) Final Total Internal Energy     =   -1.62 kcal/mol
DOCKED: USER    (3) Torsional Free Energy           =   +2.09 kcal/mol
DOCKED: USER    (4) Unbound System's Energy  [=(2)] =   -1.62 kcal/mol
DOCKED: USER    
DOCKED: USER    
DOCKED: USER    NEWDPF move ligand.dum.pdbqt
DOCKED: USER    NEWDPF about 1.179000 0.138000 -0.353000
DOCKED: USER    NEWDPF tran0 36.858775 14.523072 120.555865
DOCKED: USER    NEWDPF quaternion0 -0.335627 0.017724 -0.699687 -0.630459
DOCKED: USER    NEWDPF axisangle0 -0.432385 0.022834 -0.901400 -101.831953
DOCKED: USER    NEWDPF quat0 -0.432385 0.022834 -0.901400 -101.831953
DOCKED: USER    NEWDPF dihe0 -3.25 -84.94 -20.75 155.93 -14.90 -85.51 -95.96 
DOCKED: USER  keepresnum = 1 
DOCKED: USER  
DOCKED: REMARK  Name = 
DOCKED: REMARK  11 active torsions:
DOCKED: REMARK  status: ('A' for Active; 'I' for Inactive)
DOCKED: REMARK    1  A    between atoms: C_1  and  N_2
DOCKED: REMARK    2  A    between atoms: N_2  and  C_3
DOCKED: REMARK    3  A    between atoms: N_2  and  C_22
DOCKED: REMARK    4  A    between atoms: C_6  and  C_9
DOCKED: REMARK    5  A    between atoms: C_9  and  C_10
DOCKED: REMARK    6  A    between atoms: C_10  and  C_11
DOCKED: REMARK    7  A    between atoms: C_10  and  C_20
DOCKED: REMARK    8  A    between atoms: C_12  and  C_13
DOCKED: REMARK    9  A    between atoms: C_12  and  C_19
DOCKED: REMARK   10  A    between atoms: C_14  and  C_15
DOCKED: REMARK   11  A    between atoms: N_16  and  O_17
DOCKED: REMARK                            x       y       z     vdW  Elec       q    Type
DOCKED: REMARK                         _______ _______ _______ _____ _____    ______ ____
DOCKED: USER                              x       y       z     vdW  Elec       q    Type
DOCKED: USER                           _______ _______ _______ _____ _____    ______ ____
DOCKED: ROOT
DOCKED: ATOM      1  C   UNL     1      37.341  15.602 122.068 -0.30 -0.00    +0.000 C 
DOCKED: ATOM      2  C   UNL     1      37.918  16.267 123.322 -0.29 -0.00    +0.000 C 
DOCKED: ENDROOT
DOCKED: BRANCH   1   3
DOCKED: ATOM      3  C   UNL     1      37.350  14.095 122.215 -0.45 -0.00    +0.000 C 
DOCKED: ATOM      4  C   UNL     1      36.502  13.399 123.000 -0.56 -0.00    +0.000 C 
DOCKED: ATOM      5  C   UNL     1      35.446  14.088 123.838 -0.52 -0.00    +0.000 C 
DOCKED: BRANCH   4   6
DOCKED: ATOM      6  C   UNL     1      36.673  11.924 123.072 -0.68 -0.00    +0.000 C 
DOCKED: ATOM      7  C   UNL     1      36.831  11.151 121.988 -0.60 -0.00    +0.000 C 
DOCKED: BRANCH   7   8
DOCKED: ATOM      8  C   UNL     1      37.000   9.684 122.053 -0.61 -0.00    +0.000 C 
DOCKED: ATOM      9  N   UNL     1      37.066   8.973 123.296 -0.63 -0.00    +0.000 N 
DOCKED: ATOM     10  O   UNL     1      37.065   9.040 120.972 -2.72 -0.00    +0.000 OA
DOCKED: ATOM     11  H   UNL     1      36.914   9.452 124.143 -0.53 -0.00    +0.000 HD
DOCKED: BRANCH   9  12
DOCKED: ATOM     12  O   UNL     1      37.334   7.647 123.308 -2.17 -0.00    +0.000 OA
DOCKED: ATOM     13  H   UNL     1      37.406   7.322 122.397 -0.16 -0.00    +0.000 HD
DOCKED: ENDBRANCH   9  12
DOCKED: ENDBRANCH   7   8
DOCKED: ENDBRANCH   4   6
DOCKED: ENDBRANCH   1   3
DOCKED: BRANCH   1  14
DOCKED: ATOM     14  C   UNL     1      38.147  16.022 120.857 -0.19 -0.00    +0.000 C 
DOCKED: ATOM     15  O   UNL     1      38.893  17.036 120.946 -0.11 -0.00    +0.000 OA
DOCKED: BRANCH  14  19
DOCKED: ATOM     16  C   UNL     1      37.972  13.928 117.077 -0.30 -0.00    +0.000 A 
DOCKED: ATOM     17  C   UNL     1      38.914  14.951 117.304 -0.13 -0.00    +0.000 A 
DOCKED: ATOM     18  C   UNL     1      38.961  15.624 118.527 -0.14 -0.00    +0.000 A 
DOCKED: ATOM     19  C   UNL     1      38.074  15.293 119.564 -0.19 -0.00    +0.000 A 
DOCKED: ATOM     20  C   UNL     1      37.125  14.280 119.341 -0.30 -0.00    +0.000 A 
DOCKED: ATOM     21  C   UNL     1      37.076  13.607 118.116 -0.37 -0.00    +0.000 A 
DOCKED: ATOM     22  CM  UNL     1      38.020  14.614 118.321 +0.00 -0.00    +0.000 AC
DOCKED: BRANCH  16  23
DOCKED: ATOM     23  C   UNL     1      38.943  12.230 115.463 -0.56 -0.00    +0.000 C 
DOCKED: ATOM     24  N   UNL     1      37.921  13.228 115.806 -0.45 -0.00    +0.000 N 
DOCKED: ATOM     25  C   UNL     1      36.851  13.506 114.842 -0.35 -0.00    +0.000 C 
DOCKED: ENDBRANCH  16  23
DOCKED: ENDBRANCH  14  19
DOCKED: ENDBRANCH   1  14
DOCKED: TORSDOF 7DOCKED: TER
DOCKED: ENDMDL
________________________________________________________________________________


	BEGINNING GENETIC ALGORITHM DOCKING 53 of 100
Run: 53 Seed: 1329661709 950003103 [ Run 53 of 100 GA/GALS ]
Beginning LAMARCKIAN GENETIC ALGORITHM (LGA), with a maximum of 2500000 energy evaluations.

Final-Value: -14.272


	FINAL GENETIC ALGORITHM DOCKED STATE
	_______________________________________________


Detailed state:  trans 36.761 14.677 121.399 quatxyzw -0.485650 0.423444 -0.501620 -0.577249 center 1.179 0.138 -0.353 ntor 7 8.2928 -115.5247 160.2021 -39.2683 -128.1281 -24.2872 -149.1809
State:	 36.761  14.677 121.399  -0.595  0.519 -0.614 -109.485      8.29 -115.52  160.20  -39.27 -128.13  -24.29 -149.18

DOCKED: MODEL       53
DOCKED: USER    Run = 53
DOCKED: USER    DPF = ligand_dock.biased.dpf
DOCKED: USER  
DOCKED: USER    Estimated Free Energy of Binding    =  -10.37 kcal/mol  [=(1)+(2)+(3)-(4)]
DOCKED: USER    Estimated Inhibition Constant, Ki   =   25.01 nM (nanomolar)  [Temperature = 298.15 K]
DOCKED: USER    
DOCKED: USER    (1) Final Intermolecular Energy     =  -12.46 kcal/mol
DOCKED: USER        vdW + Hbond + desolv Energy     =  -12.46 kcal/mol
DOCKED: USER        Electrostatic Energy            =   +0.00 kcal/mol
DOCKED: USER    (2) Final Total Internal Energy     =   -1.81 kcal/mol
DOCKED: USER    (3) Torsional Free Energy           =   +2.09 kcal/mol
DOCKED: USER    (4) Unbound System's Energy  [=(2)] =   -1.81 kcal/mol
DOCKED: USER    
DOCKED: USER    
DOCKED: USER    NEWDPF move ligand.dum.pdbqt
DOCKED: USER    NEWDPF about 1.179000 0.138000 -0.353000
DOCKED: USER    NEWDPF tran0 36.760887 14.677045 121.399494
DOCKED: USER    NEWDPF quaternion0 -0.485650 0.423444 -0.501620 -0.577249
DOCKED: USER    NEWDPF axisangle0 -0.594745 0.518566 -0.614303 -109.485422
DOCKED: USER    NEWDPF quat0 -0.594745 0.518566 -0.614303 -109.485422
DOCKED: USER    NEWDPF dihe0 8.29 -115.52 160.20 -39.27 -128.13 -24.29 -149.18 
DOCKED: USER  keepresnum = 1 
DOCKED: USER  
DOCKED: REMARK  Name = 
DOCKED: REMARK  11 active torsions:
DOCKED: REMARK  status: ('A' for Active; 'I' for Inactive)
DOCKED: REMARK    1  A    between atoms: C_1  and  N_2
DOCKED: REMARK    2  A    between atoms: N_2  and  C_3
DOCKED: REMARK    3  A    between atoms: N_2  and  C_22
DOCKED: REMARK    4  A    between atoms: C_6  and  C_9
DOCKED: REMARK    5  A    between atoms: C_9  and  C_10
DOCKED: REMARK    6  A    between atoms: C_10  and  C_11
DOCKED: REMARK    7  A    between atoms: C_10  and  C_20
DOCKED: REMARK    8  A    between atoms: C_12  and  C_13
DOCKED: REMARK    9  A    between atoms: C_12  and  C_19
DOCKED: REMARK   10  A    between atoms: C_14  and  C_15
DOCKED: REMARK   11  A    between atoms: N_16  and  O_17
DOCKED: REMARK                            x       y       z     vdW  Elec       q    Type
DOCKED: REMARK                         _______ _______ _______ _____ _____    ______ ____
DOCKED: USER                              x       y       z     vdW  Elec       q    Type
DOCKED: USER                           _______ _______ _______ _____ _____    ______ ____
DOCKED: ROOT
DOCKED: ATOM      1  C   UNL     1      38.436  15.191 122.183 -0.36 -0.00    +0.000 C 
DOCKED: ATOM      2  C   UNL     1      39.883  15.413 122.634 -0.38 -0.00    +0.000 C 
DOCKED: ENDROOT
DOCKED: BRANCH   1   3
DOCKED: ATOM      3  C   UNL     1      38.203  13.731 121.852 -0.45 -0.00    +0.000 C 
DOCKED: ATOM      4  C   UNL     1      37.125  13.022 122.245 -0.54 -0.00    +0.000 C 
DOCKED: ATOM      5  C   UNL     1      36.031  13.639 123.090 -0.48 -0.00    +0.000 C 
DOCKED: BRANCH   4   6
DOCKED: ATOM      6  C   UNL     1      37.069  11.583 121.879 -0.56 -0.00    +0.000 C 
DOCKED: ATOM      7  C   UNL     1      37.046  10.595 122.787 -0.60 -0.00    +0.000 C 
DOCKED: BRANCH   7   8
DOCKED: ATOM      8  C   UNL     1      36.990   9.163 122.428 -0.67 -0.00    +0.000 C 
DOCKED: ATOM      9  N   UNL     1      37.004   8.123 123.415 -0.73 -0.00    +0.000 N 
DOCKED: ATOM     10  O   UNL     1      36.904   8.853 121.210 -2.65 -0.00    +0.000 OA
DOCKED: ATOM     11  H   UNL     1      36.967   8.355 124.372 -0.41 -0.00    +0.000 HD
DOCKED: BRANCH   9  12
DOCKED: ATOM     12  O   UNL     1      37.065   6.826 123.036 -1.62 -0.00    +0.000 OA
DOCKED: ATOM     13  H   UNL     1      37.226   6.774 122.081 -0.28 -0.00    +0.000 HD
DOCKED: ENDBRANCH   9  12
DOCKED: ENDBRANCH   7   8
DOCKED: ENDBRANCH   4   6
DOCKED: ENDBRANCH   1   3
DOCKED: BRANCH   1  14
DOCKED: ATOM     14  C   UNL     1      38.141  16.062 120.980 -0.19 -0.00    +0.000 C 
DOCKED: ATOM     15  O   UNL     1      38.055  17.311 121.141 -0.11 -0.00    +0.000 OA
DOCKED: BRANCH  14  19
DOCKED: ATOM     16  C   UNL     1      37.486  14.393 117.044 -0.28 -0.00    +0.000 A 
DOCKED: ATOM     17  C   UNL     1      36.505  14.298 118.052 -0.32 -0.00    +0.000 A 
DOCKED: ATOM     18  C   UNL     1      36.727  14.837 119.321 -0.20 -0.00    +0.000 A 
DOCKED: ATOM     19  C   UNL     1      37.931  15.494 119.622 -0.18 -0.00    +0.000 A 
DOCKED: ATOM     20  C   UNL     1      38.917  15.584 118.625 -0.14 -0.00    +0.000 A 
DOCKED: ATOM     21  C   UNL     1      38.697  15.043 117.354 -0.16 -0.00    +0.000 A 
DOCKED: ATOM     22  CM  UNL     1      37.711  14.941 118.337 +0.00 -0.00    +0.000 AC
DOCKED: BRANCH  16  23
DOCKED: ATOM     23  C   UNL     1      35.970  14.027 115.045 -0.30 -0.00    +0.000 C 
DOCKED: ATOM     24  N   UNL     1      37.256  13.832 115.724 -0.34 -0.00    +0.000 N 
DOCKED: ATOM     25  C   UNL     1      38.306  13.061 115.048 -0.51 -0.00    +0.000 C 
DOCKED: ENDBRANCH  16  23
DOCKED: ENDBRANCH  14  19
DOCKED: ENDBRANCH   1  14
DOCKED: TORSDOF 7DOCKED: TER
DOCKED: ENDMDL
________________________________________________________________________________


	BEGINNING GENETIC ALGORITHM DOCKING 54 of 100
Run: 54 Seed: 1084702151 58410237 [ Run 54 of 100 GA/GALS ]
Beginning LAMARCKIAN GENETIC ALGORITHM (LGA), with a maximum of 2500000 energy evaluations.

Final-Value: -14.672


	FINAL GENETIC ALGORITHM DOCKED STATE
	_______________________________________________


Detailed state:  trans 39.132 14.766 121.848 quatxyzw 0.367326 -0.444676 -0.664388 -0.475314 center 1.179 0.138 -0.353 ntor 7 10.4331 39.3558 109.4313 -102.7751 134.8226 -67.1253 -61.9483
State:	 39.132  14.766 121.848   0.418 -0.505 -0.755 -123.240     10.43   39.36  109.43 -102.78  134.82  -67.13  -61.95

DOCKED: MODEL       54
DOCKED: USER    Run = 54
DOCKED: USER    DPF = ligand_dock.biased.dpf
DOCKED: USER  
DOCKED: USER    Estimated Free Energy of Binding    =  -10.94 kcal/mol  [=(1)+(2)+(3)-(4)]
DOCKED: USER    Estimated Inhibition Constant, Ki   =    9.62 nM (nanomolar)  [Temperature = 298.15 K]
DOCKED: USER    
DOCKED: USER    (1) Final Intermolecular Energy     =  -13.02 kcal/mol
DOCKED: USER        vdW + Hbond + desolv Energy     =  -13.02 kcal/mol
DOCKED: USER        Electrostatic Energy            =   +0.00 kcal/mol
DOCKED: USER    (2) Final Total Internal Energy     =   -1.65 kcal/mol
DOCKED: USER    (3) Torsional Free Energy           =   +2.09 kcal/mol
DOCKED: USER    (4) Unbound System's Energy  [=(2)] =   -1.65 kcal/mol
DOCKED: USER    
DOCKED: USER    
DOCKED: USER    NEWDPF move ligand.dum.pdbqt
DOCKED: USER    NEWDPF about 1.179000 0.138000 -0.353000
DOCKED: USER    NEWDPF tran0 39.131697 14.765506 121.847803
DOCKED: USER    NEWDPF quaternion0 0.367326 -0.444676 -0.664388 -0.475314
DOCKED: USER    NEWDPF axisangle0 0.417504 -0.505419 -0.755144 -123.240399
DOCKED: USER    NEWDPF quat0 0.417504 -0.505419 -0.755144 -123.240399
DOCKED: USER    NEWDPF dihe0 10.43 39.36 109.43 -102.78 134.82 -67.13 -61.95 
DOCKED: USER  keepresnum = 1 
DOCKED: USER  
DOCKED: REMARK  Name = 
DOCKED: REMARK  11 active torsions:
DOCKED: REMARK  status: ('A' for Active; 'I' for Inactive)
DOCKED: REMARK    1  A    between atoms: C_1  and  N_2
DOCKED: REMARK    2  A    between atoms: N_2  and  C_3
DOCKED: REMARK    3  A    between atoms: N_2  and  C_22
DOCKED: REMARK    4  A    between atoms: C_6  and  C_9
DOCKED: REMARK    5  A    between atoms: C_9  and  C_10
DOCKED: REMARK    6  A    between atoms: C_10  and  C_11
DOCKED: REMARK    7  A    between atoms: C_10  and  C_20
DOCKED: REMARK    8  A    between atoms: C_12  and  C_13
DOCKED: REMARK    9  A    between atoms: C_12  and  C_19
DOCKED: REMARK   10  A    between atoms: C_14  and  C_15
DOCKED: REMARK   11  A    between atoms: N_16  and  O_17
DOCKED: REMARK                            x       y       z     vdW  Elec       q    Type
DOCKED: REMARK                         _______ _______ _______ _____ _____    ______ ____
DOCKED: USER                              x       y       z     vdW  Elec       q    Type
DOCKED: USER                           _______ _______ _______ _____ _____    ______ ____
DOCKED: ROOT
DOCKED: ATOM      1  C   UNL     1      37.390  15.550 122.032 -0.30 -0.00    +0.000 C 
DOCKED: ATOM      2  C   UNL     1      35.952  15.967 122.357 -0.27 -0.00    +0.000 C 
DOCKED: ENDROOT
DOCKED: BRANCH   1   3
DOCKED: ATOM      3  C   UNL     1      37.511  14.040 122.013 -0.44 -0.00    +0.000 C 
DOCKED: ATOM      4  C   UNL     1      37.369  13.276 120.911 -0.46 -0.00    +0.000 C 
DOCKED: ATOM      5  C   UNL     1      37.050  13.879 119.560 -0.37 -0.00    +0.000 C 
DOCKED: BRANCH   4   6
DOCKED: ATOM      6  C   UNL     1      37.471  11.802 121.069 -0.46 -0.00    +0.000 C 
DOCKED: ATOM      7  C   UNL     1      36.728  11.105 121.942 -0.61 -0.00    +0.000 C 
DOCKED: BRANCH   7   8
DOCKED: ATOM      8  C   UNL     1      36.825   9.640 122.104 -0.66 -0.00    +0.000 C 
DOCKED: ATOM      9  N   UNL     1      37.031   9.020 123.380 -0.60 -0.00    +0.000 N 
DOCKED: ATOM     10  O   UNL     1      36.696   8.914 121.082 -2.62 -0.00    +0.000 OA
DOCKED: ATOM     11  H   UNL     1      37.030   9.570 124.197 -0.57 -0.00    +0.000 HD
DOCKED: BRANCH   9  12
DOCKED: ATOM     12  O   UNL     1      37.226   7.683 123.464 -2.22 -0.00    +0.000 OA
DOCKED: ATOM     13  H   UNL     1      37.361   7.319 122.575 -0.16 -0.00    +0.000 HD
DOCKED: ENDBRANCH   9  12
DOCKED: ENDBRANCH   7   8
DOCKED: ENDBRANCH   4   6
DOCKED: ENDBRANCH   1   3
DOCKED: BRANCH   1  14
DOCKED: ATOM     14  C   UNL     1      38.334  16.146 123.054 -0.30 -0.00    +0.000 C 
DOCKED: ATOM     15  O   UNL     1      37.858  16.578 124.140 -0.26 -0.00    +0.000 OA
DOCKED: BRANCH  14  19
DOCKED: ATOM     16  C   UNL     1      42.587  16.429 122.320 -0.36 -0.00    +0.000 A 
DOCKED: ATOM     17  C   UNL     1      41.785  15.499 121.628 -0.31 -0.00    +0.000 A 
DOCKED: ATOM     18  C   UNL     1      40.412  15.413 121.874 -0.33 -0.00    +0.000 A 
DOCKED: ATOM     19  C   UNL     1      39.797  16.256 122.813 -0.25 -0.00    +0.000 A 
DOCKED: ATOM     20  C   UNL     1      40.592  17.179 123.514 -0.27 -0.00    +0.000 A 
DOCKED: ATOM     21  C   UNL     1      41.966  17.265 123.270 -0.32 -0.00    +0.000 A 
DOCKED: ATOM     22  CM  UNL     1      41.190  16.340 122.570 +0.00 -0.00    +0.000 AC
DOCKED: BRANCH  16  23
DOCKED: ATOM     23  C   UNL     1      44.905  17.163 123.038 -0.27 -0.00    +0.000 C 
DOCKED: ATOM     24  N   UNL     1      44.013  16.519 122.065 -0.32 -0.00    +0.000 N 
DOCKED: ATOM     25  C   UNL     1      44.588  15.972 120.831 -0.28 +0.00    +0.000 C 
DOCKED: ENDBRANCH  16  23
DOCKED: ENDBRANCH  14  19
DOCKED: ENDBRANCH   1  14
DOCKED: TORSDOF 7DOCKED: TER
DOCKED: ENDMDL
________________________________________________________________________________


	BEGINNING GENETIC ALGORITHM DOCKING 55 of 100
Run: 55 Seed: 137546419 2129356445 [ Run 55 of 100 GA/GALS ]
Beginning LAMARCKIAN GENETIC ALGORITHM (LGA), with a maximum of 2500000 energy evaluations.

Final-Value: -14.770


	FINAL GENETIC ALGORITHM DOCKED STATE
	_______________________________________________


Detailed state:  trans 36.044 14.408 123.891 quatxyzw -0.664893 0.614882 -0.120935 -0.406463 center 1.179 0.138 -0.353 ntor 7 5.6793 59.9109 169.9819 -175.1424 72.5110 153.0680 -28.2780
State:	 36.044  14.408 123.891  -0.728  0.673 -0.132 -132.034      5.68   59.91  169.98 -175.14   72.51  153.07  -28.28

DOCKED: MODEL       55
DOCKED: USER    Run = 55
DOCKED: USER    DPF = ligand_dock.biased.dpf
DOCKED: USER  
DOCKED: USER    Estimated Free Energy of Binding    =  -11.36 kcal/mol  [=(1)+(2)+(3)-(4)]
DOCKED: USER    Estimated Inhibition Constant, Ki   =    4.68 nM (nanomolar)  [Temperature = 298.15 K]
DOCKED: USER    
DOCKED: USER    (1) Final Intermolecular Energy     =  -13.45 kcal/mol
DOCKED: USER        vdW + Hbond + desolv Energy     =  -13.45 kcal/mol
DOCKED: USER        Electrostatic Energy            =   +0.00 kcal/mol
DOCKED: USER    (2) Final Total Internal Energy     =   -1.32 kcal/mol
DOCKED: USER    (3) Torsional Free Energy           =   +2.09 kcal/mol
DOCKED: USER    (4) Unbound System's Energy  [=(2)] =   -1.32 kcal/mol
DOCKED: USER    
DOCKED: USER    
DOCKED: USER    NEWDPF move ligand.dum.pdbqt
DOCKED: USER    NEWDPF about 1.179000 0.138000 -0.353000
DOCKED: USER    NEWDPF tran0 36.043723 14.407890 123.891481
DOCKED: USER    NEWDPF quaternion0 -0.664893 0.614882 -0.120935 -0.406463
DOCKED: USER    NEWDPF axisangle0 -0.727719 0.672982 -0.132362 -132.034321
DOCKED: USER    NEWDPF quat0 -0.727719 0.672982 -0.132362 -132.034321
DOCKED: USER    NEWDPF dihe0 5.68 59.91 169.98 -175.14 72.51 153.07 -28.28 
DOCKED: USER  keepresnum = 1 
DOCKED: USER  
DOCKED: REMARK  Name = 
DOCKED: REMARK  11 active torsions:
DOCKED: REMARK  status: ('A' for Active; 'I' for Inactive)
DOCKED: REMARK    1  A    between atoms: C_1  and  N_2
DOCKED: REMARK    2  A    between atoms: N_2  and  C_3
DOCKED: REMARK    3  A    between atoms: N_2  and  C_22
DOCKED: REMARK    4  A    between atoms: C_6  and  C_9
DOCKED: REMARK    5  A    between atoms: C_9  and  C_10
DOCKED: REMARK    6  A    between atoms: C_10  and  C_11
DOCKED: REMARK    7  A    between atoms: C_10  and  C_20
DOCKED: REMARK    8  A    between atoms: C_12  and  C_13
DOCKED: REMARK    9  A    between atoms: C_12  and  C_19
DOCKED: REMARK   10  A    between atoms: C_14  and  C_15
DOCKED: REMARK   11  A    between atoms: N_16  and  O_17
DOCKED: REMARK                            x       y       z     vdW  Elec       q    Type
DOCKED: REMARK                         _______ _______ _______ _____ _____    ______ ____
DOCKED: USER                              x       y       z     vdW  Elec       q    Type
DOCKED: USER                           _______ _______ _______ _____ _____    ______ ____
DOCKED: ROOT
DOCKED: ATOM      1  C   UNL     1      37.542  15.342 123.139 -0.38 -0.00    +0.000 C 
DOCKED: ATOM      2  C   UNL     1      38.682  15.940 122.308 -0.29 -0.00    +0.000 C 
DOCKED: ENDROOT
DOCKED: BRANCH   1   3
DOCKED: ATOM      3  C   UNL     1      37.347  13.880 122.796 -0.51 -0.00    +0.000 C 
DOCKED: ATOM      4  C   UNL     1      37.274  13.393 121.540 -0.46 -0.00    +0.000 C 
DOCKED: ATOM      5  C   UNL     1      37.368  14.296 120.329 -0.33 -0.00    +0.000 C 
DOCKED: BRANCH   4   6
DOCKED: ATOM      6  C   UNL     1      37.032  11.936 121.372 -0.55 -0.00    +0.000 C 
DOCKED: ATOM      7  C   UNL     1      37.234  11.042 122.350 -0.34 -0.00    +0.000 C 
DOCKED: BRANCH   7   8
DOCKED: ATOM      8  C   UNL     1      36.996   9.592 122.189 -0.62 -0.00    +0.000 C 
DOCKED: ATOM      9  N   UNL     1      37.056   8.677 123.291 -0.67 -0.00    +0.000 N 
DOCKED: ATOM     10  O   UNL     1      36.706   9.156 121.043 -2.61 -0.00    +0.000 OA
DOCKED: ATOM     11  H   UNL     1      37.180   9.019 124.206 -0.57 -0.00    +0.000 HD
DOCKED: BRANCH   9  12
DOCKED: ATOM     12  O   UNL     1      36.942   7.345 123.076 -2.11 -0.00    +0.000 OA
DOCKED: ATOM     13  H   UNL     1      36.916   7.172 122.122 -0.08 -0.00    +0.000 HD
DOCKED: ENDBRANCH   9  12
DOCKED: ENDBRANCH   7   8
DOCKED: ENDBRANCH   4   6
DOCKED: ENDBRANCH   1   3
DOCKED: BRANCH   1  14
DOCKED: ATOM     14  C   UNL     1      36.269  16.121 122.885 -0.35 -0.00    +0.000 C 
DOCKED: ATOM     15  O   UNL     1      35.910  16.327 121.693 -0.27 -0.00    +0.000 OA
DOCKED: BRANCH  14  19
DOCKED: ATOM     16  C   UNL     1      33.832  17.663 126.108 -0.34 -0.00    +0.000 A 
DOCKED: ATOM     17  C   UNL     1      33.694  16.335 125.658 -0.30 -0.00    +0.000 A 
DOCKED: ATOM     18  C   UNL     1      34.484  15.847 124.614 -0.51 -0.00    +0.000 A 
DOCKED: ATOM     19  C   UNL     1      35.439  16.666 123.992 -0.36 -0.00    +0.000 A 
DOCKED: ATOM     20  C   UNL     1      35.575  17.995 124.430 -0.26 -0.00    +0.000 A 
DOCKED: ATOM     21  C   UNL     1      34.784  18.485 125.473 -0.27 -0.00    +0.000 A 
DOCKED: ATOM     22  CM  UNL     1      34.634  17.165 125.045 -0.35 -0.00    +0.000 AC
DOCKED: BRANCH  16  23
DOCKED: ATOM     23  C   UNL     1      32.477  19.538 127.146 -0.25 -0.00    +0.000 C 
DOCKED: ATOM     24  N   UNL     1      33.012  18.172 127.193 -0.28 -0.00    +0.000 N 
DOCKED: ATOM     25  C   UNL     1      32.705  17.331 128.356 -0.36 -0.00    +0.000 C 
DOCKED: ENDBRANCH  16  23
DOCKED: ENDBRANCH  14  19
DOCKED: ENDBRANCH   1  14
DOCKED: TORSDOF 7DOCKED: TER
DOCKED: ENDMDL
________________________________________________________________________________


	BEGINNING GENETIC ALGORITHM DOCKING 56 of 100
Run: 56 Seed: 1175054852 2066728608 [ Run 56 of 100 GA/GALS ]
Beginning LAMARCKIAN GENETIC ALGORITHM (LGA), with a maximum of 2500000 energy evaluations.

Final-Value: -13.729


	FINAL GENETIC ALGORITHM DOCKED STATE
	_______________________________________________


Detailed state:  trans 38.423 14.247 120.830 quatxyzw -0.075527 -0.197561 -0.785006 -0.582263 center 1.179 0.138 -0.353 ntor 7 39.9425 33.3565 -27.2946 157.1279 -17.7535 -117.8718 -51.2456
State:	 38.423  14.247 120.830  -0.093 -0.243 -0.966 -108.780     39.94   33.36  -27.29  157.13  -17.75 -117.87  -51.25

DOCKED: MODEL       56
DOCKED: USER    Run = 56
DOCKED: USER    DPF = ligand_dock.biased.dpf
DOCKED: USER  
DOCKED: USER    Estimated Free Energy of Binding    =  -10.71 kcal/mol  [=(1)+(2)+(3)-(4)]
DOCKED: USER    Estimated Inhibition Constant, Ki   =   14.15 nM (nanomolar)  [Temperature = 298.15 K]
DOCKED: USER    
DOCKED: USER    (1) Final Intermolecular Energy     =  -12.80 kcal/mol
DOCKED: USER        vdW + Hbond + desolv Energy     =  -12.80 kcal/mol
DOCKED: USER        Electrostatic Energy            =   +0.00 kcal/mol
DOCKED: USER    (2) Final Total Internal Energy     =   -0.93 kcal/mol
DOCKED: USER    (3) Torsional Free Energy           =   +2.09 kcal/mol
DOCKED: USER    (4) Unbound System's Energy  [=(2)] =   -0.93 kcal/mol
DOCKED: USER    
DOCKED: USER    
DOCKED: USER    NEWDPF move ligand.dum.pdbqt
DOCKED: USER    NEWDPF about 1.179000 0.138000 -0.353000
DOCKED: USER    NEWDPF tran0 38.423372 14.246767 120.830238
DOCKED: USER    NEWDPF quaternion0 -0.075527 -0.197561 -0.785006 -0.582263
DOCKED: USER    NEWDPF axisangle0 -0.092900 -0.243003 -0.965567 -108.780297
DOCKED: USER    NEWDPF quat0 -0.092900 -0.243003 -0.965567 -108.780297
DOCKED: USER    NEWDPF dihe0 39.94 33.36 -27.29 157.13 -17.75 -117.87 -51.25 
DOCKED: USER  keepresnum = 1 
DOCKED: USER  
DOCKED: REMARK  Name = 
DOCKED: REMARK  11 active torsions:
DOCKED: REMARK  status: ('A' for Active; 'I' for Inactive)
DOCKED: REMARK    1  A    between atoms: C_1  and  N_2
DOCKED: REMARK    2  A    between atoms: N_2  and  C_3
DOCKED: REMARK    3  A    between atoms: N_2  and  C_22
DOCKED: REMARK    4  A    between atoms: C_6  and  C_9
DOCKED: REMARK    5  A    between atoms: C_9  and  C_10
DOCKED: REMARK    6  A    between atoms: C_10  and  C_11
DOCKED: REMARK    7  A    between atoms: C_10  and  C_20
DOCKED: REMARK    8  A    between atoms: C_12  and  C_13
DOCKED: REMARK    9  A    between atoms: C_12  and  C_19
DOCKED: REMARK   10  A    between atoms: C_14  and  C_15
DOCKED: REMARK   11  A    between atoms: N_16  and  O_17
DOCKED: REMARK                            x       y       z     vdW  Elec       q    Type
DOCKED: REMARK                         _______ _______ _______ _____ _____    ______ ____
DOCKED: USER                              x       y       z     vdW  Elec       q    Type
DOCKED: USER                           _______ _______ _______ _____ _____    ______ ____
DOCKED: ROOT
DOCKED: ATOM      1  C   UNL     1      37.854  15.342 122.300 -0.34 -0.00    +0.000 C 
DOCKED: ATOM      2  C   UNL     1      37.506  16.013 123.633 -0.26 -0.00    +0.000 C 
DOCKED: ENDROOT
DOCKED: BRANCH   1   3
DOCKED: ATOM      3  C   UNL     1      37.705  13.839 122.410 -0.49 -0.00    +0.000 C 
DOCKED: ATOM      4  C   UNL     1      36.693  13.216 123.049 -0.59 -0.00    +0.000 C 
DOCKED: ATOM      5  C   UNL     1      35.594  13.991 123.745 -0.54 -0.00    +0.000 C 
DOCKED: BRANCH   4   6
DOCKED: ATOM      6  C   UNL     1      36.716  11.731 123.108 -0.69 -0.00    +0.000 C 
DOCKED: ATOM      7  C   UNL     1      36.980  10.959 122.043 -0.56 -0.00    +0.000 C 
DOCKED: BRANCH   7   8
DOCKED: ATOM      8  C   UNL     1      37.005   9.483 122.095 -0.63 -0.00    +0.000 C 
DOCKED: ATOM      9  N   UNL     1      36.939   8.757 123.329 -0.64 -0.00    +0.000 N 
DOCKED: ATOM     10  O   UNL     1      37.062   8.845 121.009 -2.70 -0.00    +0.000 OA
DOCKED: ATOM     11  H   UNL     1      36.790   9.240 124.175 -0.50 -0.00    +0.000 HD
DOCKED: BRANCH   9  12
DOCKED: ATOM     12  O   UNL     1      37.077   7.410 123.335 -2.15 -0.00    +0.000 OA
DOCKED: ATOM     13  H   UNL     1      37.770   7.153 122.707 -0.43 -0.00    +0.000 HD
DOCKED: ENDBRANCH   9  12
DOCKED: ENDBRANCH   7   8
DOCKED: ENDBRANCH   4   6
DOCKED: ENDBRANCH   1   3
DOCKED: BRANCH   1  14
DOCKED: ATOM     14  C   UNL     1      39.269  15.707 121.903 -0.30 -0.00    +0.000 C 
DOCKED: ATOM     15  O   UNL     1      40.101  15.985 122.810 -0.36 -0.00    +0.000 OA
DOCKED: BRANCH  14  19
DOCKED: ATOM     16  C   UNL     1      40.579  15.894 117.786 -0.13 -0.00    +0.000 A 
DOCKED: ATOM     17  C   UNL     1      41.485  16.070 118.851 -0.12 -0.00    +0.000 A 
DOCKED: ATOM     18  C   UNL     1      41.052  16.011 120.178 -0.14 -0.00    +0.000 A 
DOCKED: ATOM     19  C   UNL     1      39.703  15.768 120.483 -0.18 -0.00    +0.000 A 
DOCKED: ATOM     20  C   UNL     1      38.792  15.601 119.425 -0.16 -0.00    +0.000 A 
DOCKED: ATOM     21  C   UNL     1      39.224  15.661 118.097 -0.13 -0.00    +0.000 A 
DOCKED: ATOM     22  CM  UNL     1      40.139  15.835 119.137 +0.00 -0.00    +0.000 AC
DOCKED: BRANCH  16  23
DOCKED: ATOM     23  C   UNL     1      40.057  16.054 115.309 -0.22 -0.00    +0.000 C 
DOCKED: ATOM     24  N   UNL     1      41.028  15.955 116.406 -0.23 -0.00    +0.000 N 
DOCKED: ATOM     25  C   UNL     1      42.459  15.916 116.084 -0.29 -0.00    +0.000 C 
DOCKED: ENDBRANCH  16  23
DOCKED: ENDBRANCH  14  19
DOCKED: ENDBRANCH   1  14
DOCKED: TORSDOF 7DOCKED: TER
DOCKED: ENDMDL
________________________________________________________________________________


	BEGINNING GENETIC ALGORITHM DOCKING 57 of 100
Run: 57 Seed: 334592895 1984212905 [ Run 57 of 100 GA/GALS ]
Beginning LAMARCKIAN GENETIC ALGORITHM (LGA), with a maximum of 2500000 energy evaluations.

Final-Value: -15.459


	FINAL GENETIC ALGORITHM DOCKED STATE
	_______________________________________________


Detailed state:  trans 35.929 14.547 121.758 quatxyzw 0.623610 -0.404524 0.477098 0.468879 center 1.179 0.138 -0.353 ntor 7 11.7021 -51.1477 -38.1793 -180.0000 39.8053 -26.3018 175.9015
State:	 35.929  14.547 121.758   0.706 -0.458  0.540 124.077     11.70  -51.15  -38.18 -180.00   39.81  -26.30  175.90

DOCKED: MODEL       57
DOCKED: USER    Run = 57
DOCKED: USER    DPF = ligand_dock.biased.dpf
DOCKED: USER  
DOCKED: USER    Estimated Free Energy of Binding    =  -11.55 kcal/mol  [=(1)+(2)+(3)-(4)]
DOCKED: USER    Estimated Inhibition Constant, Ki   =    3.43 nM (nanomolar)  [Temperature = 298.15 K]
DOCKED: USER    
DOCKED: USER    (1) Final Intermolecular Energy     =  -13.64 kcal/mol
DOCKED: USER        vdW + Hbond + desolv Energy     =  -13.64 kcal/mol
DOCKED: USER        Electrostatic Energy            =   +0.00 kcal/mol
DOCKED: USER    (2) Final Total Internal Energy     =   -1.82 kcal/mol
DOCKED: USER    (3) Torsional Free Energy           =   +2.09 kcal/mol
DOCKED: USER    (4) Unbound System's Energy  [=(2)] =   -1.82 kcal/mol
DOCKED: USER    
DOCKED: USER    
DOCKED: USER    NEWDPF move ligand.dum.pdbqt
DOCKED: USER    NEWDPF about 1.179000 0.138000 -0.353000
DOCKED: USER    NEWDPF tran0 35.928626 14.547148 121.758380
DOCKED: USER    NEWDPF quaternion0 0.623610 -0.404524 0.477098 0.468879
DOCKED: USER    NEWDPF axisangle0 0.706031 -0.457989 0.540155 124.076841
DOCKED: USER    NEWDPF quat0 0.706031 -0.457989 0.540155 124.076841
DOCKED: USER    NEWDPF dihe0 11.70 -51.15 -38.18 -180.00 39.81 -26.30 175.90 
DOCKED: USER  keepresnum = 1 
DOCKED: USER  
DOCKED: REMARK  Name = 
DOCKED: REMARK  11 active torsions:
DOCKED: REMARK  status: ('A' for Active; 'I' for Inactive)
DOCKED: REMARK    1  A    between atoms: C_1  and  N_2
DOCKED: REMARK    2  A    between atoms: N_2  and  C_3
DOCKED: REMARK    3  A    between atoms: N_2  and  C_22
DOCKED: REMARK    4  A    between atoms: C_6  and  C_9
DOCKED: REMARK    5  A    between atoms: C_9  and  C_10
DOCKED: REMARK    6  A    between atoms: C_10  and  C_11
DOCKED: REMARK    7  A    between atoms: C_10  and  C_20
DOCKED: REMARK    8  A    between atoms: C_12  and  C_13
DOCKED: REMARK    9  A    between atoms: C_12  and  C_19
DOCKED: REMARK   10  A    between atoms: C_14  and  C_15
DOCKED: REMARK   11  A    between atoms: N_16  and  O_17
DOCKED: REMARK                            x       y       z     vdW  Elec       q    Type
DOCKED: REMARK                         _______ _______ _______ _____ _____    ______ ____
DOCKED: USER                              x       y       z     vdW  Elec       q    Type
DOCKED: USER                           _______ _______ _______ _____ _____    ______ ____
DOCKED: ROOT
DOCKED: ATOM      1  C   UNL     1      37.686  15.290 121.969 -0.32 -0.00    +0.000 C 
DOCKED: ATOM      2  C   UNL     1      39.173  15.657 121.995 -0.31 -0.00    +0.000 C 
DOCKED: ENDROOT
DOCKED: BRANCH   1   3
DOCKED: ATOM      3  C   UNL     1      37.510  13.789 122.082 -0.47 -0.00    +0.000 C 
DOCKED: ATOM      4  C   UNL     1      36.636  13.184 122.912 -0.58 -0.00    +0.000 C 
DOCKED: ATOM      5  C   UNL     1      35.742  13.974 123.842 -0.56 -0.00    +0.000 C 
DOCKED: BRANCH   4   6
DOCKED: ATOM      6  C   UNL     1      36.619  11.697 122.939 -0.68 -0.00    +0.000 C 
DOCKED: ATOM      7  C   UNL     1      37.056  10.941 121.921 -0.54 -0.00    +0.000 C 
DOCKED: BRANCH   7   8
DOCKED: ATOM      8  C   UNL     1      37.041   9.463 121.942 -0.63 -0.00    +0.000 C 
DOCKED: ATOM      9  N   UNL     1      36.963   8.713 123.160 -0.69 -0.00    +0.000 N 
DOCKED: ATOM     10  O   UNL     1      37.073   8.849 120.842 -2.72 -0.00    +0.000 OA
DOCKED: ATOM     11  H   UNL     1      36.834   9.181 124.017 -0.48 -0.00    +0.000 HD
DOCKED: BRANCH   9  12
DOCKED: ATOM     12  O   UNL     1      37.065   7.363 123.136 -2.17 -0.00    +0.000 OA
DOCKED: ATOM     13  H   UNL     1      37.370   7.077 122.261 -0.19 -0.00    +0.000 HD
DOCKED: ENDBRANCH   9  12
DOCKED: ENDBRANCH   7   8
DOCKED: ENDBRANCH   4   6
DOCKED: ENDBRANCH   1   3
DOCKED: BRANCH   1  14
DOCKED: ATOM     14  C   UNL     1      37.060  15.803 120.690 -0.22 -0.00    +0.000 C 
DOCKED: ATOM     15  O   UNL     1      36.315  16.820 120.745 -0.21 -0.00    +0.000 OA
DOCKED: BRANCH  14  19
DOCKED: ATOM     16  C   UNL     1      37.715  13.913 116.856 -0.33 -0.00    +0.000 A 
DOCKED: ATOM     17  C   UNL     1      38.136  15.236 117.101 -0.18 -0.00    +0.000 A 
DOCKED: ATOM     18  C   UNL     1      37.917  15.839 118.342 -0.14 -0.00    +0.000 A 
DOCKED: ATOM     19  C   UNL     1      37.278  15.139 119.378 -0.21 -0.00    +0.000 A 
DOCKED: ATOM     20  C   UNL     1      36.847  13.823 119.137 -0.33 -0.00    +0.000 A 
DOCKED: ATOM     21  C   UNL     1      37.064  13.219 117.895 -0.32 -0.00    +0.000 A 
DOCKED: ATOM     22  CM  UNL     1      37.492  14.529 118.118 +0.00 -0.00    +0.000 AC
DOCKED: BRANCH  16  23
DOCKED: ATOM     23  C   UNL     1      38.942  12.220 115.421 -0.56 -0.00    +0.000 C 
DOCKED: ATOM     24  N   UNL     1      37.942  13.285 115.566 -0.45 -0.00    +0.000 N 
DOCKED: ATOM     25  C   UNL     1      37.178  13.706 114.386 -0.37 -0.00    +0.000 C 
DOCKED: ENDBRANCH  16  23
DOCKED: ENDBRANCH  14  19
DOCKED: ENDBRANCH   1  14
DOCKED: TORSDOF 7DOCKED: TER
DOCKED: ENDMDL
________________________________________________________________________________


	BEGINNING GENETIC ALGORITHM DOCKING 58 of 100
Run: 58 Seed: 152978354 872966635 [ Run 58 of 100 GA/GALS ]
Beginning LAMARCKIAN GENETIC ALGORITHM (LGA), with a maximum of 2500000 energy evaluations.

Final-Value: -14.696


	FINAL GENETIC ALGORITHM DOCKED STATE
	_______________________________________________


Detailed state:  trans 35.641 14.547 125.340 quatxyzw -0.722567 0.636667 0.263322 -0.056686 center 1.179 0.138 -0.353 ntor 7 2.9830 134.2793 -89.7925 22.3690 152.9140 -84.1460 36.6666
State:	 35.641  14.547 125.340  -0.724  0.638  0.264 -173.501      2.98  134.28  -89.79   22.37  152.91  -84.15   36.67

DOCKED: MODEL       58
DOCKED: USER    Run = 58
DOCKED: USER    DPF = ligand_dock.biased.dpf
DOCKED: USER  
DOCKED: USER    Estimated Free Energy of Binding    =  -11.15 kcal/mol  [=(1)+(2)+(3)-(4)]
DOCKED: USER    Estimated Inhibition Constant, Ki   =    6.76 nM (nanomolar)  [Temperature = 298.15 K]
DOCKED: USER    
DOCKED: USER    (1) Final Intermolecular Energy     =  -13.23 kcal/mol
DOCKED: USER        vdW + Hbond + desolv Energy     =  -13.23 kcal/mol
DOCKED: USER        Electrostatic Energy            =   +0.00 kcal/mol
DOCKED: USER    (2) Final Total Internal Energy     =   -1.46 kcal/mol
DOCKED: USER    (3) Torsional Free Energy           =   +2.09 kcal/mol
DOCKED: USER    (4) Unbound System's Energy  [=(2)] =   -1.46 kcal/mol
DOCKED: USER    
DOCKED: USER    
DOCKED: USER    NEWDPF move ligand.dum.pdbqt
DOCKED: USER    NEWDPF about 1.179000 0.138000 -0.353000
DOCKED: USER    NEWDPF tran0 35.640842 14.546953 125.340338
DOCKED: USER    NEWDPF quaternion0 -0.722567 0.636667 0.263322 -0.056686
DOCKED: USER    NEWDPF axisangle0 -0.723731 0.637692 0.263746 -173.500834
DOCKED: USER    NEWDPF quat0 -0.723731 0.637692 0.263746 -173.500834
DOCKED: USER    NEWDPF dihe0 2.98 134.28 -89.79 22.37 152.91 -84.15 36.67 
DOCKED: USER  keepresnum = 1 
DOCKED: USER  
DOCKED: REMARK  Name = 
DOCKED: REMARK  11 active torsions:
DOCKED: REMARK  status: ('A' for Active; 'I' for Inactive)
DOCKED: REMARK    1  A    between atoms: C_1  and  N_2
DOCKED: REMARK    2  A    between atoms: N_2  and  C_3
DOCKED: REMARK    3  A    between atoms: N_2  and  C_22
DOCKED: REMARK    4  A    between atoms: C_6  and  C_9
DOCKED: REMARK    5  A    between atoms: C_9  and  C_10
DOCKED: REMARK    6  A    between atoms: C_10  and  C_11
DOCKED: REMARK    7  A    between atoms: C_10  and  C_20
DOCKED: REMARK    8  A    between atoms: C_12  and  C_13
DOCKED: REMARK    9  A    between atoms: C_12  and  C_19
DOCKED: REMARK   10  A    between atoms: C_14  and  C_15
DOCKED: REMARK   11  A    between atoms: N_16  and  O_17
DOCKED: REMARK                            x       y       z     vdW  Elec       q    Type
DOCKED: REMARK                         _______ _______ _______ _____ _____    ______ ____
DOCKED: USER                              x       y       z     vdW  Elec       q    Type
DOCKED: USER                           _______ _______ _______ _____ _____    ______ ____
DOCKED: ROOT
DOCKED: ATOM      1  C   UNL     1      35.514  15.650 123.774 -0.49 -0.00    +0.000 C 
DOCKED: ATOM      2  C   UNL     1      35.231  16.338 122.435 -0.24 -0.00    +0.000 C 
DOCKED: ENDROOT
DOCKED: BRANCH   1   3
DOCKED: ATOM      3  C   UNL     1      35.497  14.144 123.609 -0.50 -0.00    +0.000 C 
DOCKED: ATOM      4  C   UNL     1      36.484  13.427 123.035 -0.56 -0.00    +0.000 C 
DOCKED: ATOM      5  C   UNL     1      37.725  14.088 122.473 -0.48 -0.00    +0.000 C 
DOCKED: BRANCH   4   6
DOCKED: ATOM      6  C   UNL     1      36.293  11.959 122.906 -0.67 -0.00    +0.000 C 
DOCKED: ATOM      7  C   UNL     1      37.199  11.149 122.338 -0.41 -0.00    +0.000 C 
DOCKED: BRANCH   7   8
DOCKED: ATOM      8  C   UNL     1      37.014   9.689 122.206 -0.61 -0.00    +0.000 C 
DOCKED: ATOM      9  N   UNL     1      37.083   8.801 123.329 -0.64 -0.00    +0.000 N 
DOCKED: ATOM     10  O   UNL     1      36.765   9.217 121.064 -2.64 -0.00    +0.000 OA
DOCKED: ATOM     11  H   UNL     1      37.175   9.168 124.239 -0.58 -0.00    +0.000 HD
DOCKED: BRANCH   9  12
DOCKED: ATOM     12  O   UNL     1      37.020   7.462 123.144 -2.20 -0.00    +0.000 OA
DOCKED: ATOM     13  H   UNL     1      36.977   7.268 122.195 -0.08 -0.00    +0.000 HD
DOCKED: ENDBRANCH   9  12
DOCKED: ENDBRANCH   7   8
DOCKED: ENDBRANCH   4   6
DOCKED: ENDBRANCH   1   3
DOCKED: BRANCH   1  14
DOCKED: ATOM     14  C   UNL     1      34.484  16.084 124.795 -0.54 -0.00    +0.000 C 
DOCKED: ATOM     15  O   UNL     1      33.692  15.219 125.264 -0.60 -0.00    +0.000 OA
DOCKED: BRANCH  14  19
DOCKED: ATOM     16  C   UNL     1      34.169  20.199 126.087 -0.17 -0.00    +0.000 A 
DOCKED: ATOM     17  C   UNL     1      35.186  19.785 125.203 -0.18 -0.00    +0.000 A 
DOCKED: ATOM     18  C   UNL     1      35.282  18.453 124.794 -0.25 -0.00    +0.000 A 
DOCKED: ATOM     19  C   UNL     1      34.362  17.494 125.248 -0.37 -0.00    +0.000 A 
DOCKED: ATOM     20  C   UNL     1      33.351  17.899 126.137 -0.28 -0.00    +0.000 A 
DOCKED: ATOM     21  C   UNL     1      33.256  19.231 126.549 -0.24 -0.00    +0.000 A 
DOCKED: ATOM     22  CM  UNL     1      34.268  18.843 125.670 -0.13 -0.00    +0.000 AC
DOCKED: BRANCH  16  23
DOCKED: ATOM     23  C   UNL     1      35.116  22.185 127.348 -0.06 -0.00    +0.000 C 
DOCKED: ATOM     24  N   UNL     1      34.069  21.584 126.513 -0.14 -0.00    +0.000 N 
DOCKED: ATOM     25  C   UNL     1      32.919  22.405 126.119 -0.20 -0.00    +0.000 C 
DOCKED: ENDBRANCH  16  23
DOCKED: ENDBRANCH  14  19
DOCKED: ENDBRANCH   1  14
DOCKED: TORSDOF 7DOCKED: TER
DOCKED: ENDMDL
________________________________________________________________________________


	BEGINNING GENETIC ALGORITHM DOCKING 59 of 100
Run: 59 Seed: 1322291054 1104073478 [ Run 59 of 100 GA/GALS ]
Beginning LAMARCKIAN GENETIC ALGORITHM (LGA), with a maximum of 2500000 energy evaluations.

Final-Value: -14.884


	FINAL GENETIC ALGORITHM DOCKED STATE
	_______________________________________________


Detailed state:  trans 36.246 14.785 123.535 quatxyzw 0.686295 -0.643336 0.150923 0.303876 center 1.179 0.138 -0.353 ntor 7 3.0677 -80.7520 -76.1706 -153.0045 -169.5299 22.5996 -31.4414
State:	 36.246  14.785 123.535   0.720 -0.675  0.158 144.619      3.07  -80.75  -76.17 -153.00 -169.53   22.60  -31.44

DOCKED: MODEL       59
DOCKED: USER    Run = 59
DOCKED: USER    DPF = ligand_dock.biased.dpf
DOCKED: USER  
DOCKED: USER    Estimated Free Energy of Binding    =  -11.19 kcal/mol  [=(1)+(2)+(3)-(4)]
DOCKED: USER    Estimated Inhibition Constant, Ki   =    6.31 nM (nanomolar)  [Temperature = 298.15 K]
DOCKED: USER    
DOCKED: USER    (1) Final Intermolecular Energy     =  -13.27 kcal/mol
DOCKED: USER        vdW + Hbond + desolv Energy     =  -13.27 kcal/mol
DOCKED: USER        Electrostatic Energy            =   +0.00 kcal/mol
DOCKED: USER    (2) Final Total Internal Energy     =   -1.61 kcal/mol
DOCKED: USER    (3) Torsional Free Energy           =   +2.09 kcal/mol
DOCKED: USER    (4) Unbound System's Energy  [=(2)] =   -1.61 kcal/mol
DOCKED: USER    
DOCKED: USER    
DOCKED: USER    NEWDPF move ligand.dum.pdbqt
DOCKED: USER    NEWDPF about 1.179000 0.138000 -0.353000
DOCKED: USER    NEWDPF tran0 36.246209 14.784658 123.535221
DOCKED: USER    NEWDPF quaternion0 0.686295 -0.643336 0.150923 0.303876
DOCKED: USER    NEWDPF axisangle0 0.720359 -0.675268 0.158415 144.618899
DOCKED: USER    NEWDPF quat0 0.720359 -0.675268 0.158415 144.618899
DOCKED: USER    NEWDPF dihe0 3.07 -80.75 -76.17 -153.00 -169.53 22.60 -31.44 
DOCKED: USER  keepresnum = 1 
DOCKED: USER  
DOCKED: REMARK  Name = 
DOCKED: REMARK  11 active torsions:
DOCKED: REMARK  status: ('A' for Active; 'I' for Inactive)
DOCKED: REMARK    1  A    between atoms: C_1  and  N_2
DOCKED: REMARK    2  A    between atoms: N_2  and  C_3
DOCKED: REMARK    3  A    between atoms: N_2  and  C_22
DOCKED: REMARK    4  A    between atoms: C_6  and  C_9
DOCKED: REMARK    5  A    between atoms: C_9  and  C_10
DOCKED: REMARK    6  A    between atoms: C_10  and  C_11
DOCKED: REMARK    7  A    between atoms: C_10  and  C_20
DOCKED: REMARK    8  A    between atoms: C_12  and  C_13
DOCKED: REMARK    9  A    between atoms: C_12  and  C_19
DOCKED: REMARK   10  A    between atoms: C_14  and  C_15
DOCKED: REMARK   11  A    between atoms: N_16  and  O_17
DOCKED: REMARK                            x       y       z     vdW  Elec       q    Type
DOCKED: REMARK                         _______ _______ _______ _____ _____    ______ ____
DOCKED: USER                              x       y       z     vdW  Elec       q    Type
DOCKED: USER                           _______ _______ _______ _____ _____    ______ ____
DOCKED: ROOT
DOCKED: ATOM      1  C   UNL     1      37.689  15.460 122.464 -0.34 -0.00    +0.000 C 
DOCKED: ATOM      2  C   UNL     1      38.750  15.817 121.418 -0.24 -0.00    +0.000 C 
DOCKED: ENDROOT
DOCKED: BRANCH   1   3
DOCKED: ATOM      3  C   UNL     1      37.381  13.978 122.422 -0.48 -0.00    +0.000 C 
DOCKED: ATOM      4  C   UNL     1      36.461  13.366 123.195 -0.59 -0.00    +0.000 C 
DOCKED: ATOM      5  C   UNL     1      35.642  14.130 124.214 -0.47 -0.00    +0.000 C 
DOCKED: BRANCH   4   6
DOCKED: ATOM      6  C   UNL     1      36.313  11.893 123.067 -0.69 -0.00    +0.000 C 
DOCKED: ATOM      7  C   UNL     1      37.098  11.143 122.279 -0.53 -0.00    +0.000 C 
DOCKED: BRANCH   7   8
DOCKED: ATOM      8  C   UNL     1      36.956   9.678 122.147 -0.62 -0.00    +0.000 C 
DOCKED: ATOM      9  N   UNL     1      37.049   8.793 123.271 -0.66 -0.00    +0.000 N 
DOCKED: ATOM     10  O   UNL     1      36.720   9.200 121.005 -2.61 +0.00    +0.000 OA
DOCKED: ATOM     11  H   UNL     1      37.130   9.163 124.180 -0.57 -0.00    +0.000 HD
DOCKED: BRANCH   9  12
DOCKED: ATOM     12  O   UNL     1      37.024   7.453 123.085 -2.20 -0.00    +0.000 OA
DOCKED: ATOM     13  H   UNL     1      36.989   7.258 122.136 -0.08 -0.00    +0.000 HD
DOCKED: ENDBRANCH   9  12
DOCKED: ENDBRANCH   7   8
DOCKED: ENDBRANCH   4   6
DOCKED: ENDBRANCH   1   3
DOCKED: BRANCH   1  14
DOCKED: ATOM     14  C   UNL     1      36.434  16.270 122.210 -0.28 -0.00    +0.000 C 
DOCKED: ATOM     15  O   UNL     1      35.981  16.332 121.033 -0.23 -0.00    +0.000 OA
DOCKED: BRANCH  14  19
DOCKED: ATOM     16  C   UNL     1      34.436  18.421 125.385 -0.30 -0.00    +0.000 A 
DOCKED: ATOM     17  C   UNL     1      35.836  18.262 125.377 -0.21 -0.00    +0.000 A 
DOCKED: ATOM     18  C   UNL     1      36.473  17.563 124.348 -0.22 -0.00    +0.000 A 
DOCKED: ATOM     19  C   UNL     1      35.732  17.006 123.293 -0.30 -0.00    +0.000 A 
DOCKED: ATOM     20  C   UNL     1      34.335  17.152 123.300 -0.38 -0.00    +0.000 A 
DOCKED: ATOM     21  C   UNL     1      33.696  17.850 124.330 -0.27 -0.00    +0.000 A 
DOCKED: ATOM     22  CM  UNL     1      35.085  17.708 124.339 -0.33 -0.00    +0.000 AC
DOCKED: BRANCH  16  23
DOCKED: ATOM     23  C   UNL     1      33.764  20.615 126.464 -0.18 -0.00    +0.000 C 
DOCKED: ATOM     24  N   UNL     1      33.773  19.147 126.453 -0.24 -0.00    +0.000 N 
DOCKED: ATOM     25  C   UNL     1      33.102  18.426 127.542 -0.26 -0.00    +0.000 C 
DOCKED: ENDBRANCH  16  23
DOCKED: ENDBRANCH  14  19
DOCKED: ENDBRANCH   1  14
DOCKED: TORSDOF 7DOCKED: TER
DOCKED: ENDMDL
________________________________________________________________________________


	BEGINNING GENETIC ALGORITHM DOCKING 60 of 100
Run: 60 Seed: 254300213 920988798 [ Run 60 of 100 GA/GALS ]
Beginning LAMARCKIAN GENETIC ALGORITHM (LGA), with a maximum of 2500000 energy evaluations.

Final-Value: -14.619


	FINAL GENETIC ALGORITHM DOCKED STATE
	_______________________________________________


Detailed state:  trans 39.347 14.097 121.558 quatxyzw -0.291231 0.559024 0.658224 0.411603 center 1.179 0.138 -0.353 ntor 7 16.1358 143.5039 -39.7013 -173.6223 16.3549 150.7199 -41.7987
State:	 39.347  14.097 121.558  -0.320  0.613  0.722 131.389     16.14  143.50  -39.70 -173.62   16.35  150.72  -41.80

DOCKED: MODEL       60
DOCKED: USER    Run = 60
DOCKED: USER    DPF = ligand_dock.biased.dpf
DOCKED: USER  
DOCKED: USER    Estimated Free Energy of Binding    =  -11.16 kcal/mol  [=(1)+(2)+(3)-(4)]
DOCKED: USER    Estimated Inhibition Constant, Ki   =    6.63 nM (nanomolar)  [Temperature = 298.15 K]
DOCKED: USER    
DOCKED: USER    (1) Final Intermolecular Energy     =  -13.25 kcal/mol
DOCKED: USER        vdW + Hbond + desolv Energy     =  -13.25 kcal/mol
DOCKED: USER        Electrostatic Energy            =   +0.00 kcal/mol
DOCKED: USER    (2) Final Total Internal Energy     =   -1.37 kcal/mol
DOCKED: USER    (3) Torsional Free Energy           =   +2.09 kcal/mol
DOCKED: USER    (4) Unbound System's Energy  [=(2)] =   -1.37 kcal/mol
DOCKED: USER    
DOCKED: USER    
DOCKED: USER    NEWDPF move ligand.dum.pdbqt
DOCKED: USER    NEWDPF about 1.179000 0.138000 -0.353000
DOCKED: USER    NEWDPF tran0 39.346947 14.096541 121.557882
DOCKED: USER    NEWDPF quaternion0 -0.291231 0.559024 0.658224 0.411603
DOCKED: USER    NEWDPF axisangle0 -0.319556 0.613393 0.722242 131.388865
DOCKED: USER    NEWDPF quat0 -0.319556 0.613393 0.722242 131.388865
DOCKED: USER    NEWDPF dihe0 16.14 143.50 -39.70 -173.62 16.35 150.72 -41.80 
DOCKED: USER  keepresnum = 1 
DOCKED: USER  
DOCKED: REMARK  Name = 
DOCKED: REMARK  11 active torsions:
DOCKED: REMARK  status: ('A' for Active; 'I' for Inactive)
DOCKED: REMARK    1  A    between atoms: C_1  and  N_2
DOCKED: REMARK    2  A    between atoms: N_2  and  C_3
DOCKED: REMARK    3  A    between atoms: N_2  and  C_22
DOCKED: REMARK    4  A    between atoms: C_6  and  C_9
DOCKED: REMARK    5  A    between atoms: C_9  and  C_10
DOCKED: REMARK    6  A    between atoms: C_10  and  C_11
DOCKED: REMARK    7  A    between atoms: C_10  and  C_20
DOCKED: REMARK    8  A    between atoms: C_12  and  C_13
DOCKED: REMARK    9  A    between atoms: C_12  and  C_19
DOCKED: REMARK   10  A    between atoms: C_14  and  C_15
DOCKED: REMARK   11  A    between atoms: N_16  and  O_17
DOCKED: REMARK                            x       y       z     vdW  Elec       q    Type
DOCKED: REMARK                         _______ _______ _______ _____ _____    ______ ____
DOCKED: USER                              x       y       z     vdW  Elec       q    Type
DOCKED: USER                           _______ _______ _______ _____ _____    ______ ____
DOCKED: ROOT
DOCKED: ATOM      1  C   UNL     1      37.830  15.268 121.448 -0.29 -0.00    +0.000 C 
DOCKED: ATOM      2  C   UNL     1      36.517  16.047 121.567 -0.22 -0.00    +0.000 C 
DOCKED: ENDROOT
DOCKED: BRANCH   1   3
DOCKED: ATOM      3  C   UNL     1      37.596  13.793 121.701 -0.45 -0.00    +0.000 C 
DOCKED: ATOM      4  C   UNL     1      36.926  13.297 122.762 -0.56 -0.00    +0.000 C 
DOCKED: ATOM      5  C   UNL     1      36.348  14.199 123.831 -0.51 -0.00    +0.000 C 
DOCKED: BRANCH   4   6
DOCKED: ATOM      6  C   UNL     1      36.824  11.820 122.891 -0.66 -0.00    +0.000 C 
DOCKED: ATOM      7  C   UNL     1      37.063  10.977 121.876 -0.54 -0.00    +0.000 C 
DOCKED: BRANCH   7   8
DOCKED: ATOM      8  C   UNL     1      36.963   9.508 121.998 -0.64 -0.00    +0.000 C 
DOCKED: ATOM      9  N   UNL     1      37.051   8.835 123.261 -0.65 -0.00    +0.000 N 
DOCKED: ATOM     10  O   UNL     1      36.769   8.831 120.953 -2.62 -0.00    +0.000 OA
DOCKED: ATOM     11  H   UNL     1      37.098   9.358 124.093 -0.55 -0.00    +0.000 HD
DOCKED: BRANCH   9  12
DOCKED: ATOM     12  O   UNL     1      37.066   7.482 123.311 -2.20 -0.00    +0.000 OA
DOCKED: ATOM     13  H   UNL     1      37.267   7.127 122.431 -0.16 -0.00    +0.000 HD
DOCKED: ENDBRANCH   9  12
DOCKED: ENDBRANCH   7   8
DOCKED: ENDBRANCH   4   6
DOCKED: ENDBRANCH   1   3
DOCKED: BRANCH   1  14
DOCKED: ATOM     14  C   UNL     1      38.839  15.822 122.431 -0.31 -0.00    +0.000 C 
DOCKED: ATOM     15  O   UNL     1      38.435  16.205 123.564 -0.32 -0.00    +0.000 OA
DOCKED: BRANCH  14  19
DOCKED: ATOM     16  C   UNL     1      43.052  16.170 121.518 -0.29 -0.00    +0.000 A 
DOCKED: ATOM     17  C   UNL     1      42.611  15.764 122.793 -0.37 -0.00    +0.000 A 
DOCKED: ATOM     18  C   UNL     1      41.248  15.657 123.080 -0.37 -0.00    +0.000 A 
DOCKED: ATOM     19  C   UNL     1      40.283  15.946 122.101 -0.29 -0.00    +0.000 A 
DOCKED: ATOM     20  C   UNL     1      40.716  16.362 120.830 -0.17 -0.00    +0.000 A 
DOCKED: ATOM     21  C   UNL     1      42.080  16.471 120.543 -0.18 -0.00    +0.000 A 
DOCKED: ATOM     22  CM  UNL     1      41.665  16.062 121.811 +0.00 -0.00    +0.000 AC
DOCKED: BRANCH  16  23
DOCKED: ATOM     23  C   UNL     1      45.335  17.149 122.025 -0.30 -0.00    +0.000 C 
DOCKED: ATOM     24  N   UNL     1      44.468  16.282 121.218 -0.26 -0.00    +0.000 N 
DOCKED: ATOM     25  C   UNL     1      45.057  15.531 120.103 -0.34 +0.00    +0.000 C 
DOCKED: ENDBRANCH  16  23
DOCKED: ENDBRANCH  14  19
DOCKED: ENDBRANCH   1  14
DOCKED: TORSDOF 7DOCKED: TER
DOCKED: ENDMDL
________________________________________________________________________________


	BEGINNING GENETIC ALGORITHM DOCKING 61 of 100
Run: 61 Seed: 1786656089 479534969 [ Run 61 of 100 GA/GALS ]
Beginning LAMARCKIAN GENETIC ALGORITHM (LGA), with a maximum of 2500000 energy evaluations.

Final-Value: -14.877


	FINAL GENETIC ALGORITHM DOCKED STATE
	_______________________________________________


Detailed state:  trans 36.139 14.581 123.763 quatxyzw 0.672498 -0.630763 0.116845 0.369095 center 1.179 0.138 -0.353 ntor 7 0.5672 34.2979 -178.2502 180.0000 95.6920 149.4447 -40.1882
State:	 36.139  14.581 123.763   0.724 -0.679  0.126 136.680      0.57   34.30 -178.25  180.00   95.69  149.44  -40.19

DOCKED: MODEL       61
DOCKED: USER    Run = 61
DOCKED: USER    DPF = ligand_dock.biased.dpf
DOCKED: USER  
DOCKED: USER    Estimated Free Energy of Binding    =  -11.36 kcal/mol  [=(1)+(2)+(3)-(4)]
DOCKED: USER    Estimated Inhibition Constant, Ki   =    4.68 nM (nanomolar)  [Temperature = 298.15 K]
DOCKED: USER    
DOCKED: USER    (1) Final Intermolecular Energy     =  -13.45 kcal/mol
DOCKED: USER        vdW + Hbond + desolv Energy     =  -13.45 kcal/mol
DOCKED: USER        Electrostatic Energy            =   +0.00 kcal/mol
DOCKED: USER    (2) Final Total Internal Energy     =   -1.43 kcal/mol
DOCKED: USER    (3) Torsional Free Energy           =   +2.09 kcal/mol
DOCKED: USER    (4) Unbound System's Energy  [=(2)] =   -1.43 kcal/mol
DOCKED: USER    
DOCKED: USER    
DOCKED: USER    NEWDPF move ligand.dum.pdbqt
DOCKED: USER    NEWDPF about 1.179000 0.138000 -0.353000
DOCKED: USER    NEWDPF tran0 36.139410 14.580561 123.763100
DOCKED: USER    NEWDPF quaternion0 0.672498 -0.630763 0.116845 0.369095
DOCKED: USER    NEWDPF axisangle0 0.723590 -0.678684 0.125722 136.680401
DOCKED: USER    NEWDPF quat0 0.723590 -0.678684 0.125722 136.680401
DOCKED: USER    NEWDPF dihe0 0.57 34.30 -178.25 180.00 95.69 149.44 -40.19 
DOCKED: USER  keepresnum = 1 
DOCKED: USER  
DOCKED: REMARK  Name = 
DOCKED: REMARK  11 active torsions:
DOCKED: REMARK  status: ('A' for Active; 'I' for Inactive)
DOCKED: REMARK    1  A    between atoms: C_1  and  N_2
DOCKED: REMARK    2  A    between atoms: N_2  and  C_3
DOCKED: REMARK    3  A    between atoms: N_2  and  C_22
DOCKED: REMARK    4  A    between atoms: C_6  and  C_9
DOCKED: REMARK    5  A    between atoms: C_9  and  C_10
DOCKED: REMARK    6  A    between atoms: C_10  and  C_11
DOCKED: REMARK    7  A    between atoms: C_10  and  C_20
DOCKED: REMARK    8  A    between atoms: C_12  and  C_13
DOCKED: REMARK    9  A    between atoms: C_12  and  C_19
DOCKED: REMARK   10  A    between atoms: C_14  and  C_15
DOCKED: REMARK   11  A    between atoms: N_16  and  O_17
DOCKED: REMARK                            x       y       z     vdW  Elec       q    Type
DOCKED: REMARK                         _______ _______ _______ _____ _____    ______ ____
DOCKED: USER                              x       y       z     vdW  Elec       q    Type
DOCKED: USER                           _______ _______ _______ _____ _____    ______ ____
DOCKED: ROOT
DOCKED: ATOM      1  C   UNL     1      37.599  15.450 122.870 -0.37 -0.00    +0.000 C 
DOCKED: ATOM      2  C   UNL     1      38.691  15.987 121.939 -0.25 -0.00    +0.000 C 
DOCKED: ENDROOT
DOCKED: BRANCH   1   3
DOCKED: ATOM      3  C   UNL     1      37.359  13.977 122.610 -0.49 -0.00    +0.000 C 
DOCKED: ATOM      4  C   UNL     1      37.125  13.445 121.393 -0.44 -0.00    +0.000 C 
DOCKED: ATOM      5  C   UNL     1      37.066  14.301 120.147 -0.30 -0.00    +0.000 C 
DOCKED: BRANCH   4   6
DOCKED: ATOM      6  C   UNL     1      36.860  11.984 121.313 -0.54 -0.00    +0.000 C 
DOCKED: ATOM      7  C   UNL     1      37.267  11.113 122.248 -0.31 -0.00    +0.000 C 
DOCKED: BRANCH   7   8
DOCKED: ATOM      8  C   UNL     1      37.007   9.660 122.173 -0.61 -0.00    +0.000 C 
DOCKED: ATOM      9  N   UNL     1      37.065   8.809 123.326 -0.64 -0.00    +0.000 N 
DOCKED: ATOM     10  O   UNL     1      36.700   9.163 121.057 -2.61 -0.00    +0.000 OA
DOCKED: ATOM     11  H   UNL     1      37.201   9.202 124.218 -0.59 -0.00    +0.000 HD
DOCKED: BRANCH   9  12
DOCKED: ATOM     12  O   UNL     1      36.930   7.469 123.190 -2.16 -0.00    +0.000 OA
DOCKED: ATOM     13  H   UNL     1      36.812   7.249 122.252 -0.06 -0.00    +0.000 HD
DOCKED: ENDBRANCH   9  12
DOCKED: ENDBRANCH   7   8
DOCKED: ENDBRANCH   4   6
DOCKED: ENDBRANCH   1   3
DOCKED: BRANCH   1  14
DOCKED: ATOM     14  C   UNL     1      36.324  16.241 122.664 -0.32 -0.00    +0.000 C 
DOCKED: ATOM     15  O   UNL     1      36.011  16.593 121.493 -0.25 -0.00    +0.000 OA
DOCKED: BRANCH  14  19
DOCKED: ATOM     16  C   UNL     1      33.748  17.327 125.964 -0.35 -0.00    +0.000 A 
DOCKED: ATOM     17  C   UNL     1      34.008  15.977 125.652 -0.36 -0.00    +0.000 A 
DOCKED: ATOM     18  C   UNL     1      34.839  15.636 124.582 -0.49 -0.00    +0.000 A 
DOCKED: ATOM     19  C   UNL     1      35.441  16.631 123.795 -0.36 -0.00    +0.000 A 
DOCKED: ATOM     20  C   UNL     1      35.179  17.978 124.095 -0.29 -0.00    +0.000 A 
DOCKED: ATOM     21  C   UNL     1      34.346  18.321 125.164 -0.31 -0.00    +0.000 A 
DOCKED: ATOM     22  CM  UNL     1      34.593  16.978 124.875 -0.29 -0.00    +0.000 AC
DOCKED: BRANCH  16  23
DOCKED: ATOM     23  C   UNL     1      32.374  19.052 127.215 -0.26 -0.00    +0.000 C 
DOCKED: ATOM     24  N   UNL     1      32.884  17.683 127.075 -0.32 -0.00    +0.000 N 
DOCKED: ATOM     25  C   UNL     1      32.508  16.680 128.080 -0.45 -0.00    +0.000 C 
DOCKED: ENDBRANCH  16  23
DOCKED: ENDBRANCH  14  19
DOCKED: ENDBRANCH   1  14
DOCKED: TORSDOF 7DOCKED: TER
DOCKED: ENDMDL
________________________________________________________________________________


	BEGINNING GENETIC ALGORITHM DOCKING 62 of 100
Run: 62 Seed: 1390792835 199611800 [ Run 62 of 100 GA/GALS ]
Beginning LAMARCKIAN GENETIC ALGORITHM (LGA), with a maximum of 2500000 energy evaluations.

Final-Value: -14.195


	FINAL GENETIC ALGORITHM DOCKED STATE
	_______________________________________________


Detailed state:  trans 38.417 14.876 122.741 quatxyzw -0.537102 0.560073 0.559452 0.291295 center 1.179 0.138 -0.353 ntor 7 3.3635 -118.2896 129.3341 180.0000 34.0830 -45.1120 123.1490
State:	 38.417  14.876 122.741  -0.561  0.585  0.585 146.129      3.36 -118.29  129.33  180.00   34.08  -45.11  123.15

DOCKED: MODEL       62
DOCKED: USER    Run = 62
DOCKED: USER    DPF = ligand_dock.biased.dpf
DOCKED: USER  
DOCKED: USER    Estimated Free Energy of Binding    =  -10.44 kcal/mol  [=(1)+(2)+(3)-(4)]
DOCKED: USER    Estimated Inhibition Constant, Ki   =   22.10 nM (nanomolar)  [Temperature = 298.15 K]
DOCKED: USER    
DOCKED: USER    (1) Final Intermolecular Energy     =  -12.53 kcal/mol
DOCKED: USER        vdW + Hbond + desolv Energy     =  -12.53 kcal/mol
DOCKED: USER        Electrostatic Energy            =   +0.00 kcal/mol
DOCKED: USER    (2) Final Total Internal Energy     =   -1.66 kcal/mol
DOCKED: USER    (3) Torsional Free Energy           =   +2.09 kcal/mol
DOCKED: USER    (4) Unbound System's Energy  [=(2)] =   -1.66 kcal/mol
DOCKED: USER    
DOCKED: USER    
DOCKED: USER    NEWDPF move ligand.dum.pdbqt
DOCKED: USER    NEWDPF about 1.179000 0.138000 -0.353000
DOCKED: USER    NEWDPF tran0 38.416618 14.876007 122.740520
DOCKED: USER    NEWDPF quaternion0 -0.537102 0.560073 0.559452 0.291295
DOCKED: USER    NEWDPF axisangle0 -0.561450 0.585463 0.584814 146.128994
DOCKED: USER    NEWDPF quat0 -0.561450 0.585463 0.584814 146.128994
DOCKED: USER    NEWDPF dihe0 3.36 -118.29 129.33 180.00 34.08 -45.11 123.15 
DOCKED: USER  keepresnum = 1 
DOCKED: USER  
DOCKED: REMARK  Name = 
DOCKED: REMARK  11 active torsions:
DOCKED: REMARK  status: ('A' for Active; 'I' for Inactive)
DOCKED: REMARK    1  A    between atoms: C_1  and  N_2
DOCKED: REMARK    2  A    between atoms: N_2  and  C_3
DOCKED: REMARK    3  A    between atoms: N_2  and  C_22
DOCKED: REMARK    4  A    between atoms: C_6  and  C_9
DOCKED: REMARK    5  A    between atoms: C_9  and  C_10
DOCKED: REMARK    6  A    between atoms: C_10  and  C_11
DOCKED: REMARK    7  A    between atoms: C_10  and  C_20
DOCKED: REMARK    8  A    between atoms: C_12  and  C_13
DOCKED: REMARK    9  A    between atoms: C_12  and  C_19
DOCKED: REMARK   10  A    between atoms: C_14  and  C_15
DOCKED: REMARK   11  A    between atoms: N_16  and  O_17
DOCKED: REMARK                            x       y       z     vdW  Elec       q    Type
DOCKED: REMARK                         _______ _______ _______ _____ _____    ______ ____
DOCKED: USER                              x       y       z     vdW  Elec       q    Type
DOCKED: USER                           _______ _______ _______ _____ _____    ______ ____
DOCKED: ROOT
DOCKED: ATOM      1  C   UNL     1      36.915  15.808 121.992 -0.28 -0.00    +0.000 C 
DOCKED: ATOM      2  C   UNL     1      35.566  16.344 121.504 +0.10 -0.00    +0.000 C 
DOCKED: ENDROOT
DOCKED: BRANCH   1   3
DOCKED: ATOM      3  C   UNL     1      36.935  14.295 121.937 -0.35 -0.00    +0.000 C 
DOCKED: ATOM      4  C   UNL     1      37.731  13.571 121.125 -0.44 -0.00    +0.000 C 
DOCKED: ATOM      5  C   UNL     1      38.692  14.229 120.158 -0.21 -0.00    +0.000 C 
DOCKED: BRANCH   4   6
DOCKED: ATOM      6  C   UNL     1      37.595  12.091 121.157 -0.42 -0.00    +0.000 C 
DOCKED: ATOM      7  C   UNL     1      37.094  11.423 122.207 -0.55 -0.00    +0.000 C 
DOCKED: BRANCH   7   8
DOCKED: ATOM      8  C   UNL     1      36.958   9.952 122.245 -0.60 -0.00    +0.000 C 
DOCKED: ATOM      9  N   UNL     1      37.092   9.199 123.457 -0.54 -0.00    +0.000 N 
DOCKED: ATOM     10  O   UNL     1      36.690   9.347 121.172 -2.47 -0.00    +0.000 OA
DOCKED: ATOM     11  H   UNL     1      37.198   9.669 124.316 -0.57 -0.00    +0.000 HD
DOCKED: BRANCH   9  12
DOCKED: ATOM     12  O   UNL     1      37.070   7.847 123.424 -2.26 -0.00    +0.000 OA
DOCKED: ATOM     13  H   UNL     1      37.011   7.545 122.504 -0.06 -0.00    +0.000 HD
DOCKED: ENDBRANCH   9  12
DOCKED: ENDBRANCH   7   8
DOCKED: ENDBRANCH   4   6
DOCKED: ENDBRANCH   1   3
DOCKED: BRANCH   1  14
DOCKED: ATOM     14  C   UNL     1      37.171  16.292 123.404 -0.32 -0.00    +0.000 C 
DOCKED: ATOM     15  O   UNL     1      38.359  16.325 123.828 -0.32 -0.00    +0.000 OA
DOCKED: BRANCH  14  19
DOCKED: ATOM     16  C   UNL     1      33.989  17.552 126.049 -0.35 -0.00    +0.000 A 
DOCKED: ATOM     17  C   UNL     1      35.057  18.414 125.726 -0.24 -0.00    +0.000 A 
DOCKED: ATOM     18  C   UNL     1      36.081  17.996 124.873 -0.22 -0.00    +0.000 A 
DOCKED: ATOM     19  C   UNL     1      36.069  16.710 124.311 -0.26 -0.00    +0.000 A 
DOCKED: ATOM     20  C   UNL     1      35.013  15.842 124.637 -0.42 -0.00    +0.000 A 
DOCKED: ATOM     21  C   UNL     1      33.988  16.257 125.492 -0.38 -0.00    +0.000 A 
DOCKED: ATOM     22  CM  UNL     1      35.033  17.128 125.182 -0.35 -0.00    +0.000 AC
DOCKED: BRANCH  16  23
DOCKED: ATOM     23  C   UNL     1      32.367  19.338 126.829 -0.28 -0.00    +0.000 C 
DOCKED: ATOM     24  N   UNL     1      32.923  17.984 126.936 -0.31 -0.00    +0.000 N 
DOCKED: ATOM     25  C   UNL     1      32.385  17.075 127.955 -0.42 -0.00    +0.000 C 
DOCKED: ENDBRANCH  16  23
DOCKED: ENDBRANCH  14  19
DOCKED: ENDBRANCH   1  14
DOCKED: TORSDOF 7DOCKED: TER
DOCKED: ENDMDL
________________________________________________________________________________


	BEGINNING GENETIC ALGORITHM DOCKING 63 of 100
Run: 63 Seed: 1005162676 2139320305 [ Run 63 of 100 GA/GALS ]
Beginning LAMARCKIAN GENETIC ALGORITHM (LGA), with a maximum of 2500000 energy evaluations.

Final-Value: -15.227


	FINAL GENETIC ALGORITHM DOCKED STATE
	_______________________________________________


Detailed state:  trans 36.510 14.473 123.543 quatxyzw 0.709374 -0.596897 0.097797 0.361855 center 1.179 0.138 -0.353 ntor 7 9.5524 -134.4120 135.8814 -131.5016 -100.6802 148.9693 -37.2808
State:	 36.510  14.473 123.543   0.761 -0.640  0.105 137.572      9.55 -134.41  135.88 -131.50 -100.68  148.97  -37.28

DOCKED: MODEL       63
DOCKED: USER    Run = 63
DOCKED: USER    DPF = ligand_dock.biased.dpf
DOCKED: USER  
DOCKED: USER    Estimated Free Energy of Binding    =  -11.73 kcal/mol  [=(1)+(2)+(3)-(4)]
DOCKED: USER    Estimated Inhibition Constant, Ki   =    2.51 nM (nanomolar)  [Temperature = 298.15 K]
DOCKED: USER    
DOCKED: USER    (1) Final Intermolecular Energy     =  -13.82 kcal/mol
DOCKED: USER        vdW + Hbond + desolv Energy     =  -13.82 kcal/mol
DOCKED: USER        Electrostatic Energy            =   +0.00 kcal/mol
DOCKED: USER    (2) Final Total Internal Energy     =   -1.41 kcal/mol
DOCKED: USER    (3) Torsional Free Energy           =   +2.09 kcal/mol
DOCKED: USER    (4) Unbound System's Energy  [=(2)] =   -1.41 kcal/mol
DOCKED: USER    
DOCKED: USER    
DOCKED: USER    NEWDPF move ligand.dum.pdbqt
DOCKED: USER    NEWDPF about 1.179000 0.138000 -0.353000
DOCKED: USER    NEWDPF tran0 36.510341 14.472703 123.543145
DOCKED: USER    NEWDPF quaternion0 0.709374 -0.596897 0.097797 0.361855
DOCKED: USER    NEWDPF axisangle0 0.760939 -0.640286 0.104906 137.571708
DOCKED: USER    NEWDPF quat0 0.760939 -0.640286 0.104906 137.571708
DOCKED: USER    NEWDPF dihe0 9.55 -134.41 135.88 -131.50 -100.68 148.97 -37.28 
DOCKED: USER  keepresnum = 1 
DOCKED: USER  
DOCKED: REMARK  Name = 
DOCKED: REMARK  11 active torsions:
DOCKED: REMARK  status: ('A' for Active; 'I' for Inactive)
DOCKED: REMARK    1  A    between atoms: C_1  and  N_2
DOCKED: REMARK    2  A    between atoms: N_2  and  C_3
DOCKED: REMARK    3  A    between atoms: N_2  and  C_22
DOCKED: REMARK    4  A    between atoms: C_6  and  C_9
DOCKED: REMARK    5  A    between atoms: C_9  and  C_10
DOCKED: REMARK    6  A    between atoms: C_10  and  C_11
DOCKED: REMARK    7  A    between atoms: C_10  and  C_20
DOCKED: REMARK    8  A    between atoms: C_12  and  C_13
DOCKED: REMARK    9  A    between atoms: C_12  and  C_19
DOCKED: REMARK   10  A    between atoms: C_14  and  C_15
DOCKED: REMARK   11  A    between atoms: N_16  and  O_17
DOCKED: REMARK                            x       y       z     vdW  Elec       q    Type
DOCKED: REMARK                         _______ _______ _______ _____ _____    ______ ____
DOCKED: USER                              x       y       z     vdW  Elec       q    Type
DOCKED: USER                           _______ _______ _______ _____ _____    ______ ____
DOCKED: ROOT
DOCKED: ATOM      1  C   UNL     1      37.855  15.470 122.605 -0.35 -0.00    +0.000 C 
DOCKED: ATOM      2  C   UNL     1      38.869  16.097 121.642 -0.23 -0.00    +0.000 C 
DOCKED: ENDROOT
DOCKED: BRANCH   1   3
DOCKED: ATOM      3  C   UNL     1      37.766  13.975 122.379 -0.48 -0.00    +0.000 C 
DOCKED: ATOM      4  C   UNL     1      37.559  13.395 121.179 -0.46 -0.00    +0.000 C 
DOCKED: ATOM      5  C   UNL     1      37.378  14.213 119.919 -0.34 -0.00    +0.000 C 
DOCKED: BRANCH   4   6
DOCKED: ATOM      6  C   UNL     1      37.448  11.913 121.133 -0.49 -0.00    +0.000 C 
DOCKED: ATOM      7  C   UNL     1      37.054  11.175 122.181 -0.56 -0.00    +0.000 C 
DOCKED: BRANCH   7   8
DOCKED: ATOM      8  C   UNL     1      36.943   9.702 122.142 -0.63 -0.00    +0.000 C 
DOCKED: ATOM      9  N   UNL     1      37.062   8.891 123.318 -0.63 -0.00    +0.000 N 
DOCKED: ATOM     10  O   UNL     1      36.710   9.148 121.034 -2.61 -0.00    +0.000 OA
DOCKED: ATOM     11  H   UNL     1      37.141   9.318 124.202 -0.59 -0.00    +0.000 HD
DOCKED: BRANCH   9  12
DOCKED: ATOM     12  O   UNL     1      37.065   7.541 123.217 -2.24 -0.00    +0.000 OA
DOCKED: ATOM     13  H   UNL     1      37.131   7.286 122.283 -0.10 -0.00    +0.000 HD
DOCKED: ENDBRANCH   9  12
DOCKED: ENDBRANCH   7   8
DOCKED: ENDBRANCH   4   6
DOCKED: ENDBRANCH   1   3
DOCKED: BRANCH   1  14
DOCKED: ATOM     14  C   UNL     1      36.502  16.119 122.408 -0.30 -0.00    +0.000 C 
DOCKED: ATOM     15  O   UNL     1      36.109  16.360 121.233 -0.24 -0.00    +0.000 OA
DOCKED: BRANCH  14  19
DOCKED: ATOM     16  C   UNL     1      33.979  17.266 125.729 -0.37 -0.00    +0.000 A 
DOCKED: ATOM     17  C   UNL     1      34.745  18.220 125.027 -0.30 -0.00    +0.000 A 
DOCKED: ATOM     18  C   UNL     1      35.559  17.839 123.958 -0.27 -0.00    +0.000 A 
DOCKED: ATOM     19  C   UNL     1      35.630  16.497 123.551 -0.35 -0.00    +0.000 A 
DOCKED: ATOM     20  C   UNL     1      34.877  15.540 124.252 -0.51 -0.00    +0.000 A 
DOCKED: ATOM     21  C   UNL     1      34.063  15.919 125.324 -0.44 -0.00    +0.000 A 
DOCKED: ATOM     22  CM  UNL     1      34.809  16.880 124.640 -0.25 -0.00    +0.000 AC
DOCKED: BRANCH  16  23
DOCKED: ATOM     23  C   UNL     1      32.613  19.031 126.933 -0.28 -0.00    +0.000 C 
DOCKED: ATOM     24  N   UNL     1      33.133  17.661 126.840 -0.34 -0.00    +0.000 N 
DOCKED: ATOM     25  C   UNL     1      32.784  16.698 127.892 -0.45 -0.00    +0.000 C 
DOCKED: ENDBRANCH  16  23
DOCKED: ENDBRANCH  14  19
DOCKED: ENDBRANCH   1  14
DOCKED: TORSDOF 7DOCKED: TER
DOCKED: ENDMDL
________________________________________________________________________________


	BEGINNING GENETIC ALGORITHM DOCKING 64 of 100
Run: 64 Seed: 907550276 1513141886 [ Run 64 of 100 GA/GALS ]
Beginning LAMARCKIAN GENETIC ALGORITHM (LGA), with a maximum of 2500000 energy evaluations.

Final-Value: -14.723


	FINAL GENETIC ALGORITHM DOCKED STATE
	_______________________________________________


Detailed state:  trans 36.092 14.529 123.841 quatxyzw -0.652238 0.630704 -0.151143 -0.392370 center 1.179 0.138 -0.353 ntor 7 3.2807 -135.0499 -169.7976 171.6034 94.0375 144.1396 -37.7522
State:	 36.092  14.529 123.841  -0.709  0.686 -0.164 -133.796      3.28 -135.05 -169.80  171.60   94.04  144.14  -37.75

DOCKED: MODEL       64
DOCKED: USER    Run = 64
DOCKED: USER    DPF = ligand_dock.biased.dpf
DOCKED: USER  
DOCKED: USER    Estimated Free Energy of Binding    =  -11.25 kcal/mol  [=(1)+(2)+(3)-(4)]
DOCKED: USER    Estimated Inhibition Constant, Ki   =    5.66 nM (nanomolar)  [Temperature = 298.15 K]
DOCKED: USER    
DOCKED: USER    (1) Final Intermolecular Energy     =  -13.34 kcal/mol
DOCKED: USER        vdW + Hbond + desolv Energy     =  -13.34 kcal/mol
DOCKED: USER        Electrostatic Energy            =   +0.00 kcal/mol
DOCKED: USER    (2) Final Total Internal Energy     =   -1.38 kcal/mol
DOCKED: USER    (3) Torsional Free Energy           =   +2.09 kcal/mol
DOCKED: USER    (4) Unbound System's Energy  [=(2)] =   -1.38 kcal/mol
DOCKED: USER    
DOCKED: USER    
DOCKED: USER    NEWDPF move ligand.dum.pdbqt
DOCKED: USER    NEWDPF about 1.179000 0.138000 -0.353000
DOCKED: USER    NEWDPF tran0 36.092326 14.529281 123.841451
DOCKED: USER    NEWDPF quaternion0 -0.652238 0.630704 -0.151143 -0.392370
DOCKED: USER    NEWDPF axisangle0 -0.709102 0.685691 -0.164320 -133.795953
DOCKED: USER    NEWDPF quat0 -0.709102 0.685691 -0.164320 -133.795953
DOCKED: USER    NEWDPF dihe0 3.28 -135.05 -169.80 171.60 94.04 144.14 -37.75 
DOCKED: USER  keepresnum = 1 
DOCKED: USER  
DOCKED: REMARK  Name = 
DOCKED: REMARK  11 active torsions:
DOCKED: REMARK  status: ('A' for Active; 'I' for Inactive)
DOCKED: REMARK    1  A    between atoms: C_1  and  N_2
DOCKED: REMARK    2  A    between atoms: N_2  and  C_3
DOCKED: REMARK    3  A    between atoms: N_2  and  C_22
DOCKED: REMARK    4  A    between atoms: C_6  and  C_9
DOCKED: REMARK    5  A    between atoms: C_9  and  C_10
DOCKED: REMARK    6  A    between atoms: C_10  and  C_11
DOCKED: REMARK    7  A    between atoms: C_10  and  C_20
DOCKED: REMARK    8  A    between atoms: C_12  and  C_13
DOCKED: REMARK    9  A    between atoms: C_12  and  C_19
DOCKED: REMARK   10  A    between atoms: C_14  and  C_15
DOCKED: REMARK   11  A    between atoms: N_16  and  O_17
DOCKED: REMARK                            x       y       z     vdW  Elec       q    Type
DOCKED: REMARK                         _______ _______ _______ _____ _____    ______ ____
DOCKED: USER                              x       y       z     vdW  Elec       q    Type
DOCKED: USER                           _______ _______ _______ _____ _____    ______ ____
DOCKED: ROOT
DOCKED: ATOM      1  C   UNL     1      37.657  15.333 123.072 -0.39 -0.00    +0.000 C 
DOCKED: ATOM      2  C   UNL     1      38.843  15.820 122.234 -0.30 -0.00    +0.000 C 
DOCKED: ENDROOT
DOCKED: BRANCH   1   3
DOCKED: ATOM      3  C   UNL     1      37.372  13.873 122.787 -0.51 -0.00    +0.000 C 
DOCKED: ATOM      4  C   UNL     1      37.112  13.370 121.563 -0.45 -0.00    +0.000 C 
DOCKED: ATOM      5  C   UNL     1      37.066  14.252 120.333 -0.30 -0.00    +0.000 C 
DOCKED: BRANCH   4   6
DOCKED: ATOM      6  C   UNL     1      36.804  11.920 121.457 -0.55 -0.00    +0.000 C 
DOCKED: ATOM      7  C   UNL     1      37.328  10.998 122.278 -0.19 -0.00    +0.000 C 
DOCKED: BRANCH   7   8
DOCKED: ATOM      8  C   UNL     1      37.026   9.555 122.178 -0.62 -0.00    +0.000 C 
DOCKED: ATOM      9  N   UNL     1      37.069   8.680 123.313 -0.66 -0.00    +0.000 N 
DOCKED: ATOM     10  O   UNL     1      36.697   9.088 121.055 -2.61 -0.00    +0.000 OA
DOCKED: ATOM     11  H   UNL     1      37.224   9.052 124.212 -0.58 -0.00    +0.000 HD
DOCKED: BRANCH   9  12
DOCKED: ATOM     12  O   UNL     1      36.895   7.348 123.153 -2.09 -0.00    +0.000 OA
DOCKED: ATOM     13  H   UNL     1      36.806   7.144 122.209 -0.07 -0.00    +0.000 HD
DOCKED: ENDBRANCH   9  12
DOCKED: ENDBRANCH   7   8
DOCKED: ENDBRANCH   4   6
DOCKED: ENDBRANCH   1   3
DOCKED: BRANCH   1  14
DOCKED: ATOM     14  C   UNL     1      36.439  16.181 122.769 -0.33 -0.00    +0.000 C 
DOCKED: ATOM     15  O   UNL     1      36.212  16.509 121.571 -0.25 -0.00    +0.000 OA
DOCKED: BRANCH  14  19
DOCKED: ATOM     16  C   UNL     1      33.742  17.508 125.878 -0.35 -0.00    +0.000 A 
DOCKED: ATOM     17  C   UNL     1      33.921  16.138 125.600 -0.35 -0.00    +0.000 A 
DOCKED: ATOM     18  C   UNL     1      34.792  15.719 124.591 -0.49 -0.00    +0.000 A 
DOCKED: ATOM     19  C   UNL     1      35.517  16.653 123.834 -0.36 -0.00    +0.000 A 
DOCKED: ATOM     20  C   UNL     1      35.336  18.021 124.100 -0.28 -0.00    +0.000 A 
DOCKED: ATOM     21  C   UNL     1      34.463  18.442 125.107 -0.30 -0.00    +0.000 A 
DOCKED: ATOM     22  CM  UNL     1      34.628  17.080 124.851 -0.32 -0.00    +0.000 AC
DOCKED: BRANCH  16  23
DOCKED: ATOM     23  C   UNL     1      32.505  17.054 128.044 -0.42 -0.00    +0.000 C 
DOCKED: ATOM     24  N   UNL     1      32.837  17.945 126.925 -0.30 -0.00    +0.000 N 
DOCKED: ATOM     25  C   UNL     1      32.236  19.283 126.883 -0.28 -0.00    +0.000 C 
DOCKED: ENDBRANCH  16  23
DOCKED: ENDBRANCH  14  19
DOCKED: ENDBRANCH   1  14
DOCKED: TORSDOF 7DOCKED: TER
DOCKED: ENDMDL
________________________________________________________________________________


	BEGINNING GENETIC ALGORITHM DOCKING 65 of 100
Run: 65 Seed: 417816110 254637430 [ Run 65 of 100 GA/GALS ]
Beginning LAMARCKIAN GENETIC ALGORITHM (LGA), with a maximum of 2500000 energy evaluations.

Final-Value: -14.697


	FINAL GENETIC ALGORITHM DOCKED STATE
	_______________________________________________


Detailed state:  trans 39.431 14.473 121.803 quatxyzw -0.361685 0.530572 0.627807 0.439928 center 1.179 0.138 -0.353 ntor 7 5.8615 -149.0435 16.7342 136.3003 142.7766 149.7421 -52.3928
State:	 39.431  14.473 121.803  -0.403  0.591  0.699 127.801      5.86 -149.04   16.73  136.30  142.78  149.74  -52.39

DOCKED: MODEL       65
DOCKED: USER    Run = 65
DOCKED: USER    DPF = ligand_dock.biased.dpf
DOCKED: USER  
DOCKED: USER    Estimated Free Energy of Binding    =  -11.15 kcal/mol  [=(1)+(2)+(3)-(4)]
DOCKED: USER    Estimated Inhibition Constant, Ki   =    6.73 nM (nanomolar)  [Temperature = 298.15 K]
DOCKED: USER    
DOCKED: USER    (1) Final Intermolecular Energy     =  -13.24 kcal/mol
DOCKED: USER        vdW + Hbond + desolv Energy     =  -13.24 kcal/mol
DOCKED: USER        Electrostatic Energy            =   +0.00 kcal/mol
DOCKED: USER    (2) Final Total Internal Energy     =   -1.46 kcal/mol
DOCKED: USER    (3) Torsional Free Energy           =   +2.09 kcal/mol
DOCKED: USER    (4) Unbound System's Energy  [=(2)] =   -1.46 kcal/mol
DOCKED: USER    
DOCKED: USER    
DOCKED: USER    NEWDPF move ligand.dum.pdbqt
DOCKED: USER    NEWDPF about 1.179000 0.138000 -0.353000
DOCKED: USER    NEWDPF tran0 39.430735 14.472717 121.803070
DOCKED: USER    NEWDPF quaternion0 -0.361685 0.530572 0.627807 0.439928
DOCKED: USER    NEWDPF axisangle0 -0.402753 0.590815 0.699091 127.801448
DOCKED: USER    NEWDPF quat0 -0.402753 0.590815 0.699091 127.801448
DOCKED: USER    NEWDPF dihe0 5.86 -149.04 16.73 136.30 142.78 149.74 -52.39 
DOCKED: USER  keepresnum = 1 
DOCKED: USER  
DOCKED: REMARK  Name = 
DOCKED: REMARK  11 active torsions:
DOCKED: REMARK  status: ('A' for Active; 'I' for Inactive)
DOCKED: REMARK    1  A    between atoms: C_1  and  N_2
DOCKED: REMARK    2  A    between atoms: N_2  and  C_3
DOCKED: REMARK    3  A    between atoms: N_2  and  C_22
DOCKED: REMARK    4  A    between atoms: C_6  and  C_9
DOCKED: REMARK    5  A    between atoms: C_9  and  C_10
DOCKED: REMARK    6  A    between atoms: C_10  and  C_11
DOCKED: REMARK    7  A    between atoms: C_10  and  C_20
DOCKED: REMARK    8  A    between atoms: C_12  and  C_13
DOCKED: REMARK    9  A    between atoms: C_12  and  C_19
DOCKED: REMARK   10  A    between atoms: C_14  and  C_15
DOCKED: REMARK   11  A    between atoms: N_16  and  O_17
DOCKED: REMARK                            x       y       z     vdW  Elec       q    Type
DOCKED: REMARK                         _______ _______ _______ _____ _____    ______ ____
DOCKED: USER                              x       y       z     vdW  Elec       q    Type
DOCKED: USER                           _______ _______ _______ _____ _____    ______ ____
DOCKED: ROOT
DOCKED: ATOM      1  C   UNL     1      37.755  15.397 121.651 -0.29 -0.00    +0.000 C 
DOCKED: ATOM      2  C   UNL     1      36.331  15.955 121.724 -0.21 -0.00    +0.000 C 
DOCKED: ENDROOT
DOCKED: BRANCH   1   3
DOCKED: ATOM      3  C   UNL     1      37.745  13.893 121.831 -0.45 -0.00    +0.000 C 
DOCKED: ATOM      4  C   UNL     1      37.124  13.249 122.840 -0.57 -0.00    +0.000 C 
DOCKED: ATOM      5  C   UNL     1      36.375  13.998 123.922 -0.46 -0.00    +0.000 C 
DOCKED: BRANCH   4   6
DOCKED: ATOM      6  C   UNL     1      37.248  11.769 122.901 -0.54 -0.00    +0.000 C 
DOCKED: ATOM      7  C   UNL     1      36.711  10.950 121.985 -0.62 -0.00    +0.000 C 
DOCKED: BRANCH   7   8
DOCKED: ATOM      8  C   UNL     1      36.831   9.478 122.041 -0.67 -0.00    +0.000 C 
DOCKED: ATOM      9  N   UNL     1      36.842   8.755 123.278 -0.65 -0.00    +0.000 N 
DOCKED: ATOM     10  O   UNL     1      36.902   8.841 120.956 -2.67 -0.00    +0.000 OA
DOCKED: ATOM     11  H   UNL     1      36.684   9.231 124.126 -0.47 -0.00    +0.000 HD
DOCKED: BRANCH   9  12
DOCKED: ATOM     12  O   UNL     1      37.066   7.420 123.285 -2.17 -0.00    +0.000 OA
DOCKED: ATOM     13  H   UNL     1      37.292   7.125 122.389 -0.17 -0.00    +0.000 HD
DOCKED: ENDBRANCH   9  12
DOCKED: ENDBRANCH   7   8
DOCKED: ENDBRANCH   4   6
DOCKED: ENDBRANCH   1   3
DOCKED: BRANCH   1  14
DOCKED: ATOM     14  C   UNL     1      38.612  16.053 122.714 -0.30 -0.00    +0.000 C 
DOCKED: ATOM     15  O   UNL     1      38.053  16.496 123.756 -0.33 -0.00    +0.000 OA
DOCKED: BRANCH  14  19
DOCKED: ATOM     16  C   UNL     1      42.890  16.472 122.239 -0.35 -0.00    +0.000 A 
DOCKED: ATOM     17  C   UNL     1      42.142  15.613 121.408 -0.28 -0.00    +0.000 A 
DOCKED: ATOM     18  C   UNL     1      40.760  15.482 121.572 -0.30 -0.00    +0.000 A 
DOCKED: ATOM     19  C   UNL     1      40.082  16.208 122.564 -0.28 -0.00    +0.000 A 
DOCKED: ATOM     20  C   UNL     1      40.824  17.059 123.401 -0.29 -0.00    +0.000 A 
DOCKED: ATOM     21  C   UNL     1      42.206  17.190 123.240 -0.33 -0.00    +0.000 A 
DOCKED: ATOM     22  CM  UNL     1      41.484  16.337 122.404 +0.00 -0.00    +0.000 AC
DOCKED: BRANCH  16  23
DOCKED: ATOM     23  C   UNL     1      44.996  16.040 120.894 -0.27 +0.00    +0.000 C 
DOCKED: ATOM     24  N   UNL     1      44.325  16.609 122.070 -0.31 -0.00    +0.000 N 
DOCKED: ATOM     25  C   UNL     1      45.131  17.316 123.073 -0.29 -0.00    +0.000 C 
DOCKED: ENDBRANCH  16  23
DOCKED: ENDBRANCH  14  19
DOCKED: ENDBRANCH   1  14
DOCKED: TORSDOF 7DOCKED: TER
DOCKED: ENDMDL
________________________________________________________________________________


	BEGINNING GENETIC ALGORITHM DOCKING 66 of 100
Run: 66 Seed: 1633698823 117250360 [ Run 66 of 100 GA/GALS ]
Beginning LAMARCKIAN GENETIC ALGORITHM (LGA), with a maximum of 2500000 energy evaluations.

Final-Value: -14.718


	FINAL GENETIC ALGORITHM DOCKED STATE
	_______________________________________________


Detailed state:  trans 36.548 14.958 124.020 quatxyzw 0.787137 -0.557694 0.098633 0.244263 center 1.179 0.138 -0.353 ntor 7 5.7567 -163.8319 33.4162 -14.4733 -94.0057 149.1506 -48.5734
State:	 36.548  14.958 124.020   0.812 -0.575  0.102 151.723      5.76 -163.83   33.42  -14.47  -94.01  149.15  -48.57

DOCKED: MODEL       66
DOCKED: USER    Run = 66
DOCKED: USER    DPF = ligand_dock.biased.dpf
DOCKED: USER  
DOCKED: USER    Estimated Free Energy of Binding    =  -11.17 kcal/mol  [=(1)+(2)+(3)-(4)]
DOCKED: USER    Estimated Inhibition Constant, Ki   =    6.53 nM (nanomolar)  [Temperature = 298.15 K]
DOCKED: USER    
DOCKED: USER    (1) Final Intermolecular Energy     =  -13.25 kcal/mol
DOCKED: USER        vdW + Hbond + desolv Energy     =  -13.25 kcal/mol
DOCKED: USER        Electrostatic Energy            =   +0.00 kcal/mol
DOCKED: USER    (2) Final Total Internal Energy     =   -1.46 kcal/mol
DOCKED: USER    (3) Torsional Free Energy           =   +2.09 kcal/mol
DOCKED: USER    (4) Unbound System's Energy  [=(2)] =   -1.46 kcal/mol
DOCKED: USER    
DOCKED: USER    
DOCKED: USER    NEWDPF move ligand.dum.pdbqt
DOCKED: USER    NEWDPF about 1.179000 0.138000 -0.353000
DOCKED: USER    NEWDPF tran0 36.547829 14.958324 124.019812
DOCKED: USER    NEWDPF quaternion0 0.787137 -0.557694 0.098633 0.244263
DOCKED: USER    NEWDPF axisangle0 0.811725 -0.575115 0.101714 151.723380
DOCKED: USER    NEWDPF quat0 0.811725 -0.575115 0.101714 151.723380
DOCKED: USER    NEWDPF dihe0 5.76 -163.83 33.42 -14.47 -94.01 149.15 -48.57 
DOCKED: USER  keepresnum = 1 
DOCKED: USER  
DOCKED: REMARK  Name = 
DOCKED: REMARK  11 active torsions:
DOCKED: REMARK  status: ('A' for Active; 'I' for Inactive)
DOCKED: REMARK    1  A    between atoms: C_1  and  N_2
DOCKED: REMARK    2  A    between atoms: N_2  and  C_3
DOCKED: REMARK    3  A    between atoms: N_2  and  C_22
DOCKED: REMARK    4  A    between atoms: C_6  and  C_9
DOCKED: REMARK    5  A    between atoms: C_9  and  C_10
DOCKED: REMARK    6  A    between atoms: C_10  and  C_11
DOCKED: REMARK    7  A    between atoms: C_10  and  C_20
DOCKED: REMARK    8  A    between atoms: C_12  and  C_13
DOCKED: REMARK    9  A    between atoms: C_12  and  C_19
DOCKED: REMARK   10  A    between atoms: C_14  and  C_15
DOCKED: REMARK   11  A    between atoms: N_16  and  O_17
DOCKED: REMARK                            x       y       z     vdW  Elec       q    Type
DOCKED: REMARK                         _______ _______ _______ _____ _____    ______ ____
DOCKED: USER                              x       y       z     vdW  Elec       q    Type
DOCKED: USER                           _______ _______ _______ _____ _____    ______ ____
DOCKED: ROOT
DOCKED: ATOM      1  C   UNL     1      37.631  15.845 122.706 -0.32 -0.00    +0.000 C 
DOCKED: ATOM      2  C   UNL     1      38.435  16.332 121.497 -0.19 -0.00    +0.000 C 
DOCKED: ENDROOT
DOCKED: BRANCH   1   3
DOCKED: ATOM      3  C   UNL     1      37.724  14.338 122.832 -0.47 -0.00    +0.000 C 
DOCKED: ATOM      4  C   UNL     1      37.472  13.471 121.830 -0.48 -0.00    +0.000 C 
DOCKED: ATOM      5  C   UNL     1      37.046  13.943 120.456 -0.31 -0.00    +0.000 C 
DOCKED: BRANCH   4   6
DOCKED: ATOM      6  C   UNL     1      37.562  12.018 122.129 -0.21 -0.00    +0.000 C 
DOCKED: ATOM      7  C   UNL     1      36.725  11.109 121.606 -0.54 -0.00    +0.000 C 
DOCKED: BRANCH   7   8
DOCKED: ATOM      8  C   UNL     1      36.808   9.664 121.900 -0.63 -0.00    +0.000 C 
DOCKED: ATOM      9  N   UNL     1      36.858   9.154 123.239 -0.61 -0.00    +0.000 N 
DOCKED: ATOM     10  O   UNL     1      36.812   8.855 120.933 -2.65 -0.00    +0.000 OA
DOCKED: ATOM     11  H   UNL     1      36.752   9.768 124.001 -0.44 -0.00    +0.000 HD
DOCKED: BRANCH   9  12
DOCKED: ATOM     12  O   UNL     1      37.047   7.831 123.457 -2.26 -0.00    +0.000 OA
DOCKED: ATOM     13  H   UNL     1      37.221   7.385 122.613 -0.12 -0.00    +0.000 HD
DOCKED: ENDBRANCH   9  12
DOCKED: ENDBRANCH   7   8
DOCKED: ENDBRANCH   4   6
DOCKED: ENDBRANCH   1   3
DOCKED: BRANCH   1  14
DOCKED: ATOM     14  C   UNL     1      36.187  16.277 122.561 -0.31 -0.00    +0.000 C 
DOCKED: ATOM     15  O   UNL     1      35.702  16.395 121.401 -0.24 -0.00    +0.000 OA
DOCKED: BRANCH  14  19
DOCKED: ATOM     16  C   UNL     1      33.693  17.220 125.967 -0.35 -0.00    +0.000 A 
DOCKED: ATOM     17  C   UNL     1      34.157  18.228 125.098 -0.33 -0.00    +0.000 A 
DOCKED: ATOM     18  C   UNL     1      34.965  17.914 124.002 -0.31 -0.00    +0.000 A 
DOCKED: ATOM     19  C   UNL     1      35.329  16.584 123.735 -0.38 -0.00    +0.000 A 
DOCKED: ATOM     20  C   UNL     1      34.878  15.575 124.603 -0.48 -0.00    +0.000 A 
DOCKED: ATOM     21  C   UNL     1      34.071  15.888 125.702 -0.33 -0.00    +0.000 A 
DOCKED: ATOM     22  CM  UNL     1      34.516  16.902 124.851 -0.25 -0.00    +0.000 AC
DOCKED: BRANCH  16  23
DOCKED: ATOM     23  C   UNL     1      32.546  18.943 127.431 -0.25 -0.00    +0.000 C 
DOCKED: ATOM     24  N   UNL     1      32.854  17.545 127.106 -0.33 -0.00    +0.000 N 
DOCKED: ATOM     25  C   UNL     1      32.301  16.482 127.953 -0.46 -0.00    +0.000 C 
DOCKED: ENDBRANCH  16  23
DOCKED: ENDBRANCH  14  19
DOCKED: ENDBRANCH   1  14
DOCKED: TORSDOF 7DOCKED: TER
DOCKED: ENDMDL
________________________________________________________________________________


	BEGINNING GENETIC ALGORITHM DOCKING 67 of 100
Run: 67 Seed: 666133329 1011119954 [ Run 67 of 100 GA/GALS ]
Beginning LAMARCKIAN GENETIC ALGORITHM (LGA), with a maximum of 2500000 energy evaluations.

Final-Value: -14.804


	FINAL GENETIC ALGORITHM DOCKED STATE
	_______________________________________________


Detailed state:  trans 36.646 14.460 120.321 quatxyzw 0.349258 -0.030064 0.636883 0.686655 center 1.179 0.138 -0.353 ntor 7 4.9590 93.1766 54.6734 97.9342 5.3040 -88.5144 -101.5912
State:	 36.646  14.460 120.321   0.480 -0.041  0.876 93.268      4.96   93.18   54.67   97.93    5.30  -88.51 -101.59

DOCKED: MODEL       67
DOCKED: USER    Run = 67
DOCKED: USER    DPF = ligand_dock.biased.dpf
DOCKED: USER  
DOCKED: USER    Estimated Free Energy of Binding    =  -11.09 kcal/mol  [=(1)+(2)+(3)-(4)]
DOCKED: USER    Estimated Inhibition Constant, Ki   =    7.43 nM (nanomolar)  [Temperature = 298.15 K]
DOCKED: USER    
DOCKED: USER    (1) Final Intermolecular Energy     =  -13.18 kcal/mol
DOCKED: USER        vdW + Hbond + desolv Energy     =  -13.18 kcal/mol
DOCKED: USER        Electrostatic Energy            =   +0.00 kcal/mol
DOCKED: USER    (2) Final Total Internal Energy     =   -1.63 kcal/mol
DOCKED: USER    (3) Torsional Free Energy           =   +2.09 kcal/mol
DOCKED: USER    (4) Unbound System's Energy  [=(2)] =   -1.63 kcal/mol
DOCKED: USER    
DOCKED: USER    
DOCKED: USER    NEWDPF move ligand.dum.pdbqt
DOCKED: USER    NEWDPF about 1.179000 0.138000 -0.353000
DOCKED: USER    NEWDPF tran0 36.645560 14.459682 120.320759
DOCKED: USER    NEWDPF quaternion0 0.349258 -0.030064 0.636883 0.686655
DOCKED: USER    NEWDPF axisangle0 0.480420 -0.041355 0.876063 93.268219
DOCKED: USER    NEWDPF quat0 0.480420 -0.041355 0.876063 93.268219
DOCKED: USER    NEWDPF dihe0 4.96 93.18 54.67 97.93 5.30 -88.51 -101.59 
DOCKED: USER  keepresnum = 1 
DOCKED: USER  
DOCKED: REMARK  Name = 
DOCKED: REMARK  11 active torsions:
DOCKED: REMARK  status: ('A' for Active; 'I' for Inactive)
DOCKED: REMARK    1  A    between atoms: C_1  and  N_2
DOCKED: REMARK    2  A    between atoms: N_2  and  C_3
DOCKED: REMARK    3  A    between atoms: N_2  and  C_22
DOCKED: REMARK    4  A    between atoms: C_6  and  C_9
DOCKED: REMARK    5  A    between atoms: C_9  and  C_10
DOCKED: REMARK    6  A    between atoms: C_10  and  C_11
DOCKED: REMARK    7  A    between atoms: C_10  and  C_20
DOCKED: REMARK    8  A    between atoms: C_12  and  C_13
DOCKED: REMARK    9  A    between atoms: C_12  and  C_19
DOCKED: REMARK   10  A    between atoms: C_14  and  C_15
DOCKED: REMARK   11  A    between atoms: N_16  and  O_17
DOCKED: REMARK                            x       y       z     vdW  Elec       q    Type
DOCKED: REMARK                         _______ _______ _______ _____ _____    ______ ____
DOCKED: USER                              x       y       z     vdW  Elec       q    Type
DOCKED: USER                           _______ _______ _______ _____ _____    ______ ____
DOCKED: ROOT
DOCKED: ATOM      1  C   UNL     1      37.079  15.547 121.842 -0.29 -0.00    +0.000 C 
DOCKED: ATOM      2  C   UNL     1      37.646  16.247 123.081 -0.30 -0.00    +0.000 C 
DOCKED: ENDROOT
DOCKED: BRANCH   1   3
DOCKED: ATOM      3  C   UNL     1      37.322  14.054 121.920 -0.43 -0.00    +0.000 C 
DOCKED: ATOM      4  C   UNL     1      36.690  13.221 122.771 -0.57 -0.00    +0.000 C 
DOCKED: ATOM      5  C   UNL     1      35.664  13.724 123.764 -0.54 -0.00    +0.000 C 
DOCKED: BRANCH   4   6
DOCKED: ATOM      6  C   UNL     1      37.078  11.786 122.756 -0.62 -0.00    +0.000 C 
DOCKED: ATOM      7  C   UNL     1      36.317  10.826 122.209 -0.65 -0.00    +0.000 C 
DOCKED: BRANCH   7   8
DOCKED: ATOM      8  C   UNL     1      36.697   9.399 122.191 -0.71 -0.00    +0.000 C 
DOCKED: ATOM      9  N   UNL     1      36.666   8.581 123.368 -0.65 -0.00    +0.000 N 
DOCKED: ATOM     10  O   UNL     1      37.036   8.882 121.093 -2.70 -0.00    +0.000 OA
DOCKED: ATOM     11  H   UNL     1      36.305   8.946 124.209 -0.33 -0.00    +0.000 HD
DOCKED: BRANCH   9  12
DOCKED: ATOM     12  O   UNL     1      37.129   7.310 123.326 -2.06 -0.00    +0.000 OA
DOCKED: ATOM     13  H   UNL     1      37.517   7.135 122.454 -0.24 -0.00    +0.000 HD
DOCKED: ENDBRANCH   9  12
DOCKED: ENDBRANCH   7   8
DOCKED: ENDBRANCH   4   6
DOCKED: ENDBRANCH   1   3
DOCKED: BRANCH   1  14
DOCKED: ATOM     14  C   UNL     1      37.717  16.125 120.597 -0.19 -0.00    +0.000 C 
DOCKED: ATOM     15  O   UNL     1      38.215  17.283 120.652 -0.09 -0.00    +0.000 OA
DOCKED: BRANCH  14  19
DOCKED: ATOM     16  C   UNL     1      37.882  13.990 116.839 -0.32 -0.00    +0.000 A 
DOCKED: ATOM     17  C   UNL     1      38.862  14.943 117.183 -0.15 -0.00    +0.000 A 
DOCKED: ATOM     18  C   UNL     1      38.798  15.630 118.398 -0.14 -0.00    +0.000 A 
DOCKED: ATOM     19  C   UNL     1      37.759  15.383 119.309 -0.19 -0.00    +0.000 A 
DOCKED: ATOM     20  C   UNL     1      36.774  14.441 118.969 -0.28 -0.00    +0.000 A 
DOCKED: ATOM     21  C   UNL     1      36.835  13.754 117.752 -0.36 -0.00    +0.000 A 
DOCKED: ATOM     22  CM  UNL     1      37.818  14.691 118.075 +0.00 -0.00    +0.000 AC
DOCKED: BRANCH  16  23
DOCKED: ATOM     23  C   UNL     1      37.007  13.589 114.493 -0.37 -0.00    +0.000 C 
DOCKED: ATOM     24  N   UNL     1      37.946  13.275 115.577 -0.45 -0.00    +0.000 N 
DOCKED: ATOM     25  C   UNL     1      38.950  12.225 115.363 -0.57 -0.00    +0.000 C 
DOCKED: ENDBRANCH  16  23
DOCKED: ENDBRANCH  14  19
DOCKED: ENDBRANCH   1  14
DOCKED: TORSDOF 7DOCKED: TER
DOCKED: ENDMDL
________________________________________________________________________________


	BEGINNING GENETIC ALGORITHM DOCKING 68 of 100
Run: 68 Seed: 139488710 578623670 [ Run 68 of 100 GA/GALS ]
Beginning LAMARCKIAN GENETIC ALGORITHM (LGA), with a maximum of 2500000 energy evaluations.

Final-Value: -14.668


	FINAL GENETIC ALGORITHM DOCKED STATE
	_______________________________________________


Detailed state:  trans 39.192 14.148 121.469 quatxyzw -0.295025 0.557443 0.653623 0.418323 center 1.179 0.138 -0.353 ntor 7 19.6807 164.1650 -39.5950 -166.5217 -176.6907 146.0159 -46.9822
State:	 39.192  14.148 121.469  -0.325  0.614  0.720 130.542     19.68  164.16  -39.60 -166.52 -176.69  146.02  -46.98

DOCKED: MODEL       68
DOCKED: USER    Run = 68
DOCKED: USER    DPF = ligand_dock.biased.dpf
DOCKED: USER  
DOCKED: USER    Estimated Free Energy of Binding    =  -11.15 kcal/mol  [=(1)+(2)+(3)-(4)]
DOCKED: USER    Estimated Inhibition Constant, Ki   =    6.67 nM (nanomolar)  [Temperature = 298.15 K]
DOCKED: USER    
DOCKED: USER    (1) Final Intermolecular Energy     =  -13.24 kcal/mol
DOCKED: USER        vdW + Hbond + desolv Energy     =  -13.24 kcal/mol
DOCKED: USER        Electrostatic Energy            =   +0.00 kcal/mol
DOCKED: USER    (2) Final Total Internal Energy     =   -1.43 kcal/mol
DOCKED: USER    (3) Torsional Free Energy           =   +2.09 kcal/mol
DOCKED: USER    (4) Unbound System's Energy  [=(2)] =   -1.43 kcal/mol
DOCKED: USER    
DOCKED: USER    
DOCKED: USER    NEWDPF move ligand.dum.pdbqt
DOCKED: USER    NEWDPF about 1.179000 0.138000 -0.353000
DOCKED: USER    NEWDPF tran0 39.192170 14.148234 121.468797
DOCKED: USER    NEWDPF quaternion0 -0.295025 0.557443 0.653623 0.418323
DOCKED: USER    NEWDPF axisangle0 -0.324811 0.613722 0.719613 130.542435
DOCKED: USER    NEWDPF quat0 -0.324811 0.613722 0.719613 130.542435
DOCKED: USER    NEWDPF dihe0 19.68 164.16 -39.60 -166.52 -176.69 146.02 -46.98 
DOCKED: USER  keepresnum = 1 
DOCKED: USER  
DOCKED: REMARK  Name = 
DOCKED: REMARK  11 active torsions:
DOCKED: REMARK  status: ('A' for Active; 'I' for Inactive)
DOCKED: REMARK    1  A    between atoms: C_1  and  N_2
DOCKED: REMARK    2  A    between atoms: N_2  and  C_3
DOCKED: REMARK    3  A    between atoms: N_2  and  C_22
DOCKED: REMARK    4  A    between atoms: C_6  and  C_9
DOCKED: REMARK    5  A    between atoms: C_9  and  C_10
DOCKED: REMARK    6  A    between atoms: C_10  and  C_11
DOCKED: REMARK    7  A    between atoms: C_10  and  C_20
DOCKED: REMARK    8  A    between atoms: C_12  and  C_13
DOCKED: REMARK    9  A    between atoms: C_12  and  C_19
DOCKED: REMARK   10  A    between atoms: C_14  and  C_15
DOCKED: REMARK   11  A    between atoms: N_16  and  O_17
DOCKED: REMARK                            x       y       z     vdW  Elec       q    Type
DOCKED: REMARK                         _______ _______ _______ _____ _____    ______ ____
DOCKED: USER                              x       y       z     vdW  Elec       q    Type
DOCKED: USER                           _______ _______ _______ _____ _____    ______ ____
DOCKED: ROOT
DOCKED: ATOM      1  C   UNL     1      37.655  15.292 121.356 -0.28 -0.00    +0.000 C 
DOCKED: ATOM      2  C   UNL     1      36.328  16.048 121.473 -0.18 -0.00    +0.000 C 
DOCKED: ENDROOT
DOCKED: BRANCH   1   3
DOCKED: ATOM      3  C   UNL     1      37.447  13.814 121.615 -0.44 -0.00    +0.000 C 
DOCKED: ATOM      4  C   UNL     1      36.867  13.307 122.723 -0.56 -0.00    +0.000 C 
DOCKED: ATOM      5  C   UNL     1      36.374  14.198 123.842 -0.50 -0.00    +0.000 C 
DOCKED: BRANCH   4   6
DOCKED: ATOM      6  C   UNL     1      36.781  11.829 122.848 -0.66 -0.00    +0.000 C 
DOCKED: ATOM      7  C   UNL     1      37.075  10.990 121.843 -0.52 -0.00    +0.000 C 
DOCKED: BRANCH   7   8
DOCKED: ATOM      8  C   UNL     1      36.991   9.519 121.961 -0.63 -0.00    +0.000 C 
DOCKED: ATOM      9  N   UNL     1      37.033   8.847 123.226 -0.66 -0.00    +0.000 N 
DOCKED: ATOM     10  O   UNL     1      36.853   8.840 120.908 -2.66 -0.00    +0.000 OA
DOCKED: ATOM     11  H   UNL     1      37.037   9.371 124.060 -0.54 -0.00    +0.000 HD
DOCKED: BRANCH   9  12
DOCKED: ATOM     12  O   UNL     1      37.066   7.494 123.277 -2.21 -0.00    +0.000 OA
DOCKED: ATOM     13  H   UNL     1      37.365   7.145 122.423 -0.19 -0.00    +0.000 HD
DOCKED: ENDBRANCH   9  12
DOCKED: ENDBRANCH   7   8
DOCKED: ENDBRANCH   4   6
DOCKED: ENDBRANCH   1   3
DOCKED: BRANCH   1  14
DOCKED: ATOM     14  C   UNL     1      38.655  15.868 122.336 -0.30 -0.00    +0.000 C 
DOCKED: ATOM     15  O   UNL     1      38.231  16.339 123.428 -0.32 -0.00    +0.000 OA
DOCKED: BRANCH  14  19
DOCKED: ATOM     16  C   UNL     1      42.885  16.000 121.449 -0.30 -0.00    +0.000 A 
DOCKED: ATOM     17  C   UNL     1      41.922  15.990 120.420 -0.16 -0.00    +0.000 A 
DOCKED: ATOM     18  C   UNL     1      40.557  15.944 120.717 -0.18 -0.00    +0.000 A 
DOCKED: ATOM     19  C   UNL     1      40.112  15.913 122.048 -0.28 -0.00    +0.000 A 
DOCKED: ATOM     20  C   UNL     1      41.068  15.912 123.078 -0.35 -0.00    +0.000 A 
DOCKED: ATOM     21  C   UNL     1      42.434  15.956 122.783 -0.42 -0.00    +0.000 A 
DOCKED: ATOM     22  CM  UNL     1      41.496  15.952 121.749 +0.00 -0.00    +0.000 AC
DOCKED: BRANCH  16  23
DOCKED: ATOM     23  C   UNL     1      44.839  15.336 119.974 -0.35 +0.00    +0.000 C 
DOCKED: ATOM     24  N   UNL     1      44.304  16.047 121.142 -0.27 +0.00    +0.000 N 
DOCKED: ATOM     25  C   UNL     1      45.227  16.804 121.995 -0.30 +0.00    +0.000 C 
DOCKED: ENDBRANCH  16  23
DOCKED: ENDBRANCH  14  19
DOCKED: ENDBRANCH   1  14
DOCKED: TORSDOF 7DOCKED: TER
DOCKED: ENDMDL
________________________________________________________________________________


	BEGINNING GENETIC ALGORITHM DOCKING 69 of 100
Run: 69 Seed: 1217508679 997298970 [ Run 69 of 100 GA/GALS ]
Beginning LAMARCKIAN GENETIC ALGORITHM (LGA), with a maximum of 2500000 energy evaluations.

Final-Value: -14.467


	FINAL GENETIC ALGORITHM DOCKED STATE
	_______________________________________________


Detailed state:  trans 39.112 15.032 121.562 quatxyzw -0.396443 0.410461 0.690418 0.444610 center 1.179 0.138 -0.353 ntor 7 2.9438 50.1606 116.1131 47.3301 115.8096 147.7990 -63.0849
State:	 39.112  15.032 121.562  -0.443  0.458  0.771 127.203      2.94   50.16  116.11   47.33  115.81  147.80  -63.08

DOCKED: MODEL       69
DOCKED: USER    Run = 69
DOCKED: USER    DPF = ligand_dock.biased.dpf
DOCKED: USER  
DOCKED: USER    Estimated Free Energy of Binding    =  -10.91 kcal/mol  [=(1)+(2)+(3)-(4)]
DOCKED: USER    Estimated Inhibition Constant, Ki   =   10.09 nM (nanomolar)  [Temperature = 298.15 K]
DOCKED: USER    
DOCKED: USER    (1) Final Intermolecular Energy     =  -13.00 kcal/mol
DOCKED: USER        vdW + Hbond + desolv Energy     =  -13.00 kcal/mol
DOCKED: USER        Electrostatic Energy            =   +0.00 kcal/mol
DOCKED: USER    (2) Final Total Internal Energy     =   -1.47 kcal/mol
DOCKED: USER    (3) Torsional Free Energy           =   +2.09 kcal/mol
DOCKED: USER    (4) Unbound System's Energy  [=(2)] =   -1.47 kcal/mol
DOCKED: USER    
DOCKED: USER    
DOCKED: USER    NEWDPF move ligand.dum.pdbqt
DOCKED: USER    NEWDPF about 1.179000 0.138000 -0.353000
DOCKED: USER    NEWDPF tran0 39.112012 15.031626 121.562372
DOCKED: USER    NEWDPF quaternion0 -0.396443 0.410461 0.690418 0.444610
DOCKED: USER    NEWDPF axisangle0 -0.442594 0.458245 0.770793 127.203203
DOCKED: USER    NEWDPF quat0 -0.442594 0.458245 0.770793 127.203203
DOCKED: USER    NEWDPF dihe0 2.94 50.16 116.11 47.33 115.81 147.80 -63.08 
DOCKED: USER  keepresnum = 1 
DOCKED: USER  
DOCKED: REMARK  Name = 
DOCKED: REMARK  11 active torsions:
DOCKED: REMARK  status: ('A' for Active; 'I' for Inactive)
DOCKED: REMARK    1  A    between atoms: C_1  and  N_2
DOCKED: REMARK    2  A    between atoms: N_2  and  C_3
DOCKED: REMARK    3  A    between atoms: N_2  and  C_22
DOCKED: REMARK    4  A    between atoms: C_6  and  C_9
DOCKED: REMARK    5  A    between atoms: C_9  and  C_10
DOCKED: REMARK    6  A    between atoms: C_10  and  C_11
DOCKED: REMARK    7  A    between atoms: C_10  and  C_20
DOCKED: REMARK    8  A    between atoms: C_12  and  C_13
DOCKED: REMARK    9  A    between atoms: C_12  and  C_19
DOCKED: REMARK   10  A    between atoms: C_14  and  C_15
DOCKED: REMARK   11  A    between atoms: N_16  and  O_17
DOCKED: REMARK                            x       y       z     vdW  Elec       q    Type
DOCKED: REMARK                         _______ _______ _______ _____ _____    ______ ____
DOCKED: USER                              x       y       z     vdW  Elec       q    Type
DOCKED: USER                           _______ _______ _______ _____ _____    ______ ____
DOCKED: ROOT
DOCKED: ATOM      1  C   UNL     1      37.378  15.815 121.815 -0.26 -0.00    +0.000 C 
DOCKED: ATOM      2  C   UNL     1      35.942  16.213 122.168 -0.25 -0.00    +0.000 C 
DOCKED: ENDROOT
DOCKED: BRANCH   1   3
DOCKED: ATOM      3  C   UNL     1      37.480  14.317 121.619 -0.39 -0.00    +0.000 C 
DOCKED: ATOM      4  C   UNL     1      37.058  13.399 122.513 -0.53 -0.00    +0.000 C 
DOCKED: ATOM      5  C   UNL     1      36.444  13.801 123.837 -0.51 -0.00    +0.000 C 
DOCKED: BRANCH   4   6
DOCKED: ATOM      6  C   UNL     1      37.274  11.964 122.191 -0.51 -0.00    +0.000 C 
DOCKED: ATOM      7  C   UNL     1      36.529  10.977 122.711 -0.68 -0.00    +0.000 C 
DOCKED: BRANCH   7   8
DOCKED: ATOM      8  C   UNL     1      36.739   9.549 122.395 -0.70 -0.00    +0.000 C 
DOCKED: ATOM      9  N   UNL     1      36.762   8.534 123.407 -0.66 -0.00    +0.000 N 
DOCKED: ATOM     10  O   UNL     1      36.878   9.216 121.187 -2.69 -0.00    +0.000 OA
DOCKED: ATOM     11  H   UNL     1      36.553   8.768 124.340 -0.35 -0.00    +0.000 HD
DOCKED: BRANCH   9  12
DOCKED: ATOM     12  O   UNL     1      37.069   7.256 123.082 -2.08 -0.00    +0.000 OA
DOCKED: ATOM     13  H   UNL     1      37.292   7.205 122.140 -0.14 -0.00    +0.000 HD
DOCKED: ENDBRANCH   9  12
DOCKED: ENDBRANCH   7   8
DOCKED: ENDBRANCH   4   6
DOCKED: ENDBRANCH   1   3
DOCKED: BRANCH   1  14
DOCKED: ATOM     14  C   UNL     1      38.315  16.272 122.913 -0.28 -0.00    +0.000 C 
DOCKED: ATOM     15  O   UNL     1      37.826  16.600 124.030 -0.29 -0.00    +0.000 OA
DOCKED: BRANCH  14  19
DOCKED: ATOM     16  C   UNL     1      42.592  16.495 122.310 -0.35 -0.00    +0.000 A 
DOCKED: ATOM     17  C   UNL     1      41.837  15.416 121.807 -0.35 -0.00    +0.000 A 
DOCKED: ATOM     18  C   UNL     1      40.456  15.351 122.010 -0.36 -0.00    +0.000 A 
DOCKED: ATOM     19  C   UNL     1      39.785  16.363 122.715 -0.26 -0.00    +0.000 A 
DOCKED: ATOM     20  C   UNL     1      40.533  17.437 123.227 -0.24 -0.00    +0.000 A 
DOCKED: ATOM     21  C   UNL     1      41.916  17.502 123.027 -0.28 -0.00    +0.000 A 
DOCKED: ATOM     22  CM  UNL     1      41.186  16.427 122.516 +0.00 -0.00    +0.000 AC
DOCKED: BRANCH  16  23
DOCKED: ATOM     23  C   UNL     1      44.893  17.232 123.080 -0.26 -0.00    +0.000 C 
DOCKED: ATOM     24  N   UNL     1      44.027  16.563 122.101 -0.32 -0.00    +0.000 N 
DOCKED: ATOM     25  C   UNL     1      44.636  15.967 120.906 -0.26 +0.00    +0.000 C 
DOCKED: ENDBRANCH  16  23
DOCKED: ENDBRANCH  14  19
DOCKED: ENDBRANCH   1  14
DOCKED: TORSDOF 7DOCKED: TER
DOCKED: ENDMDL
________________________________________________________________________________


	BEGINNING GENETIC ALGORITHM DOCKING 70 of 100
Run: 70 Seed: 508016406 1643886573 [ Run 70 of 100 GA/GALS ]
Beginning LAMARCKIAN GENETIC ALGORITHM (LGA), with a maximum of 2500000 energy evaluations.

Final-Value: -15.101


	FINAL GENETIC ALGORITHM DOCKED STATE
	_______________________________________________


Detailed state:  trans 35.597 14.683 121.162 quatxyzw -0.574993 0.381597 -0.537577 -0.484538 center 1.179 0.138 -0.353 ntor 7 0.1111 100.6984 -84.7761 -130.4265 55.3515 -48.8016 -180.0000
State:	 35.597  14.683 121.162  -0.657  0.436 -0.615 -122.036      0.11  100.70  -84.78 -130.43   55.35  -48.80 -180.00

DOCKED: MODEL       70
DOCKED: USER    Run = 70
DOCKED: USER    DPF = ligand_dock.biased.dpf
DOCKED: USER  
DOCKED: USER    Estimated Free Energy of Binding    =  -11.17 kcal/mol  [=(1)+(2)+(3)-(4)]
DOCKED: USER    Estimated Inhibition Constant, Ki   =    6.48 nM (nanomolar)  [Temperature = 298.15 K]
DOCKED: USER    
DOCKED: USER    (1) Final Intermolecular Energy     =  -13.26 kcal/mol
DOCKED: USER        vdW + Hbond + desolv Energy     =  -13.26 kcal/mol
DOCKED: USER        Electrostatic Energy            =   +0.00 kcal/mol
DOCKED: USER    (2) Final Total Internal Energy     =   -1.84 kcal/mol
DOCKED: USER    (3) Torsional Free Energy           =   +2.09 kcal/mol
DOCKED: USER    (4) Unbound System's Energy  [=(2)] =   -1.84 kcal/mol
DOCKED: USER    
DOCKED: USER    
DOCKED: USER    NEWDPF move ligand.dum.pdbqt
DOCKED: USER    NEWDPF about 1.179000 0.138000 -0.353000
DOCKED: USER    NEWDPF tran0 35.596551 14.683111 121.161967
DOCKED: USER    NEWDPF quaternion0 -0.574993 0.381597 -0.537577 -0.484538
DOCKED: USER    NEWDPF axisangle0 -0.657308 0.436225 -0.614536 -122.035536
DOCKED: USER    NEWDPF quat0 -0.657308 0.436225 -0.614536 -122.035536
DOCKED: USER    NEWDPF dihe0 0.11 100.70 -84.78 -130.43 55.35 -48.80 -180.00 
DOCKED: USER  keepresnum = 1 
DOCKED: USER  
DOCKED: REMARK  Name = 
DOCKED: REMARK  11 active torsions:
DOCKED: REMARK  status: ('A' for Active; 'I' for Inactive)
DOCKED: REMARK    1  A    between atoms: C_1  and  N_2
DOCKED: REMARK    2  A    between atoms: N_2  and  C_3
DOCKED: REMARK    3  A    between atoms: N_2  and  C_22
DOCKED: REMARK    4  A    between atoms: C_6  and  C_9
DOCKED: REMARK    5  A    between atoms: C_9  and  C_10
DOCKED: REMARK    6  A    between atoms: C_10  and  C_11
DOCKED: REMARK    7  A    between atoms: C_10  and  C_20
DOCKED: REMARK    8  A    between atoms: C_12  and  C_13
DOCKED: REMARK    9  A    between atoms: C_12  and  C_19
DOCKED: REMARK   10  A    between atoms: C_14  and  C_15
DOCKED: REMARK   11  A    between atoms: N_16  and  O_17
DOCKED: REMARK                            x       y       z     vdW  Elec       q    Type
DOCKED: REMARK                         _______ _______ _______ _____ _____    ______ ____
DOCKED: USER                              x       y       z     vdW  Elec       q    Type
DOCKED: USER                           _______ _______ _______ _____ _____    ______ ____
DOCKED: ROOT
DOCKED: ATOM      1  C   UNL     1      37.337  15.335 121.642 -0.29 -0.00    +0.000 C 
DOCKED: ATOM      2  C   UNL     1      38.819  15.626 121.899 -0.29 -0.00    +0.000 C 
DOCKED: ENDROOT
DOCKED: BRANCH   1   3
DOCKED: ATOM      3  C   UNL     1      37.066  13.848 121.729 -0.41 -0.00    +0.000 C 
DOCKED: ATOM      4  C   UNL     1      36.356  13.256 122.712 -0.51 -0.00    +0.000 C 
DOCKED: ATOM      5  C   UNL     1      35.765  14.051 123.856 -0.56 -0.00    +0.000 C 
DOCKED: BRANCH   4   6
DOCKED: ATOM      6  C   UNL     1      36.221  11.776 122.678 -0.65 -0.00    +0.000 C 
DOCKED: ATOM      7  C   UNL     1      37.121  10.971 122.093 -0.47 -0.00    +0.000 C 
DOCKED: BRANCH   7   8
DOCKED: ATOM      8  C   UNL     1      36.992   9.500 122.056 -0.63 -0.00    +0.000 C 
DOCKED: ATOM      9  N   UNL     1      37.072   8.692 123.237 -0.68 -0.00    +0.000 N 
DOCKED: ATOM     10  O   UNL     1      36.781   8.945 120.944 -2.63 -0.00    +0.000 OA
DOCKED: ATOM     11  H   UNL     1      37.134   9.121 124.121 -0.55 -0.00    +0.000 HD
DOCKED: BRANCH   9  12
DOCKED: ATOM     12  O   UNL     1      37.061   7.342 123.140 -2.15 -0.00    +0.000 OA
DOCKED: ATOM     13  H   UNL     1      36.997   7.084 122.207 -0.10 -0.00    +0.000 HD
DOCKED: ENDBRANCH   9  12
DOCKED: ENDBRANCH   7   8
DOCKED: ENDBRANCH   4   6
DOCKED: ENDBRANCH   1   3
DOCKED: BRANCH   1  14
DOCKED: ATOM     14  C   UNL     1      36.944  15.868 120.281 -0.20 -0.00    +0.000 C 
DOCKED: ATOM     15  O   UNL     1      36.322  16.964 120.214 -0.19 -0.00    +0.000 OA
DOCKED: BRANCH  14  19
DOCKED: ATOM     16  C   UNL     1      37.874  13.768 116.616 -0.35 -0.00    +0.000 A 
DOCKED: ATOM     17  C   UNL     1      38.639  14.873 117.040 -0.20 -0.00    +0.000 A 
DOCKED: ATOM     18  C   UNL     1      38.329  15.547 118.224 -0.15 -0.00    +0.000 A 
DOCKED: ATOM     19  C   UNL     1      37.251  15.135 119.024 -0.21 -0.00    +0.000 A 
DOCKED: ATOM     20  C   UNL     1      36.478  14.040 118.602 -0.31 -0.00    +0.000 A 
DOCKED: ATOM     21  C   UNL     1      36.786  13.366 117.416 -0.34 -0.00    +0.000 A 
DOCKED: ATOM     22  CM  UNL     1      37.559  14.456 117.820 +0.00 -0.00    +0.000 AC
DOCKED: BRANCH  16  23
DOCKED: ATOM     23  C   UNL     1      37.442  13.338 114.155 -0.40 -0.00    +0.000 C 
DOCKED: ATOM     24  N   UNL     1      38.194  13.067 115.386 -0.49 -0.00    +0.000 N 
DOCKED: ATOM     25  C   UNL     1      39.274  12.073 115.352 -0.49 -0.00    +0.000 C 
DOCKED: ENDBRANCH  16  23
DOCKED: ENDBRANCH  14  19
DOCKED: ENDBRANCH   1  14
DOCKED: TORSDOF 7DOCKED: TER
DOCKED: ENDMDL
________________________________________________________________________________


	BEGINNING GENETIC ALGORITHM DOCKING 71 of 100
Run: 71 Seed: 1878282514 2138893404 [ Run 71 of 100 GA/GALS ]
Beginning LAMARCKIAN GENETIC ALGORITHM (LGA), with a maximum of 2500000 energy evaluations.

Final-Value: -14.718


	FINAL GENETIC ALGORITHM DOCKED STATE
	_______________________________________________


Detailed state:  trans 36.917 14.484 120.992 quatxyzw 0.476335 -0.178745 0.645102 0.570087 center 1.179 0.138 -0.353 ntor 7 -179.5401 112.0811 -2.4964 120.7651 87.1391 -47.6831 -81.1391
State:	 36.917  14.484 120.992   0.580 -0.218  0.785 110.487   -179.54  112.08   -2.50  120.77   87.14  -47.68  -81.14

DOCKED: MODEL       71
DOCKED: USER    Run = 71
DOCKED: USER    DPF = ligand_dock.biased.dpf
DOCKED: USER  
DOCKED: USER    Estimated Free Energy of Binding    =  -11.27 kcal/mol  [=(1)+(2)+(3)-(4)]
DOCKED: USER    Estimated Inhibition Constant, Ki   =    5.44 nM (nanomolar)  [Temperature = 298.15 K]
DOCKED: USER    
DOCKED: USER    (1) Final Intermolecular Energy     =  -13.36 kcal/mol
DOCKED: USER        vdW + Hbond + desolv Energy     =  -13.36 kcal/mol
DOCKED: USER        Electrostatic Energy            =   +0.00 kcal/mol
DOCKED: USER    (2) Final Total Internal Energy     =   -1.36 kcal/mol
DOCKED: USER    (3) Torsional Free Energy           =   +2.09 kcal/mol
DOCKED: USER    (4) Unbound System's Energy  [=(2)] =   -1.36 kcal/mol
DOCKED: USER    
DOCKED: USER    
DOCKED: USER    NEWDPF move ligand.dum.pdbqt
DOCKED: USER    NEWDPF about 1.179000 0.138000 -0.353000
DOCKED: USER    NEWDPF tran0 36.917042 14.483840 120.992157
DOCKED: USER    NEWDPF quaternion0 0.476335 -0.178745 0.645102 0.570087
DOCKED: USER    NEWDPF axisangle0 0.579775 -0.217562 0.785193 110.487468
DOCKED: USER    NEWDPF quat0 0.579775 -0.217562 0.785193 110.487468
DOCKED: USER    NEWDPF dihe0 -179.54 112.08 -2.50 120.77 87.14 -47.68 -81.14 
DOCKED: USER  keepresnum = 1 
DOCKED: USER  
DOCKED: REMARK  Name = 
DOCKED: REMARK  11 active torsions:
DOCKED: REMARK  status: ('A' for Active; 'I' for Inactive)
DOCKED: REMARK    1  A    between atoms: C_1  and  N_2
DOCKED: REMARK    2  A    between atoms: N_2  and  C_3
DOCKED: REMARK    3  A    between atoms: N_2  and  C_22
DOCKED: REMARK    4  A    between atoms: C_6  and  C_9
DOCKED: REMARK    5  A    between atoms: C_9  and  C_10
DOCKED: REMARK    6  A    between atoms: C_10  and  C_11
DOCKED: REMARK    7  A    between atoms: C_10  and  C_20
DOCKED: REMARK    8  A    between atoms: C_12  and  C_13
DOCKED: REMARK    9  A    between atoms: C_12  and  C_19
DOCKED: REMARK   10  A    between atoms: C_14  and  C_15
DOCKED: REMARK   11  A    between atoms: N_16  and  O_17
DOCKED: REMARK                            x       y       z     vdW  Elec       q    Type
DOCKED: REMARK                         _______ _______ _______ _____ _____    ______ ____
DOCKED: USER                              x       y       z     vdW  Elec       q    Type
DOCKED: USER                           _______ _______ _______ _____ _____    ______ ____
DOCKED: ROOT
DOCKED: ATOM      1  C   UNL     1      38.122  15.448 122.134 -0.32 -0.00    +0.000 C 
DOCKED: ATOM      2  C   UNL     1      39.252  15.997 123.010 -0.25 -0.00    +0.000 C 
DOCKED: ENDROOT
DOCKED: BRANCH   1   3
DOCKED: ATOM      3  C   UNL     1      38.016  13.945 122.289 -0.47 -0.00    +0.000 C 
DOCKED: ATOM      4  C   UNL     1      36.983  13.309 122.879 -0.57 -0.00    +0.000 C 
DOCKED: ATOM      5  C   UNL     1      35.813  14.067 123.469 -0.53 -0.00    +0.000 C 
DOCKED: BRANCH   4   6
DOCKED: ATOM      6  C   UNL     1      37.052  11.829 122.995 -0.65 -0.00    +0.000 C 
DOCKED: ATOM      7  C   UNL     1      36.715  10.999 121.996 -0.62 -0.00    +0.000 C 
DOCKED: BRANCH   7   8
DOCKED: ATOM      8  C   UNL     1      36.781   9.527 122.105 -0.68 -0.00    +0.000 C 
DOCKED: ATOM      9  N   UNL     1      36.894   8.854 123.366 -0.62 -0.00    +0.000 N 
DOCKED: ATOM     10  O   UNL     1      36.711   8.844 121.049 -2.62 -0.00    +0.000 OA
DOCKED: ATOM     11  H   UNL     1      36.847   9.371 124.203 -0.52 -0.00    +0.000 HD
DOCKED: BRANCH   9  12
DOCKED: ATOM     12  O   UNL     1      37.064   7.512 123.409 -2.19 -0.00    +0.000 OA
DOCKED: ATOM     13  H   UNL     1      37.114   7.221 124.333 -0.53 -0.00    +0.000 HD
DOCKED: ENDBRANCH   9  12
DOCKED: ENDBRANCH   7   8
DOCKED: ENDBRANCH   4   6
DOCKED: ENDBRANCH   1   3
DOCKED: BRANCH   1  14
DOCKED: ATOM     14  C   UNL     1      38.377  15.816 120.687 -0.21 -0.00    +0.000 C 
DOCKED: ATOM     15  O   UNL     1      39.388  16.518 120.409 -0.14 -0.00    +0.000 OA
DOCKED: BRANCH  14  19
DOCKED: ATOM     16  C   UNL     1      35.748  14.541 117.499 -0.29 -0.00    +0.000 A 
DOCKED: ATOM     17  C   UNL     1      36.563  13.620 118.187 -0.36 -0.00    +0.000 A 
DOCKED: ATOM     18  C   UNL     1      37.412  14.042 119.213 -0.33 -0.00    +0.000 A 
DOCKED: ATOM     19  C   UNL     1      37.468  15.394 119.590 -0.20 -0.00    +0.000 A 
DOCKED: ATOM     20  C   UNL     1      36.664  16.319 118.901 -0.14 -0.00    +0.000 A 
DOCKED: ATOM     21  C   UNL     1      35.816  15.898 117.872 -0.16 -0.00    +0.000 A 
DOCKED: ATOM     22  CM  UNL     1      36.612  14.969 118.544 +0.00 -0.00    +0.000 AC
DOCKED: BRANCH  16  23
DOCKED: ATOM     23  C   UNL     1      35.347  14.036 115.047 -0.28 -0.00    +0.000 C 
DOCKED: ATOM     24  N   UNL     1      34.865  14.105 116.432 -0.32 -0.00    +0.000 N 
DOCKED: ATOM     25  C   UNL     1      33.476  13.727 116.718 -0.36 -0.00    +0.000 C 
DOCKED: ENDBRANCH  16  23
DOCKED: ENDBRANCH  14  19
DOCKED: ENDBRANCH   1  14
DOCKED: TORSDOF 7DOCKED: TER
DOCKED: ENDMDL
________________________________________________________________________________


	BEGINNING GENETIC ALGORITHM DOCKING 72 of 100
Run: 72 Seed: 1275268347 1126006625 [ Run 72 of 100 GA/GALS ]
Beginning LAMARCKIAN GENETIC ALGORITHM (LGA), with a maximum of 2500000 energy evaluations.

Final-Value: -14.335


	FINAL GENETIC ALGORITHM DOCKED STATE
	_______________________________________________


Detailed state:  trans 38.837 14.547 121.845 quatxyzw -0.356941 0.484581 0.693044 0.396818 center 1.179 0.138 -0.353 ntor 7 9.9180 40.3591 169.0979 178.8735 119.0648 -52.5444 -47.7060
State:	 38.837  14.547 121.845  -0.389  0.528  0.755 133.241      9.92   40.36  169.10  178.87  119.06  -52.54  -47.71

DOCKED: MODEL       72
DOCKED: USER    Run = 72
DOCKED: USER    DPF = ligand_dock.biased.dpf
DOCKED: USER  
DOCKED: USER    Estimated Free Energy of Binding    =  -10.53 kcal/mol  [=(1)+(2)+(3)-(4)]
DOCKED: USER    Estimated Inhibition Constant, Ki   =   19.15 nM (nanomolar)  [Temperature = 298.15 K]
DOCKED: USER    
DOCKED: USER    (1) Final Intermolecular Energy     =  -12.62 kcal/mol
DOCKED: USER        vdW + Hbond + desolv Energy     =  -12.62 kcal/mol
DOCKED: USER        Electrostatic Energy            =   +0.00 kcal/mol
DOCKED: USER    (2) Final Total Internal Energy     =   -1.72 kcal/mol
DOCKED: USER    (3) Torsional Free Energy           =   +2.09 kcal/mol
DOCKED: USER    (4) Unbound System's Energy  [=(2)] =   -1.72 kcal/mol
DOCKED: USER    
DOCKED: USER    
DOCKED: USER    NEWDPF move ligand.dum.pdbqt
DOCKED: USER    NEWDPF about 1.179000 0.138000 -0.353000
DOCKED: USER    NEWDPF tran0 38.836509 14.546691 121.844594
DOCKED: USER    NEWDPF quaternion0 -0.356941 0.484581 0.693044 0.396818
DOCKED: USER    NEWDPF axisangle0 -0.388868 0.527925 0.755034 133.241196
DOCKED: USER    NEWDPF quat0 -0.388868 0.527925 0.755034 133.241196
DOCKED: USER    NEWDPF dihe0 9.92 40.36 169.10 178.87 119.06 -52.54 -47.71 
DOCKED: USER  keepresnum = 1 
DOCKED: USER  
DOCKED: REMARK  Name = 
DOCKED: REMARK  11 active torsions:
DOCKED: REMARK  status: ('A' for Active; 'I' for Inactive)
DOCKED: REMARK    1  A    between atoms: C_1  and  N_2
DOCKED: REMARK    2  A    between atoms: N_2  and  C_3
DOCKED: REMARK    3  A    between atoms: N_2  and  C_22
DOCKED: REMARK    4  A    between atoms: C_6  and  C_9
DOCKED: REMARK    5  A    between atoms: C_9  and  C_10
DOCKED: REMARK    6  A    between atoms: C_10  and  C_11
DOCKED: REMARK    7  A    between atoms: C_10  and  C_20
DOCKED: REMARK    8  A    between atoms: C_12  and  C_13
DOCKED: REMARK    9  A    between atoms: C_12  and  C_19
DOCKED: REMARK   10  A    between atoms: C_14  and  C_15
DOCKED: REMARK   11  A    between atoms: N_16  and  O_17
DOCKED: REMARK                            x       y       z     vdW  Elec       q    Type
DOCKED: REMARK                         _______ _______ _______ _____ _____    ______ ____
DOCKED: USER                              x       y       z     vdW  Elec       q    Type
DOCKED: USER                           _______ _______ _______ _____ _____    ______ ____
DOCKED: ROOT
DOCKED: ATOM      1  C   UNL     1      37.243  15.614 121.925 -0.29 -0.00    +0.000 C 
DOCKED: ATOM      2  C   UNL     1      35.876  16.265 122.159 -0.24 -0.00    +0.000 C 
DOCKED: ENDROOT
DOCKED: BRANCH   1   3
DOCKED: ATOM      3  C   UNL     1      37.109  14.106 121.875 -0.40 -0.00    +0.000 C 
DOCKED: ATOM      4  C   UNL     1      37.203  13.367 120.751 -0.43 -0.00    +0.000 C 
DOCKED: ATOM      5  C   UNL     1      37.442  14.003 119.398 -0.37 -0.00    +0.000 C 
DOCKED: BRANCH   4   6
DOCKED: ATOM      6  C   UNL     1      37.000  11.899 120.863 -0.50 -0.00    +0.000 C 
DOCKED: ATOM      7  C   UNL     1      37.198  11.217 122.001 -0.40 -0.00    +0.000 C 
DOCKED: BRANCH   7   8
DOCKED: ATOM      8  C   UNL     1      36.999   9.758 122.120 -0.61 -0.00    +0.000 C 
DOCKED: ATOM      9  N   UNL     1      37.070   9.072 123.376 -0.59 -0.00    +0.000 N 
DOCKED: ATOM     10  O   UNL     1      36.733   9.103 121.076 -2.63 -0.00    +0.000 OA
DOCKED: ATOM     11  H   UNL     1      37.175   9.586 124.210 -0.60 -0.00    +0.000 HD
DOCKED: BRANCH   9  12
DOCKED: ATOM     12  O   UNL     1      36.992   7.722 123.420 -2.26 -0.00    +0.000 OA
DOCKED: ATOM     13  H   UNL     1      37.049   7.364 122.520 -0.08 -0.00    +0.000 HD
DOCKED: ENDBRANCH   9  12
DOCKED: ENDBRANCH   7   8
DOCKED: ENDBRANCH   4   6
DOCKED: ENDBRANCH   1   3
DOCKED: BRANCH   1  14
DOCKED: ATOM     14  C   UNL     1      38.196  16.026 123.027 -0.31 -0.00    +0.000 C 
DOCKED: ATOM     15  O   UNL     1      37.729  16.258 124.177 -0.22 -0.00    +0.000 OA
DOCKED: BRANCH  14  19
DOCKED: ATOM     16  C   UNL     1      42.442  16.447 122.323 -0.36 -0.00    +0.000 A 
DOCKED: ATOM     17  C   UNL     1      41.697  15.418 121.712 -0.32 -0.00    +0.000 A 
DOCKED: ATOM     18  C   UNL     1      40.326  15.288 121.948 -0.35 -0.00    +0.000 A 
DOCKED: ATOM     19  C   UNL     1      39.655  16.184 122.796 -0.25 -0.00    +0.000 A 
DOCKED: ATOM     20  C   UNL     1      40.394  17.206 123.416 -0.25 -0.00    +0.000 A 
DOCKED: ATOM     21  C   UNL     1      41.766  17.336 123.182 -0.30 -0.00    +0.000 A 
DOCKED: ATOM     22  CM  UNL     1      41.047  16.313 122.563 +0.00 -0.00    +0.000 AC
DOCKED: BRANCH  16  23
DOCKED: ATOM     23  C   UNL     1      44.714  17.338 123.009 -0.26 -0.00    +0.000 C 
DOCKED: ATOM     24  N   UNL     1      43.867  16.582 122.079 -0.32 -0.00    +0.000 N 
DOCKED: ATOM     25  C   UNL     1      44.484  15.969 120.897 -0.27 +0.00    +0.000 C 
DOCKED: ENDBRANCH  16  23
DOCKED: ENDBRANCH  14  19
DOCKED: ENDBRANCH   1  14
DOCKED: TORSDOF 7DOCKED: TER
DOCKED: ENDMDL
________________________________________________________________________________


	BEGINNING GENETIC ALGORITHM DOCKING 73 of 100
Run: 73 Seed: 805275988 1376391672 [ Run 73 of 100 GA/GALS ]
Beginning LAMARCKIAN GENETIC ALGORITHM (LGA), with a maximum of 2500000 energy evaluations.

Final-Value: -15.573


	FINAL GENETIC ALGORITHM DOCKED STATE
	_______________________________________________


Detailed state:  trans 36.187 14.576 122.098 quatxyzw -0.633017 0.416532 -0.462983 -0.459823 center 1.179 0.138 -0.353 ntor 7 11.9406 -78.3152 -27.5655 156.0681 58.2478 -15.0913 174.6527
State:	 36.187  14.576 122.098  -0.713  0.469 -0.521 -125.249     11.94  -78.32  -27.57  156.07   58.25  -15.09  174.65

DOCKED: MODEL       73
DOCKED: USER    Run = 73
DOCKED: USER    DPF = ligand_dock.biased.dpf
DOCKED: USER  
DOCKED: USER    Estimated Free Energy of Binding    =  -11.54 kcal/mol  [=(1)+(2)+(3)-(4)]
DOCKED: USER    Estimated Inhibition Constant, Ki   =    3.46 nM (nanomolar)  [Temperature = 298.15 K]
DOCKED: USER    
DOCKED: USER    (1) Final Intermolecular Energy     =  -13.63 kcal/mol
DOCKED: USER        vdW + Hbond + desolv Energy     =  -13.63 kcal/mol
DOCKED: USER        Electrostatic Energy            =   +0.00 kcal/mol
DOCKED: USER    (2) Final Total Internal Energy     =   -1.94 kcal/mol
DOCKED: USER    (3) Torsional Free Energy           =   +2.09 kcal/mol
DOCKED: USER    (4) Unbound System's Energy  [=(2)] =   -1.94 kcal/mol
DOCKED: USER    
DOCKED: USER    
DOCKED: USER    NEWDPF move ligand.dum.pdbqt
DOCKED: USER    NEWDPF about 1.179000 0.138000 -0.353000
DOCKED: USER    NEWDPF tran0 36.186997 14.575718 122.097982
DOCKED: USER    NEWDPF quaternion0 -0.633017 0.416532 -0.462983 -0.459823
DOCKED: USER    NEWDPF axisangle0 -0.712849 0.469061 -0.521371 -125.248626
DOCKED: USER    NEWDPF quat0 -0.712849 0.469061 -0.521371 -125.248626
DOCKED: USER    NEWDPF dihe0 11.94 -78.32 -27.57 156.07 58.25 -15.09 174.65 
DOCKED: USER  keepresnum = 1 
DOCKED: USER  
DOCKED: REMARK  Name = 
DOCKED: REMARK  11 active torsions:
DOCKED: REMARK  status: ('A' for Active; 'I' for Inactive)
DOCKED: REMARK    1  A    between atoms: C_1  and  N_2
DOCKED: REMARK    2  A    between atoms: N_2  and  C_3
DOCKED: REMARK    3  A    between atoms: N_2  and  C_22
DOCKED: REMARK    4  A    between atoms: C_6  and  C_9
DOCKED: REMARK    5  A    between atoms: C_9  and  C_10
DOCKED: REMARK    6  A    between atoms: C_10  and  C_11
DOCKED: REMARK    7  A    between atoms: C_10  and  C_20
DOCKED: REMARK    8  A    between atoms: C_12  and  C_13
DOCKED: REMARK    9  A    between atoms: C_12  and  C_19
DOCKED: REMARK   10  A    between atoms: C_14  and  C_15
DOCKED: REMARK   11  A    between atoms: N_16  and  O_17
DOCKED: REMARK                            x       y       z     vdW  Elec       q    Type
DOCKED: REMARK                         _______ _______ _______ _____ _____    ______ ____
DOCKED: USER                              x       y       z     vdW  Elec       q    Type
DOCKED: USER                           _______ _______ _______ _____ _____    ______ ____
DOCKED: ROOT
DOCKED: ATOM      1  C   UNL     1      37.954  15.313 122.231 -0.34 -0.00    +0.000 C 
DOCKED: ATOM      2  C   UNL     1      39.442  15.676 122.191 -0.33 -0.00    +0.000 C 
DOCKED: ENDROOT
DOCKED: BRANCH   1   3
DOCKED: ATOM      3  C   UNL     1      37.779  13.813 122.348 -0.49 -0.00    +0.000 C 
DOCKED: ATOM      4  C   UNL     1      36.799  13.211 123.052 -0.59 -0.00    +0.000 C 
DOCKED: ATOM      5  C   UNL     1      35.768  14.007 123.823 -0.56 -0.00    +0.000 C 
DOCKED: BRANCH   4   6
DOCKED: ATOM      6  C   UNL     1      36.793  11.725 123.107 -0.68 -0.00    +0.000 C 
DOCKED: ATOM      7  C   UNL     1      36.946  10.952 122.022 -0.57 -0.00    +0.000 C 
DOCKED: BRANCH   7   8
DOCKED: ATOM      8  C   UNL     1      36.941   9.475 122.070 -0.65 -0.00    +0.000 C 
DOCKED: ATOM      9  N   UNL     1      36.970   8.746 123.304 -0.65 -0.00    +0.000 N 
DOCKED: ATOM     10  O   UNL     1      36.885   8.840 120.982 -2.66 -0.00    +0.000 OA
DOCKED: ATOM     11  H   UNL     1      36.910   9.229 124.160 -0.53 -0.00    +0.000 HD
DOCKED: BRANCH   9  12
DOCKED: ATOM     12  O   UNL     1      37.077   7.397 123.295 -2.15 -0.00    +0.000 OA
DOCKED: ATOM     13  H   UNL     1      37.313   7.096 122.404 -0.18 -0.00    +0.000 HD
DOCKED: ENDBRANCH   9  12
DOCKED: ENDBRANCH   7   8
DOCKED: ENDBRANCH   4   6
DOCKED: ENDBRANCH   1   3
DOCKED: BRANCH   1  14
DOCKED: ATOM     14  C   UNL     1      37.272  15.832 120.983 -0.22 -0.00    +0.000 C 
DOCKED: ATOM     15  O   UNL     1      36.515  16.836 121.079 -0.20 -0.00    +0.000 OA
DOCKED: BRANCH  14  19
DOCKED: ATOM     16  C   UNL     1      37.824  13.991 117.109 -0.32 -0.00    +0.000 A 
DOCKED: ATOM     17  C   UNL     1      38.549  15.140 117.483 -0.17 -0.00    +0.000 A 
DOCKED: ATOM     18  C   UNL     1      38.362  15.729 118.735 -0.14 -0.00    +0.000 A 
DOCKED: ATOM     19  C   UNL     1      37.450  15.187 119.655 -0.21 -0.00    +0.000 A 
DOCKED: ATOM     20  C   UNL     1      36.717  14.046 119.285 -0.27 -0.00    +0.000 A 
DOCKED: ATOM     21  C   UNL     1      36.902  13.456 118.031 -0.36 -0.00    +0.000 A 
DOCKED: ATOM     22  CM  UNL     1      37.634  14.592 118.383 +0.00 -0.00    +0.000 AC
DOCKED: BRANCH  16  23
DOCKED: ATOM     23  C   UNL     1      39.149  12.472 115.569 -0.54 -0.00    +0.000 C 
DOCKED: ATOM     24  N   UNL     1      38.018  13.377 115.807 -0.44 -0.00    +0.000 N 
DOCKED: ATOM     25  C   UNL     1      37.087  13.652 114.706 -0.38 -0.00    +0.000 C 
DOCKED: ENDBRANCH  16  23
DOCKED: ENDBRANCH  14  19
DOCKED: ENDBRANCH   1  14
DOCKED: TORSDOF 7DOCKED: TER
DOCKED: ENDMDL
________________________________________________________________________________


	BEGINNING GENETIC ALGORITHM DOCKING 74 of 100
Run: 74 Seed: 1570272453 173282205 [ Run 74 of 100 GA/GALS ]
Beginning LAMARCKIAN GENETIC ALGORITHM (LGA), with a maximum of 2500000 energy evaluations.

Final-Value: -14.788


	FINAL GENETIC ALGORITHM DOCKED STATE
	_______________________________________________


Detailed state:  trans 36.628 14.392 120.615 quatxyzw -0.463941 0.182796 -0.687317 -0.528147 center 1.179 0.138 -0.353 ntor 7 72.4818 125.9449 -54.5550 -173.9373 64.5407 -67.7303 -80.2854
State:	 36.628  14.392 120.615  -0.546  0.215 -0.809 -116.239     72.48  125.94  -54.55 -173.94   64.54  -67.73  -80.29

DOCKED: MODEL       74
DOCKED: USER    Run = 74
DOCKED: USER    DPF = ligand_dock.biased.dpf
DOCKED: USER  
DOCKED: USER    Estimated Free Energy of Binding    =  -11.31 kcal/mol  [=(1)+(2)+(3)-(4)]
DOCKED: USER    Estimated Inhibition Constant, Ki   =    5.14 nM (nanomolar)  [Temperature = 298.15 K]
DOCKED: USER    
DOCKED: USER    (1) Final Intermolecular Energy     =  -13.40 kcal/mol
DOCKED: USER        vdW + Hbond + desolv Energy     =  -13.40 kcal/mol
DOCKED: USER        Electrostatic Energy            =   +0.00 kcal/mol
DOCKED: USER    (2) Final Total Internal Energy     =   -1.39 kcal/mol
DOCKED: USER    (3) Torsional Free Energy           =   +2.09 kcal/mol
DOCKED: USER    (4) Unbound System's Energy  [=(2)] =   -1.39 kcal/mol
DOCKED: USER    
DOCKED: USER    
DOCKED: USER    NEWDPF move ligand.dum.pdbqt
DOCKED: USER    NEWDPF about 1.179000 0.138000 -0.353000
DOCKED: USER    NEWDPF tran0 36.627671 14.392048 120.615015
DOCKED: USER    NEWDPF quaternion0 -0.463941 0.182796 -0.687317 -0.528147
DOCKED: USER    NEWDPF axisangle0 -0.546358 0.215268 -0.809415 -116.239274
DOCKED: USER    NEWDPF quat0 -0.546358 0.215268 -0.809415 -116.239274
DOCKED: USER    NEWDPF dihe0 72.48 125.94 -54.55 -173.94 64.54 -67.73 -80.29 
DOCKED: USER  keepresnum = 1 
DOCKED: USER  
DOCKED: REMARK  Name = 
DOCKED: REMARK  11 active torsions:
DOCKED: REMARK  status: ('A' for Active; 'I' for Inactive)
DOCKED: REMARK    1  A    between atoms: C_1  and  N_2
DOCKED: REMARK    2  A    between atoms: N_2  and  C_3
DOCKED: REMARK    3  A    between atoms: N_2  and  C_22
DOCKED: REMARK    4  A    between atoms: C_6  and  C_9
DOCKED: REMARK    5  A    between atoms: C_9  and  C_10
DOCKED: REMARK    6  A    between atoms: C_10  and  C_11
DOCKED: REMARK    7  A    between atoms: C_10  and  C_20
DOCKED: REMARK    8  A    between atoms: C_12  and  C_13
DOCKED: REMARK    9  A    between atoms: C_12  and  C_19
DOCKED: REMARK   10  A    between atoms: C_14  and  C_15
DOCKED: REMARK   11  A    between atoms: N_16  and  O_17
DOCKED: REMARK                            x       y       z     vdW  Elec       q    Type
DOCKED: REMARK                         _______ _______ _______ _____ _____    ______ ____
DOCKED: USER                              x       y       z     vdW  Elec       q    Type
DOCKED: USER                           _______ _______ _______ _____ _____    ______ ____
DOCKED: ROOT
DOCKED: ATOM      1  C   UNL     1      37.892  15.260 121.769 -0.31 -0.00    +0.000 C 
DOCKED: ATOM      2  C   UNL     1      39.045  15.715 122.669 -0.33 -0.00    +0.000 C 
DOCKED: ENDROOT
DOCKED: BRANCH   1   3
DOCKED: ATOM      3  C   UNL     1      37.614  13.785 121.970 -0.47 -0.00    +0.000 C 
DOCKED: ATOM      4  C   UNL     1      36.725  13.289 122.855 -0.57 -0.00    +0.000 C 
DOCKED: ATOM      5  C   UNL     1      35.915  14.191 123.761 -0.56 -0.00    +0.000 C 
DOCKED: BRANCH   4   6
DOCKED: ATOM      6  C   UNL     1      36.604  11.811 122.965 -0.68 -0.00    +0.000 C 
DOCKED: ATOM      7  C   UNL     1      37.065  10.966 122.031 -0.54 -0.00    +0.000 C 
DOCKED: BRANCH   7   8
DOCKED: ATOM      8  C   UNL     1      36.948   9.497 122.135 -0.64 -0.00    +0.000 C 
DOCKED: ATOM      9  N   UNL     1      37.070   8.803 123.383 -0.63 -0.00    +0.000 N 
DOCKED: ATOM     10  O   UNL     1      36.707   8.840 121.086 -2.62 -0.00    +0.000 OA
DOCKED: ATOM     11  H   UNL     1      37.154   9.313 124.221 -0.59 -0.00    +0.000 HD
DOCKED: BRANCH   9  12
DOCKED: ATOM     12  O   UNL     1      37.067   7.450 123.412 -2.16 -0.00    +0.000 OA
DOCKED: ATOM     13  H   UNL     1      37.906   7.116 123.059 -0.48 -0.00    +0.000 HD
DOCKED: ENDBRANCH   9  12
DOCKED: ENDBRANCH   7   8
DOCKED: ENDBRANCH   4   6
DOCKED: ENDBRANCH   1   3
DOCKED: BRANCH   1  14
DOCKED: ATOM     14  C   UNL     1      38.236  15.543 120.322 -0.22 -0.00    +0.000 C 
DOCKED: ATOM     15  O   UNL     1      39.335  16.105 120.059 -0.17 -0.00    +0.000 OA
DOCKED: BRANCH  14  19
DOCKED: ATOM     16  C   UNL     1      35.583  14.499 117.070 -0.30 -0.00    +0.000 A 
DOCKED: ATOM     17  C   UNL     1      36.591  13.615 117.505 -0.35 -0.00    +0.000 A 
DOCKED: ATOM     18  C   UNL     1      37.445  13.963 118.554 -0.33 -0.00    +0.000 A 
DOCKED: ATOM     19  C   UNL     1      37.316  15.200 119.206 -0.21 -0.00    +0.000 A 
DOCKED: ATOM     20  C   UNL     1      36.319  16.090 118.771 -0.15 -0.00    +0.000 A 
DOCKED: ATOM     21  C   UNL     1      35.465  15.744 117.720 -0.15 -0.00    +0.000 A 
DOCKED: ATOM     22  CM  UNL     1      36.454  14.852 118.138 +0.00 -0.00    +0.000 AC
DOCKED: BRANCH  16  23
DOCKED: ATOM     23  C   UNL     1      35.174  14.152 114.592 -0.26 -0.00    +0.000 C 
DOCKED: ATOM     24  N   UNL     1      34.694  14.140 115.980 -0.29 -0.00    +0.000 N 
DOCKED: ATOM     25  C   UNL     1      33.302  13.760 116.245 -0.39 -0.00    +0.000 C 
DOCKED: ENDBRANCH  16  23
DOCKED: ENDBRANCH  14  19
DOCKED: ENDBRANCH   1  14
DOCKED: TORSDOF 7DOCKED: TER
DOCKED: ENDMDL
________________________________________________________________________________


	BEGINNING GENETIC ALGORITHM DOCKING 75 of 100
Run: 75 Seed: 1652001034 1962143704 [ Run 75 of 100 GA/GALS ]
Beginning LAMARCKIAN GENETIC ALGORITHM (LGA), with a maximum of 2500000 energy evaluations.

Final-Value: -15.149


	FINAL GENETIC ALGORITHM DOCKED STATE
	_______________________________________________


Detailed state:  trans 36.611 15.058 124.214 quatxyzw 0.761570 -0.583859 0.129024 0.249946 center 1.179 0.138 -0.353 ntor 7 5.2290 -146.5707 0.4467 19.0552 -97.8191 147.5681 -52.9894
State:	 36.611  15.058 124.214   0.787 -0.603  0.133 151.051      5.23 -146.57    0.45   19.06  -97.82  147.57  -52.99

DOCKED: MODEL       75
DOCKED: USER    Run = 75
DOCKED: USER    DPF = ligand_dock.biased.dpf
DOCKED: USER  
DOCKED: USER    Estimated Free Energy of Binding    =  -11.57 kcal/mol  [=(1)+(2)+(3)-(4)]
DOCKED: USER    Estimated Inhibition Constant, Ki   =    3.30 nM (nanomolar)  [Temperature = 298.15 K]
DOCKED: USER    
DOCKED: USER    (1) Final Intermolecular Energy     =  -13.66 kcal/mol
DOCKED: USER        vdW + Hbond + desolv Energy     =  -13.66 kcal/mol
DOCKED: USER        Electrostatic Energy            =   +0.00 kcal/mol
DOCKED: USER    (2) Final Total Internal Energy     =   -1.49 kcal/mol
DOCKED: USER    (3) Torsional Free Energy           =   +2.09 kcal/mol
DOCKED: USER    (4) Unbound System's Energy  [=(2)] =   -1.49 kcal/mol
DOCKED: USER    
DOCKED: USER    
DOCKED: USER    NEWDPF move ligand.dum.pdbqt
DOCKED: USER    NEWDPF about 1.179000 0.138000 -0.353000
DOCKED: USER    NEWDPF tran0 36.610910 15.057653 124.214353
DOCKED: USER    NEWDPF quaternion0 0.761570 -0.583859 0.129024 0.249946
DOCKED: USER    NEWDPF axisangle0 0.786535 -0.602998 0.133254 151.051340
DOCKED: USER    NEWDPF quat0 0.786535 -0.602998 0.133254 151.051340
DOCKED: USER    NEWDPF dihe0 5.23 -146.57 0.45 19.06 -97.82 147.57 -52.99 
DOCKED: USER  keepresnum = 1 
DOCKED: USER  
DOCKED: REMARK  Name = 
DOCKED: REMARK  11 active torsions:
DOCKED: REMARK  status: ('A' for Active; 'I' for Inactive)
DOCKED: REMARK    1  A    between atoms: C_1  and  N_2
DOCKED: REMARK    2  A    between atoms: N_2  and  C_3
DOCKED: REMARK    3  A    between atoms: N_2  and  C_22
DOCKED: REMARK    4  A    between atoms: C_6  and  C_9
DOCKED: REMARK    5  A    between atoms: C_9  and  C_10
DOCKED: REMARK    6  A    between atoms: C_10  and  C_11
DOCKED: REMARK    7  A    between atoms: C_10  and  C_20
DOCKED: REMARK    8  A    between atoms: C_12  and  C_13
DOCKED: REMARK    9  A    between atoms: C_12  and  C_19
DOCKED: REMARK   10  A    between atoms: C_14  and  C_15
DOCKED: REMARK   11  A    between atoms: N_16  and  O_17
DOCKED: REMARK                            x       y       z     vdW  Elec       q    Type
DOCKED: REMARK                         _______ _______ _______ _____ _____    ______ ____
DOCKED: USER                              x       y       z     vdW  Elec       q    Type
DOCKED: USER                           _______ _______ _______ _____ _____    ______ ____
DOCKED: ROOT
DOCKED: ATOM      1  C   UNL     1      37.823  15.839 122.948 -0.33 -0.00    +0.000 C 
DOCKED: ATOM      2  C   UNL     1      38.721  16.246 121.775 -0.22 -0.00    +0.000 C 
DOCKED: ENDROOT
DOCKED: BRANCH   1   3
DOCKED: ATOM      3  C   UNL     1      37.785  14.331 123.086 -0.48 -0.00    +0.000 C 
DOCKED: ATOM      4  C   UNL     1      37.478  13.480 122.085 -0.49 -0.00    +0.000 C 
DOCKED: ATOM      5  C   UNL     1      37.119  13.975 120.701 -0.34 -0.00    +0.000 C 
DOCKED: BRANCH   4   6
DOCKED: ATOM      6  C   UNL     1      37.437  12.027 122.396 -0.46 -0.00    +0.000 C 
DOCKED: ATOM      7  C   UNL     1      37.066  11.097 121.504 -0.51 -0.00    +0.000 C 
DOCKED: BRANCH   7   8
DOCKED: ATOM      8  C   UNL     1      37.022   9.651 121.807 -0.59 -0.00    +0.000 C 
DOCKED: ATOM      9  N   UNL     1      36.993   9.149 123.149 -0.65 -0.00    +0.000 N 
DOCKED: ATOM     10  O   UNL     1      36.986   8.838 120.845 -2.69 -0.00    +0.000 OA
DOCKED: ATOM     11  H   UNL     1      36.917   9.775 123.905 -0.44 -0.00    +0.000 HD
DOCKED: BRANCH   9  12
DOCKED: ATOM     12  O   UNL     1      37.067   7.817 123.379 -2.28 -0.00    +0.000 OA
DOCKED: ATOM     13  H   UNL     1      37.219   7.351 122.541 -0.12 -0.00    +0.000 HD
DOCKED: ENDBRANCH   9  12
DOCKED: ENDBRANCH   7   8
DOCKED: ENDBRANCH   4   6
DOCKED: ENDBRANCH   1   3
DOCKED: BRANCH   1  14
DOCKED: ATOM     14  C   UNL     1      36.429  16.388 122.733 -0.31 -0.00    +0.000 C 
DOCKED: ATOM     15  O   UNL     1      36.041  16.615 121.554 -0.25 -0.00    +0.000 OA
DOCKED: BRANCH  14  19
DOCKED: ATOM     16  C   UNL     1      33.768  17.305 126.017 -0.36 -0.00    +0.000 A 
DOCKED: ATOM     17  C   UNL     1      34.427  18.326 125.303 -0.31 -0.00    +0.000 A 
DOCKED: ATOM     18  C   UNL     1      35.288  18.019 124.245 -0.28 -0.00    +0.000 A 
DOCKED: ATOM     19  C   UNL     1      35.511  16.687 123.864 -0.35 -0.00    +0.000 A 
DOCKED: ATOM     20  C   UNL     1      34.864  15.664 124.578 -0.49 -0.00    +0.000 A 
DOCKED: ATOM     21  C   UNL     1      34.004  15.968 125.638 -0.36 -0.00    +0.000 A 
DOCKED: ATOM     22  CM  UNL     1      34.644  16.995 124.941 -0.31 -0.00    +0.000 AC
DOCKED: BRANCH  16  23
DOCKED: ATOM     23  C   UNL     1      32.413  18.999 127.330 -0.26 -0.00    +0.000 C 
DOCKED: ATOM     24  N   UNL     1      32.874  17.622 127.116 -0.33 -0.00    +0.000 N 
DOCKED: ATOM     25  C   UNL     1      32.417  16.571 128.034 -0.46 -0.00    +0.000 C 
DOCKED: ENDBRANCH  16  23
DOCKED: ENDBRANCH  14  19
DOCKED: ENDBRANCH   1  14
DOCKED: TORSDOF 7DOCKED: TER
DOCKED: ENDMDL
________________________________________________________________________________


	BEGINNING GENETIC ALGORITHM DOCKING 76 of 100
Run: 76 Seed: 335336856 664107858 [ Run 76 of 100 GA/GALS ]
Beginning LAMARCKIAN GENETIC ALGORITHM (LGA), with a maximum of 2500000 energy evaluations.

Final-Value: -14.824


	FINAL GENETIC ALGORITHM DOCKED STATE
	_______________________________________________


Detailed state:  trans 36.087 14.886 122.664 quatxyzw 0.580042 -0.470929 0.456494 0.483105 center 1.179 0.138 -0.353 ntor 7 -5.1368 -179.9512 -72.4787 -179.0853 -45.9738 -2.6812 -171.5133
State:	 36.087  14.886 122.664   0.662 -0.538  0.521 122.223     -5.14 -179.95  -72.48 -179.09  -45.97   -2.68 -171.51

DOCKED: MODEL       76
DOCKED: USER    Run = 76
DOCKED: USER    DPF = ligand_dock.biased.dpf
DOCKED: USER  
DOCKED: USER    Estimated Free Energy of Binding    =  -10.87 kcal/mol  [=(1)+(2)+(3)-(4)]
DOCKED: USER    Estimated Inhibition Constant, Ki   =   10.76 nM (nanomolar)  [Temperature = 298.15 K]
DOCKED: USER    
DOCKED: USER    (1) Final Intermolecular Energy     =  -12.96 kcal/mol
DOCKED: USER        vdW + Hbond + desolv Energy     =  -12.96 kcal/mol
DOCKED: USER        Electrostatic Energy            =   +0.00 kcal/mol
DOCKED: USER    (2) Final Total Internal Energy     =   -1.86 kcal/mol
DOCKED: USER    (3) Torsional Free Energy           =   +2.09 kcal/mol
DOCKED: USER    (4) Unbound System's Energy  [=(2)] =   -1.86 kcal/mol
DOCKED: USER    
DOCKED: USER    
DOCKED: USER    NEWDPF move ligand.dum.pdbqt
DOCKED: USER    NEWDPF about 1.179000 0.138000 -0.353000
DOCKED: USER    NEWDPF tran0 36.087380 14.886272 122.663981
DOCKED: USER    NEWDPF quaternion0 0.580042 -0.470929 0.456494 0.483105
DOCKED: USER    NEWDPF axisangle0 0.662480 -0.537858 0.521373 122.223278
DOCKED: USER    NEWDPF quat0 0.662480 -0.537858 0.521373 122.223278
DOCKED: USER    NEWDPF dihe0 -5.14 -179.95 -72.48 -179.09 -45.97 -2.68 -171.51 
DOCKED: USER  keepresnum = 1 
DOCKED: USER  
DOCKED: REMARK  Name = 
DOCKED: REMARK  11 active torsions:
DOCKED: REMARK  status: ('A' for Active; 'I' for Inactive)
DOCKED: REMARK    1  A    between atoms: C_1  and  N_2
DOCKED: REMARK    2  A    between atoms: N_2  and  C_3
DOCKED: REMARK    3  A    between atoms: N_2  and  C_22
DOCKED: REMARK    4  A    between atoms: C_6  and  C_9
DOCKED: REMARK    5  A    between atoms: C_9  and  C_10
DOCKED: REMARK    6  A    between atoms: C_10  and  C_11
DOCKED: REMARK    7  A    between atoms: C_10  and  C_20
DOCKED: REMARK    8  A    between atoms: C_12  and  C_13
DOCKED: REMARK    9  A    between atoms: C_12  and  C_19
DOCKED: REMARK   10  A    between atoms: C_14  and  C_15
DOCKED: REMARK   11  A    between atoms: N_16  and  O_17
DOCKED: REMARK                            x       y       z     vdW  Elec       q    Type
DOCKED: REMARK                         _______ _______ _______ _____ _____    ______ ____
DOCKED: USER                              x       y       z     vdW  Elec       q    Type
DOCKED: USER                           _______ _______ _______ _____ _____    ______ ____
DOCKED: ROOT
DOCKED: ATOM      1  C   UNL     1      37.908  15.444 122.903 -0.36 -0.00    +0.000 C 
DOCKED: ATOM      2  C   UNL     1      39.422  15.681 122.918 -0.24 -0.00    +0.000 C 
DOCKED: ENDROOT
DOCKED: BRANCH   1   3
DOCKED: ATOM      3  C   UNL     1      37.605  13.963 122.817 -0.51 -0.00    +0.000 C 
DOCKED: ATOM      4  C   UNL     1      36.451  13.395 123.222 -0.58 -0.00    +0.000 C 
DOCKED: ATOM      5  C   UNL     1      35.332  14.212 123.831 -0.51 -0.00    +0.000 C 
DOCKED: BRANCH   4   6
DOCKED: ATOM      6  C   UNL     1      36.327  11.917 123.114 -0.69 -0.00    +0.000 C 
DOCKED: ATOM      7  C   UNL     1      37.069  11.179 122.275 -0.56 -0.00    +0.000 C 
DOCKED: BRANCH   7   8
DOCKED: ATOM      8  C   UNL     1      36.950   9.711 122.162 -0.62 -0.00    +0.000 C 
DOCKED: ATOM      9  N   UNL     1      37.070   8.842 123.296 -0.64 -0.00    +0.000 N 
DOCKED: ATOM     10  O   UNL     1      36.712   9.214 121.029 -2.61 +0.00    +0.000 OA
DOCKED: ATOM     11  H   UNL     1      37.153   9.224 124.200 -0.59 -0.00    +0.000 HD
DOCKED: BRANCH   9  12
DOCKED: ATOM     12  O   UNL     1      37.066   7.499 123.127 -2.24 -0.00    +0.000 OA
DOCKED: ATOM     13  H   UNL     1      36.895   7.289 122.196 -0.07 -0.00    +0.000 HD
DOCKED: ENDBRANCH   9  12
DOCKED: ENDBRANCH   7   8
DOCKED: ENDBRANCH   4   6
DOCKED: ENDBRANCH   1   3
DOCKED: BRANCH   1  14
DOCKED: ATOM     14  C   UNL     1      37.292  16.181 121.732 -0.23 -0.00    +0.000 C 
DOCKED: ATOM     15  O   UNL     1      36.853  17.350 121.915 -0.17 -0.00    +0.000 OA
DOCKED: BRANCH  14  19
DOCKED: ATOM     16  C   UNL     1      36.904  14.428 117.798 -0.30 -0.00    +0.000 A 
DOCKED: ATOM     17  C   UNL     1      36.069  15.485 118.214 -0.18 -0.00    +0.000 A 
DOCKED: ATOM     18  C   UNL     1      36.200  16.043 119.488 -0.07 -0.00    +0.000 A 
DOCKED: ATOM     19  C   UNL     1      37.172  15.568 120.383 -0.19 -0.00    +0.000 A 
DOCKED: ATOM     20  C   UNL     1      38.001  14.509 119.978 -0.27 -0.00    +0.000 A 
DOCKED: ATOM     21  C   UNL     1      37.871  13.948 118.704 -0.23 -0.00    +0.000 A 
DOCKED: ATOM     22  CM  UNL     1      37.036  14.997 119.094 +0.00 -0.00    +0.000 AC
DOCKED: BRANCH  16  23
DOCKED: ATOM     23  C   UNL     1      35.525  14.010 115.711 -0.30 -0.00    +0.000 C 
DOCKED: ATOM     24  N   UNL     1      36.769  13.848 116.474 -0.34 -0.00    +0.000 N 
DOCKED: ATOM     25  C   UNL     1      37.873  13.087 115.876 -0.45 -0.00    +0.000 C 
DOCKED: ENDBRANCH  16  23
DOCKED: ENDBRANCH  14  19
DOCKED: ENDBRANCH   1  14
DOCKED: TORSDOF 7DOCKED: TER
DOCKED: ENDMDL
________________________________________________________________________________


	BEGINNING GENETIC ALGORITHM DOCKING 77 of 100
Run: 77 Seed: 1877877054 1030019311 [ Run 77 of 100 GA/GALS ]
Beginning LAMARCKIAN GENETIC ALGORITHM (LGA), with a maximum of 2500000 energy evaluations.

Final-Value: -14.535


	FINAL GENETIC ALGORITHM DOCKED STATE
	_______________________________________________


Detailed state:  trans 36.950 14.573 122.412 quatxyzw 0.758412 -0.606533 0.075085 0.226478 center 1.179 0.138 -0.353 ntor 7 8.5900 166.2916 144.0872 -113.8216 -47.2498 145.5447 -49.2672
State:	 36.950  14.573 122.412   0.779 -0.623  0.077 153.820      8.59  166.29  144.09 -113.82  -47.25  145.54  -49.27

DOCKED: MODEL       77
DOCKED: USER    Run = 77
DOCKED: USER    DPF = ligand_dock.biased.dpf
DOCKED: USER  
DOCKED: USER    Estimated Free Energy of Binding    =  -10.93 kcal/mol  [=(1)+(2)+(3)-(4)]
DOCKED: USER    Estimated Inhibition Constant, Ki   =    9.67 nM (nanomolar)  [Temperature = 298.15 K]
DOCKED: USER    
DOCKED: USER    (1) Final Intermolecular Energy     =  -13.02 kcal/mol
DOCKED: USER        vdW + Hbond + desolv Energy     =  -13.02 kcal/mol
DOCKED: USER        Electrostatic Energy            =   +0.00 kcal/mol
DOCKED: USER    (2) Final Total Internal Energy     =   -1.51 kcal/mol
DOCKED: USER    (3) Torsional Free Energy           =   +2.09 kcal/mol
DOCKED: USER    (4) Unbound System's Energy  [=(2)] =   -1.51 kcal/mol
DOCKED: USER    
DOCKED: USER    
DOCKED: USER    NEWDPF move ligand.dum.pdbqt
DOCKED: USER    NEWDPF about 1.179000 0.138000 -0.353000
DOCKED: USER    NEWDPF tran0 36.949671 14.573141 122.412490
DOCKED: USER    NEWDPF quaternion0 0.758412 -0.606533 0.075085 0.226478
DOCKED: USER    NEWDPF axisangle0 0.778644 -0.622713 0.077088 153.820434
DOCKED: USER    NEWDPF quat0 0.778644 -0.622713 0.077088 153.820434
DOCKED: USER    NEWDPF dihe0 8.59 166.29 144.09 -113.82 -47.25 145.54 -49.27 
DOCKED: USER  keepresnum = 1 
DOCKED: USER  
DOCKED: REMARK  Name = 
DOCKED: REMARK  11 active torsions:
DOCKED: REMARK  status: ('A' for Active; 'I' for Inactive)
DOCKED: REMARK    1  A    between atoms: C_1  and  N_2
DOCKED: REMARK    2  A    between atoms: N_2  and  C_3
DOCKED: REMARK    3  A    between atoms: N_2  and  C_22
DOCKED: REMARK    4  A    between atoms: C_6  and  C_9
DOCKED: REMARK    5  A    between atoms: C_9  and  C_10
DOCKED: REMARK    6  A    between atoms: C_10  and  C_11
DOCKED: REMARK    7  A    between atoms: C_10  and  C_20
DOCKED: REMARK    8  A    between atoms: C_12  and  C_13
DOCKED: REMARK    9  A    between atoms: C_12  and  C_19
DOCKED: REMARK   10  A    between atoms: C_14  and  C_15
DOCKED: REMARK   11  A    between atoms: N_16  and  O_17
DOCKED: REMARK                            x       y       z     vdW  Elec       q    Type
DOCKED: REMARK                         _______ _______ _______ _____ _____    ______ ____
DOCKED: USER                              x       y       z     vdW  Elec       q    Type
DOCKED: USER                           _______ _______ _______ _____ _____    ______ ____
DOCKED: ROOT
DOCKED: ATOM      1  C   UNL     1      38.017  15.381 121.036 -0.26 -0.00    +0.000 C 
DOCKED: ATOM      2  C   UNL     1      38.776  15.816 119.779 -0.17 -0.00    +0.000 C 
DOCKED: ENDROOT
DOCKED: BRANCH   1   3
DOCKED: ATOM      3  C   UNL     1      37.966  13.870 121.127 -0.41 -0.00    +0.000 C 
DOCKED: ATOM      4  C   UNL     1      37.489  13.062 120.158 -0.47 -0.00    +0.000 C 
DOCKED: ATOM      5  C   UNL     1      36.933  13.614 118.863 -0.41 -0.00    +0.000 C 
DOCKED: BRANCH   4   6
DOCKED: ATOM      6  C   UNL     1      37.464  11.599 120.422 -0.45 -0.00    +0.000 C 
DOCKED: ATOM      7  C   UNL     1      37.067  11.072 121.590 -0.52 -0.00    +0.000 C 
DOCKED: BRANCH   7   8
DOCKED: ATOM      8  C   UNL     1      37.040   9.619 121.859 -0.60 -0.00    +0.000 C 
DOCKED: ATOM      9  N   UNL     1      36.981   9.085 123.187 -0.64 -0.00    +0.000 N 
DOCKED: ATOM     10  O   UNL     1      37.045   8.828 120.878 -2.70 -0.00    +0.000 OA
DOCKED: ATOM     11  H   UNL     1      36.873   9.692 123.955 -0.46 -0.00    +0.000 HD
DOCKED: BRANCH   9  12
DOCKED: ATOM     12  O   UNL     1      37.072   7.749 123.389 -2.29 -0.00    +0.000 OA
DOCKED: ATOM     13  H   UNL     1      37.308   7.311 122.556 -0.15 -0.00    +0.000 HD
DOCKED: ENDBRANCH   9  12
DOCKED: ENDBRANCH   7   8
DOCKED: ENDBRANCH   4   6
DOCKED: ENDBRANCH   1   3
DOCKED: BRANCH   1  14
DOCKED: ATOM     14  C   UNL     1      36.618  15.959 121.009 -0.19 -0.00    +0.000 C 
DOCKED: ATOM     15  O   UNL     1      36.068  16.166 119.892 -0.20 -0.00    +0.000 OA
DOCKED: BRANCH  14  19
DOCKED: ATOM     16  C   UNL     1      34.441  17.002 124.598 -0.42 -0.00    +0.000 A 
DOCKED: ATOM     17  C   UNL     1      34.152  17.615 123.362 -0.35 -0.00    +0.000 A 
DOCKED: ATOM     18  C   UNL     1      34.863  17.274 122.209 -0.31 -0.00    +0.000 A 
DOCKED: ATOM     19  C   UNL     1      35.879  16.306 122.252 -0.23 -0.00    +0.000 A 
DOCKED: ATOM     20  C   UNL     1      36.179  15.697 123.482 -0.37 -0.00    +0.000 A 
DOCKED: ATOM     21  C   UNL     1      35.469  16.039 124.638 -0.26 -0.00    +0.000 A 
DOCKED: ATOM     22  CM  UNL     1      35.164  16.656 123.423 -0.03 -0.00    +0.000 AC
DOCKED: BRANCH  16  23
DOCKED: ATOM     23  C   UNL     1      33.230  18.730 126.004 -0.32 -0.00    +0.000 C 
DOCKED: ATOM     24  N   UNL     1      33.703  17.356 125.797 -0.40 -0.00    +0.000 N 
DOCKED: ATOM     25  C   UNL     1      33.420  16.347 126.825 -0.40 -0.00    +0.000 C 
DOCKED: ENDBRANCH  16  23
DOCKED: ENDBRANCH  14  19
DOCKED: ENDBRANCH   1  14
DOCKED: TORSDOF 7DOCKED: TER
DOCKED: ENDMDL
________________________________________________________________________________


	BEGINNING GENETIC ALGORITHM DOCKING 78 of 100
Run: 78 Seed: 1032033685 1681679801 [ Run 78 of 100 GA/GALS ]
Beginning LAMARCKIAN GENETIC ALGORITHM (LGA), with a maximum of 2500000 energy evaluations.

Final-Value: -14.730


	FINAL GENETIC ALGORITHM DOCKED STATE
	_______________________________________________


Detailed state:  trans 36.962 14.257 120.442 quatxyzw -0.365528 0.055370 -0.733416 -0.570460 center 1.179 0.138 -0.353 ntor 7 21.8916 -59.7384 -47.2822 175.2434 -80.7768 -82.5414 -78.9303
State:	 36.962  14.257 120.442  -0.445  0.067 -0.893 -110.435     21.89  -59.74  -47.28  175.24  -80.78  -82.54  -78.93

DOCKED: MODEL       78
DOCKED: USER    Run = 78
DOCKED: USER    DPF = ligand_dock.biased.dpf
DOCKED: USER  
DOCKED: USER    Estimated Free Energy of Binding    =  -11.02 kcal/mol  [=(1)+(2)+(3)-(4)]
DOCKED: USER    Estimated Inhibition Constant, Ki   =    8.42 nM (nanomolar)  [Temperature = 298.15 K]
DOCKED: USER    
DOCKED: USER    (1) Final Intermolecular Energy     =  -13.10 kcal/mol
DOCKED: USER        vdW + Hbond + desolv Energy     =  -13.10 kcal/mol
DOCKED: USER        Electrostatic Energy            =   +0.00 kcal/mol
DOCKED: USER    (2) Final Total Internal Energy     =   -1.63 kcal/mol
DOCKED: USER    (3) Torsional Free Energy           =   +2.09 kcal/mol
DOCKED: USER    (4) Unbound System's Energy  [=(2)] =   -1.63 kcal/mol
DOCKED: USER    
DOCKED: USER    
DOCKED: USER    NEWDPF move ligand.dum.pdbqt
DOCKED: USER    NEWDPF about 1.179000 0.138000 -0.353000
DOCKED: USER    NEWDPF tran0 36.961717 14.256584 120.441822
DOCKED: USER    NEWDPF quaternion0 -0.365528 0.055370 -0.733416 -0.570460
DOCKED: USER    NEWDPF axisangle0 -0.445046 0.067415 -0.892967 -110.435336
DOCKED: USER    NEWDPF quat0 -0.445046 0.067415 -0.892967 -110.435336
DOCKED: USER    NEWDPF dihe0 21.89 -59.74 -47.28 175.24 -80.78 -82.54 -78.93 
DOCKED: USER  keepresnum = 1 
DOCKED: USER  
DOCKED: REMARK  Name = 
DOCKED: REMARK  11 active torsions:
DOCKED: REMARK  status: ('A' for Active; 'I' for Inactive)
DOCKED: REMARK    1  A    between atoms: C_1  and  N_2
DOCKED: REMARK    2  A    between atoms: N_2  and  C_3
DOCKED: REMARK    3  A    between atoms: N_2  and  C_22
DOCKED: REMARK    4  A    between atoms: C_6  and  C_9
DOCKED: REMARK    5  A    between atoms: C_9  and  C_10
DOCKED: REMARK    6  A    between atoms: C_10  and  C_11
DOCKED: REMARK    7  A    between atoms: C_10  and  C_20
DOCKED: REMARK    8  A    between atoms: C_12  and  C_13
DOCKED: REMARK    9  A    between atoms: C_12  and  C_19
DOCKED: REMARK   10  A    between atoms: C_14  and  C_15
DOCKED: REMARK   11  A    between atoms: N_16  and  O_17
DOCKED: REMARK                            x       y       z     vdW  Elec       q    Type
DOCKED: REMARK                         _______ _______ _______ _____ _____    ______ ____
DOCKED: USER                              x       y       z     vdW  Elec       q    Type
DOCKED: USER                           _______ _______ _______ _____ _____    ______ ____
DOCKED: ROOT
DOCKED: ATOM      1  C   UNL     1      37.706  15.283 121.884 -0.31 -0.00    +0.000 C 
DOCKED: ATOM      2  C   UNL     1      38.462  15.878 123.075 -0.31 -0.00    +0.000 C 
DOCKED: ENDROOT
DOCKED: BRANCH   1   3
DOCKED: ATOM      3  C   UNL     1      37.500  13.794 122.078 -0.47 -0.00    +0.000 C 
DOCKED: ATOM      4  C   UNL     1      36.576  13.252 122.896 -0.57 -0.00    +0.000 C 
DOCKED: ATOM      5  C   UNL     1      35.647  14.109 123.729 -0.55 -0.00    +0.000 C 
DOCKED: BRANCH   4   6
DOCKED: ATOM      6  C   UNL     1      36.533  11.770 123.012 -0.68 -0.00    +0.000 C 
DOCKED: ATOM      7  C   UNL     1      36.925  10.947 122.028 -0.58 -0.00    +0.000 C 
DOCKED: BRANCH   7   8
DOCKED: ATOM      8  C   UNL     1      36.885   9.474 122.136 -0.66 -0.00    +0.000 C 
DOCKED: ATOM      9  N   UNL     1      37.025   8.792 123.389 -0.63 -0.00    +0.000 N 
DOCKED: ATOM     10  O   UNL     1      36.696   8.801 121.088 -2.58 -0.00    +0.000 OA
DOCKED: ATOM     11  H   UNL     1      37.069   9.309 124.226 -0.57 -0.00    +0.000 HD
DOCKED: BRANCH   9  12
DOCKED: ATOM     12  O   UNL     1      37.094   7.440 123.425 -2.15 -0.00    +0.000 OA
DOCKED: ATOM     13  H   UNL     1      37.380   7.108 122.560 -0.21 -0.00    +0.000 HD
DOCKED: ENDBRANCH   9  12
DOCKED: ENDBRANCH   7   8
DOCKED: ENDBRANCH   4   6
DOCKED: ENDBRANCH   1   3
DOCKED: BRANCH   1  14
DOCKED: ATOM     14  C   UNL     1      38.477  15.550 120.609 -0.23 -0.00    +0.000 C 
DOCKED: ATOM     15  O   UNL     1      39.566  16.185 120.680 -0.18 -0.00    +0.000 OA
DOCKED: BRANCH  14  19
DOCKED: ATOM     16  C   UNL     1      37.053  14.307 116.719 -0.30 -0.00    +0.000 A 
DOCKED: ATOM     17  C   UNL     1      37.322  15.662 117.001 -0.14 -0.00    +0.000 A 
DOCKED: ATOM     18  C   UNL     1      37.779  16.054 118.262 -0.13 -0.00    +0.000 A 
DOCKED: ATOM     19  C   UNL     1      37.988  15.107 119.277 -0.20 -0.00    +0.000 A 
DOCKED: ATOM     20  C   UNL     1      37.712  13.756 119.005 -0.31 -0.00    +0.000 A 
DOCKED: ATOM     21  C   UNL     1      37.252  13.362 117.745 -0.37 -0.00    +0.000 A 
DOCKED: ATOM     22  CM  UNL     1      37.517  14.708 118.002 +0.00 -0.00    +0.000 AC
DOCKED: BRANCH  16  23
DOCKED: ATOM     23  C   UNL     1      37.504  13.327 114.424 -0.41 -0.00    +0.000 C 
DOCKED: ATOM     24  N   UNL     1      36.578  13.898 115.409 -0.31 -0.00    +0.000 N 
DOCKED: ATOM     25  C   UNL     1      35.164  14.051 115.047 -0.28 -0.00    +0.000 C 
DOCKED: ENDBRANCH  16  23
DOCKED: ENDBRANCH  14  19
DOCKED: ENDBRANCH   1  14
DOCKED: TORSDOF 7DOCKED: TER
DOCKED: ENDMDL
________________________________________________________________________________


	BEGINNING GENETIC ALGORITHM DOCKING 79 of 100
Run: 79 Seed: 1718936861 440100123 [ Run 79 of 100 GA/GALS ]
Beginning LAMARCKIAN GENETIC ALGORITHM (LGA), with a maximum of 2500000 energy evaluations.

Final-Value: -15.246


	FINAL GENETIC ALGORITHM DOCKED STATE
	_______________________________________________


Detailed state:  trans 36.220 14.504 122.343 quatxyzw 0.688988 -0.427366 0.388571 0.437797 center 1.179 0.138 -0.353 ntor 7 28.7530 133.5824 5.2218 125.5808 -147.7678 -0.7327 166.7736
State:	 36.220  14.504 122.343   0.766 -0.475  0.432 128.073     28.75  133.58    5.22  125.58 -147.77   -0.73  166.77

DOCKED: MODEL       79
DOCKED: USER    Run = 79
DOCKED: USER    DPF = ligand_dock.biased.dpf
DOCKED: USER  
DOCKED: USER    Estimated Free Energy of Binding    =  -11.47 kcal/mol  [=(1)+(2)+(3)-(4)]
DOCKED: USER    Estimated Inhibition Constant, Ki   =    3.89 nM (nanomolar)  [Temperature = 298.15 K]
DOCKED: USER    
DOCKED: USER    (1) Final Intermolecular Energy     =  -13.56 kcal/mol
DOCKED: USER        vdW + Hbond + desolv Energy     =  -13.56 kcal/mol
DOCKED: USER        Electrostatic Energy            =   +0.00 kcal/mol
DOCKED: USER    (2) Final Total Internal Energy     =   -1.68 kcal/mol
DOCKED: USER    (3) Torsional Free Energy           =   +2.09 kcal/mol
DOCKED: USER    (4) Unbound System's Energy  [=(2)] =   -1.68 kcal/mol
DOCKED: USER    
DOCKED: USER    
DOCKED: USER    NEWDPF move ligand.dum.pdbqt
DOCKED: USER    NEWDPF about 1.179000 0.138000 -0.353000
DOCKED: USER    NEWDPF tran0 36.219790 14.504056 122.342852
DOCKED: USER    NEWDPF quaternion0 0.688988 -0.427366 0.388571 0.437797
DOCKED: USER    NEWDPF axisangle0 0.766331 -0.475340 0.432191 128.073184
DOCKED: USER    NEWDPF quat0 0.766331 -0.475340 0.432191 128.073184
DOCKED: USER    NEWDPF dihe0 28.75 133.58 5.22 125.58 -147.77 -0.73 166.77 
DOCKED: USER  keepresnum = 1 
DOCKED: USER  
DOCKED: REMARK  Name = 
DOCKED: REMARK  11 active torsions:
DOCKED: REMARK  status: ('A' for Active; 'I' for Inactive)
DOCKED: REMARK    1  A    between atoms: C_1  and  N_2
DOCKED: REMARK    2  A    between atoms: N_2  and  C_3
DOCKED: REMARK    3  A    between atoms: N_2  and  C_22
DOCKED: REMARK    4  A    between atoms: C_6  and  C_9
DOCKED: REMARK    5  A    between atoms: C_9  and  C_10
DOCKED: REMARK    6  A    between atoms: C_10  and  C_11
DOCKED: REMARK    7  A    between atoms: C_10  and  C_20
DOCKED: REMARK    8  A    between atoms: C_12  and  C_13
DOCKED: REMARK    9  A    between atoms: C_12  and  C_19
DOCKED: REMARK   10  A    between atoms: C_14  and  C_15
DOCKED: REMARK   11  A    between atoms: N_16  and  O_17
DOCKED: REMARK                            x       y       z     vdW  Elec       q    Type
DOCKED: REMARK                         _______ _______ _______ _____ _____    ______ ____
DOCKED: USER                              x       y       z     vdW  Elec       q    Type
DOCKED: USER                           _______ _______ _______ _____ _____    ______ ____
DOCKED: ROOT
DOCKED: ATOM      1  C   UNL     1      37.918  15.382 122.167 -0.33 -0.00    +0.000 C 
DOCKED: ATOM      2  C   UNL     1      39.341  15.862 121.869 -0.28 -0.00    +0.000 C 
DOCKED: ENDROOT
DOCKED: BRANCH   1   3
DOCKED: ATOM      3  C   UNL     1      37.888  13.874 122.312 -0.48 -0.00    +0.000 C 
DOCKED: ATOM      4  C   UNL     1      36.923  13.189 122.960 -0.58 -0.00    +0.000 C 
DOCKED: ATOM      5  C   UNL     1      35.761  13.890 123.631 -0.54 -0.00    +0.000 C 
DOCKED: BRANCH   4   6
DOCKED: ATOM      6  C   UNL     1      37.065  11.712 123.056 -0.66 -0.00    +0.000 C 
DOCKED: ATOM      7  C   UNL     1      36.790  10.882 122.039 -0.61 -0.00    +0.000 C 
DOCKED: BRANCH   7   8
DOCKED: ATOM      8  C   UNL     1      36.928   9.414 122.128 -0.66 -0.00    +0.000 C 
DOCKED: ATOM      9  N   UNL     1      36.888   8.713 123.378 -0.64 -0.00    +0.000 N 
DOCKED: ATOM     10  O   UNL     1      37.062   8.758 121.060 -2.60 -0.00    +0.000 OA
DOCKED: ATOM     11  H   UNL     1      36.681   9.202 124.207 -0.47 -0.00    +0.000 HD
DOCKED: BRANCH   9  12
DOCKED: ATOM     12  O   UNL     1      37.131   7.382 123.421 -2.10 -0.00    +0.000 OA
DOCKED: ATOM     13  H   UNL     1      37.728   7.138 122.696 -0.41 -0.00    +0.000 HD
DOCKED: ENDBRANCH   9  12
DOCKED: ENDBRANCH   7   8
DOCKED: ENDBRANCH   4   6
DOCKED: ENDBRANCH   1   3
DOCKED: BRANCH   1  14
DOCKED: ATOM     14  C   UNL     1      36.990  15.826 121.056 -0.22 -0.00    +0.000 C 
DOCKED: ATOM     15  O   UNL     1      36.081  16.661 121.322 -0.24 -0.00    +0.000 OA
DOCKED: BRANCH  14  19
DOCKED: ATOM     16  C   UNL     1      37.311  14.246 117.043 -0.30 -0.00    +0.000 A 
DOCKED: ATOM     17  C   UNL     1      37.165  13.394 118.156 -0.37 -0.00    +0.000 A 
DOCKED: ATOM     18  C   UNL     1      37.065  13.913 119.448 -0.33 -0.00    +0.000 A 
DOCKED: ATOM     19  C   UNL     1      37.101  15.299 119.670 -0.20 -0.00    +0.000 A 
DOCKED: ATOM     20  C   UNL     1      37.257  16.155 118.566 -0.14 -0.00    +0.000 A 
DOCKED: ATOM     21  C   UNL     1      37.359  15.636 117.272 -0.15 -0.00    +0.000 A 
DOCKED: ATOM     22  CM  UNL     1      37.210  14.774 118.360 +0.00 -0.00    +0.000 AC
DOCKED: BRANCH  16  23
DOCKED: ATOM     23  C   UNL     1      38.587  12.916 115.301 -0.56 -0.00    +0.000 C 
DOCKED: ATOM     24  N   UNL     1      37.416  13.708 115.699 -0.37 -0.00    +0.000 N 
DOCKED: ATOM     25  C   UNL     1      36.354  13.947 114.714 -0.32 -0.00    +0.000 C 
DOCKED: ENDBRANCH  16  23
DOCKED: ENDBRANCH  14  19
DOCKED: ENDBRANCH   1  14
DOCKED: TORSDOF 7DOCKED: TER
DOCKED: ENDMDL
________________________________________________________________________________


	BEGINNING GENETIC ALGORITHM DOCKING 80 of 100
Run: 80 Seed: 801569347 2049267006 [ Run 80 of 100 GA/GALS ]
Beginning LAMARCKIAN GENETIC ALGORITHM (LGA), with a maximum of 2500000 energy evaluations.

Final-Value: -14.545


	FINAL GENETIC ALGORITHM DOCKED STATE
	_______________________________________________


Detailed state:  trans 36.289 15.356 123.213 quatxyzw -0.745461 0.664663 0.006264 -0.049715 center 1.179 0.138 -0.353 ntor 7 3.0186 -12.0370 -18.3194 -104.8157 78.9983 -48.9180 -71.8947
State:	 36.289  15.356 123.213  -0.746  0.665  0.006 -174.301      3.02  -12.04  -18.32 -104.82   79.00  -48.92  -71.89

DOCKED: MODEL       80
DOCKED: USER    Run = 80
DOCKED: USER    DPF = ligand_dock.biased.dpf
DOCKED: USER  
DOCKED: USER    Estimated Free Energy of Binding    =  -10.68 kcal/mol  [=(1)+(2)+(3)-(4)]
DOCKED: USER    Estimated Inhibition Constant, Ki   =   14.96 nM (nanomolar)  [Temperature = 298.15 K]
DOCKED: USER    
DOCKED: USER    (1) Final Intermolecular Energy     =  -12.76 kcal/mol
DOCKED: USER        vdW + Hbond + desolv Energy     =  -12.76 kcal/mol
DOCKED: USER        Electrostatic Energy            =   +0.00 kcal/mol
DOCKED: USER    (2) Final Total Internal Energy     =   -1.78 kcal/mol
DOCKED: USER    (3) Torsional Free Energy           =   +2.09 kcal/mol
DOCKED: USER    (4) Unbound System's Energy  [=(2)] =   -1.78 kcal/mol
DOCKED: USER    
DOCKED: USER    
DOCKED: USER    NEWDPF move ligand.dum.pdbqt
DOCKED: USER    NEWDPF about 1.179000 0.138000 -0.353000
DOCKED: USER    NEWDPF tran0 36.289080 15.355729 123.213376
DOCKED: USER    NEWDPF quaternion0 -0.745461 0.664663 0.006264 -0.049715
DOCKED: USER    NEWDPF axisangle0 -0.746384 0.665486 0.006272 -174.300681
DOCKED: USER    NEWDPF quat0 -0.746384 0.665486 0.006272 -174.300681
DOCKED: USER    NEWDPF dihe0 3.02 -12.04 -18.32 -104.82 79.00 -48.92 -71.89 
DOCKED: USER  keepresnum = 1 
DOCKED: USER  
DOCKED: REMARK  Name = 
DOCKED: REMARK  11 active torsions:
DOCKED: REMARK  status: ('A' for Active; 'I' for Inactive)
DOCKED: REMARK    1  A    between atoms: C_1  and  N_2
DOCKED: REMARK    2  A    between atoms: N_2  and  C_3
DOCKED: REMARK    3  A    between atoms: N_2  and  C_22
DOCKED: REMARK    4  A    between atoms: C_6  and  C_9
DOCKED: REMARK    5  A    between atoms: C_9  and  C_10
DOCKED: REMARK    6  A    between atoms: C_10  and  C_11
DOCKED: REMARK    7  A    between atoms: C_10  and  C_20
DOCKED: REMARK    8  A    between atoms: C_12  and  C_13
DOCKED: REMARK    9  A    between atoms: C_12  and  C_19
DOCKED: REMARK   10  A    between atoms: C_14  and  C_15
DOCKED: REMARK   11  A    between atoms: N_16  and  O_17
DOCKED: REMARK                            x       y       z     vdW  Elec       q    Type
DOCKED: REMARK                         _______ _______ _______ _____ _____    ______ ____
DOCKED: USER                              x       y       z     vdW  Elec       q    Type
DOCKED: USER                           _______ _______ _______ _____ _____    ______ ____
DOCKED: ROOT
DOCKED: ATOM      1  C   UNL     1      36.835  15.837 121.437 -0.23 -0.00    +0.000 C 
DOCKED: ATOM      2  C   UNL     1      37.113  16.005 119.940 -0.19 -0.00    +0.000 C 
DOCKED: ENDROOT
DOCKED: BRANCH   1   3
DOCKED: ATOM      3  C   UNL     1      36.724  14.369 121.794 -0.23 -0.00    +0.000 C 
DOCKED: ATOM      4  C   UNL     1      37.627  13.692 122.532 -0.51 -0.00    +0.000 C 
DOCKED: ATOM      5  C   UNL     1      38.875  14.358 123.071 -0.29 -0.00    +0.000 C 
DOCKED: BRANCH   4   6
DOCKED: ATOM      6  C   UNL     1      37.397  12.240 122.753 -0.54 -0.00    +0.000 C 
DOCKED: ATOM      7  C   UNL     1      37.164  11.375 121.755 -0.47 -0.00    +0.000 C 
DOCKED: BRANCH   7   8
DOCKED: ATOM      8  C   UNL     1      36.934   9.931 121.968 -0.60 -0.00    +0.000 C 
DOCKED: ATOM      9  N   UNL     1      36.948   9.335 123.272 -0.59 -0.00    +0.000 N 
DOCKED: ATOM     10  O   UNL     1      36.693   9.208 120.964 -2.59 +0.00    +0.000 OA
DOCKED: ATOM     11  H   UNL     1      37.032   9.906 124.070 -0.49 -0.00    +0.000 HD
DOCKED: BRANCH   9  12
DOCKED: ATOM     12  O   UNL     1      36.844   7.993 123.408 -2.14 -0.00    +0.000 OA
DOCKED: ATOM     13  H   UNL     1      36.816   7.579 122.531 -0.04 -0.00    +0.000 HD
DOCKED: ENDBRANCH   9  12
DOCKED: ENDBRANCH   7   8
DOCKED: ENDBRANCH   4   6
DOCKED: ENDBRANCH   1   3
DOCKED: BRANCH   1  14
DOCKED: ATOM     14  C   UNL     1      35.561  16.569 121.801 -0.18 -0.00    +0.000 C 
DOCKED: ATOM     15  O   UNL     1      34.863  17.069 120.876 -0.22 -0.00    +0.000 OA
DOCKED: BRANCH  14  19
DOCKED: ATOM     16  C   UNL     1      34.248  17.003 125.899 -0.33 -0.00    +0.000 A 
DOCKED: ATOM     17  C   UNL     1      34.072  15.793 125.198 -0.43 -0.00    +0.000 A 
DOCKED: ATOM     18  C   UNL     1      34.497  15.663 123.874 -0.52 -0.00    +0.000 A 
DOCKED: ATOM     19  C   UNL     1      35.115  16.735 123.210 -0.36 -0.00    +0.000 A 
DOCKED: ATOM     20  C   UNL     1      35.285  17.947 123.899 -0.29 -0.00    +0.000 A 
DOCKED: ATOM     21  C   UNL     1      34.860  18.079 125.224 -0.30 -0.00    +0.000 A 
DOCKED: ATOM     22  CM  UNL     1      34.679  16.870 124.550 -0.23 -0.00    +0.000 AC
DOCKED: BRANCH  16  23
DOCKED: ATOM     23  C   UNL     1      34.538  18.004 128.211 -0.18 -0.00    +0.000 C 
DOCKED: ATOM     24  N   UNL     1      33.808  17.140 127.276 -0.36 -0.00    +0.000 N 
DOCKED: ATOM     25  C   UNL     1      32.626  16.414 127.757 -0.45 -0.00    +0.000 C 
DOCKED: ENDBRANCH  16  23
DOCKED: ENDBRANCH  14  19
DOCKED: ENDBRANCH   1  14
DOCKED: TORSDOF 7DOCKED: TER
DOCKED: ENDMDL
________________________________________________________________________________


	BEGINNING GENETIC ALGORITHM DOCKING 81 of 100
Run: 81 Seed: 1759546797 763094711 [ Run 81 of 100 GA/GALS ]
Beginning LAMARCKIAN GENETIC ALGORITHM (LGA), with a maximum of 2500000 energy evaluations.

Final-Value: -14.860


	FINAL GENETIC ALGORITHM DOCKED STATE
	_______________________________________________


Detailed state:  trans 36.163 14.198 123.285 quatxyzw 0.621795 -0.601456 0.147876 0.479327 center 1.179 0.138 -0.353 ntor 7 21.8646 -128.2035 -178.5985 -28.9125 70.2333 1.5422 -15.6248
State:	 36.163  14.198 123.285   0.708 -0.685  0.168 122.717     21.86 -128.20 -178.60  -28.91   70.23    1.54  -15.62

DOCKED: MODEL       81
DOCKED: USER    Run = 81
DOCKED: USER    DPF = ligand_dock.biased.dpf
DOCKED: USER  
DOCKED: USER    Estimated Free Energy of Binding    =  -11.19 kcal/mol  [=(1)+(2)+(3)-(4)]
DOCKED: USER    Estimated Inhibition Constant, Ki   =    6.25 nM (nanomolar)  [Temperature = 298.15 K]
DOCKED: USER    
DOCKED: USER    (1) Final Intermolecular Energy     =  -13.28 kcal/mol
DOCKED: USER        vdW + Hbond + desolv Energy     =  -13.28 kcal/mol
DOCKED: USER        Electrostatic Energy            =   +0.00 kcal/mol
DOCKED: USER    (2) Final Total Internal Energy     =   -1.58 kcal/mol
DOCKED: USER    (3) Torsional Free Energy           =   +2.09 kcal/mol
DOCKED: USER    (4) Unbound System's Energy  [=(2)] =   -1.58 kcal/mol
DOCKED: USER    
DOCKED: USER    
DOCKED: USER    NEWDPF move ligand.dum.pdbqt
DOCKED: USER    NEWDPF about 1.179000 0.138000 -0.353000
DOCKED: USER    NEWDPF tran0 36.163377 14.197900 123.284774
DOCKED: USER    NEWDPF quaternion0 0.621795 -0.601456 0.147876 0.479327
DOCKED: USER    NEWDPF axisangle0 0.708488 -0.685313 0.168493 122.717127
DOCKED: USER    NEWDPF quat0 0.708488 -0.685313 0.168493 122.717127
DOCKED: USER    NEWDPF dihe0 21.86 -128.20 -178.60 -28.91 70.23 1.54 -15.62 
DOCKED: USER  keepresnum = 1 
DOCKED: USER  
DOCKED: REMARK  Name = 
DOCKED: REMARK  11 active torsions:
DOCKED: REMARK  status: ('A' for Active; 'I' for Inactive)
DOCKED: REMARK    1  A    between atoms: C_1  and  N_2
DOCKED: REMARK    2  A    between atoms: N_2  and  C_3
DOCKED: REMARK    3  A    between atoms: N_2  and  C_22
DOCKED: REMARK    4  A    between atoms: C_6  and  C_9
DOCKED: REMARK    5  A    between atoms: C_9  and  C_10
DOCKED: REMARK    6  A    between atoms: C_10  and  C_11
DOCKED: REMARK    7  A    between atoms: C_10  and  C_20
DOCKED: REMARK    8  A    between atoms: C_12  and  C_13
DOCKED: REMARK    9  A    between atoms: C_12  and  C_19
DOCKED: REMARK   10  A    between atoms: C_14  and  C_15
DOCKED: REMARK   11  A    between atoms: N_16  and  O_17
DOCKED: REMARK                            x       y       z     vdW  Elec       q    Type
DOCKED: REMARK                         _______ _______ _______ _____ _____    ______ ____
DOCKED: USER                              x       y       z     vdW  Elec       q    Type
DOCKED: USER                           _______ _______ _______ _____ _____    ______ ____
DOCKED: ROOT
DOCKED: ATOM      1  C   UNL     1      37.786  15.127 122.851 -0.40 -0.00    +0.000 C 
DOCKED: ATOM      2  C   UNL     1      39.055  15.745 122.257 -0.31 -0.00    +0.000 C 
DOCKED: ENDROOT
DOCKED: BRANCH   1   3
DOCKED: ATOM      3  C   UNL     1      37.597  13.713 122.342 -0.50 -0.00    +0.000 C 
DOCKED: ATOM      4  C   UNL     1      36.814  12.787 122.932 -0.61 -0.00    +0.000 C 
DOCKED: ATOM      5  C   UNL     1      36.046  13.086 124.202 -0.38 -0.00    +0.000 C 
DOCKED: BRANCH   4   6
DOCKED: ATOM      6  C   UNL     1      36.773  11.427 122.333 -0.63 -0.00    +0.000 C 
DOCKED: ATOM      7  C   UNL     1      36.989  10.308 123.041 -0.61 -0.00    +0.000 C 
DOCKED: BRANCH   7   8
DOCKED: ATOM      8  C   UNL     1      36.950   8.954 122.451 -0.70 -0.00    +0.000 C 
DOCKED: ATOM      9  N   UNL     1      36.776   7.775 123.247 -0.75 -0.00    +0.000 N 
DOCKED: ATOM     10  O   UNL     1      37.052   8.842 121.200 -2.68 -0.00    +0.000 OA
DOCKED: ATOM     11  H   UNL     1      36.593   7.857 124.211 -0.28 -0.00    +0.000 HD
DOCKED: BRANCH   9  12
DOCKED: ATOM     12  O   UNL     1      36.860   6.550 122.677 -1.29 -0.00    +0.000 OA
DOCKED: ATOM     13  H   UNL     1      37.365   6.611 121.851 -0.47 -0.00    +0.000 HD
DOCKED: ENDBRANCH   9  12
DOCKED: ENDBRANCH   7   8
DOCKED: ENDBRANCH   4   6
DOCKED: ENDBRANCH   1   3
DOCKED: BRANCH   1  14
DOCKED: ATOM     14  C   UNL     1      36.590  15.984 122.495 -0.31 -0.00    +0.000 C 
DOCKED: ATOM     15  O   UNL     1      36.279  16.116 121.278 -0.24 -0.00    +0.000 OA
DOCKED: BRANCH  14  19
DOCKED: ATOM     16  C   UNL     1      34.215  17.994 125.499 -0.33 -0.00    +0.000 A 
DOCKED: ATOM     17  C   UNL     1      33.946  16.663 125.123 -0.34 -0.00    +0.000 A 
DOCKED: ATOM     18  C   UNL     1      34.716  16.023 124.149 -0.49 -0.00    +0.000 A 
DOCKED: ATOM     19  C   UNL     1      35.784  16.689 123.525 -0.32 -0.00    +0.000 A 
DOCKED: ATOM     20  C   UNL     1      36.052  18.020 123.889 -0.23 -0.00    +0.000 A 
DOCKED: ATOM     21  C   UNL     1      35.280  18.662 124.862 -0.24 -0.00    +0.000 A 
DOCKED: ATOM     22  CM  UNL     1      34.998  17.342 124.507 -0.34 -0.00    +0.000 AC
DOCKED: BRANCH  16  23
DOCKED: ATOM     23  C   UNL     1      32.818  17.896 127.613 -0.31 -0.00    +0.000 C 
DOCKED: ATOM     24  N   UNL     1      33.415  18.660 126.511 -0.29 -0.00    +0.000 N 
DOCKED: ATOM     25  C   UNL     1      33.187  20.109 126.449 -0.22 -0.00    +0.000 C 
DOCKED: ENDBRANCH  16  23
DOCKED: ENDBRANCH  14  19
DOCKED: ENDBRANCH   1  14
DOCKED: TORSDOF 7DOCKED: TER
DOCKED: ENDMDL
________________________________________________________________________________


	BEGINNING GENETIC ALGORITHM DOCKING 82 of 100
Run: 82 Seed: 1206076794 710748096 [ Run 82 of 100 GA/GALS ]
Beginning LAMARCKIAN GENETIC ALGORITHM (LGA), with a maximum of 2500000 energy evaluations.

Final-Value: -14.857


	FINAL GENETIC ALGORITHM DOCKED STATE
	_______________________________________________


Detailed state:  trans 36.221 14.599 123.628 quatxyzw -0.683045 0.634762 -0.104492 -0.345845 center 1.179 0.138 -0.353 ntor 7 -2.5433 35.3537 -179.8799 -177.1145 -86.8688 151.7396 -42.8765
State:	 36.221  14.599 123.628  -0.728  0.677 -0.111 -139.533     -2.54   35.35 -179.88 -177.11  -86.87  151.74  -42.88

DOCKED: MODEL       82
DOCKED: USER    Run = 82
DOCKED: USER    DPF = ligand_dock.biased.dpf
DOCKED: USER  
DOCKED: USER    Estimated Free Energy of Binding    =  -11.35 kcal/mol  [=(1)+(2)+(3)-(4)]
DOCKED: USER    Estimated Inhibition Constant, Ki   =    4.79 nM (nanomolar)  [Temperature = 298.15 K]
DOCKED: USER    
DOCKED: USER    (1) Final Intermolecular Energy     =  -13.44 kcal/mol
DOCKED: USER        vdW + Hbond + desolv Energy     =  -13.44 kcal/mol
DOCKED: USER        Electrostatic Energy            =   +0.00 kcal/mol
DOCKED: USER    (2) Final Total Internal Energy     =   -1.42 kcal/mol
DOCKED: USER    (3) Torsional Free Energy           =   +2.09 kcal/mol
DOCKED: USER    (4) Unbound System's Energy  [=(2)] =   -1.42 kcal/mol
DOCKED: USER    
DOCKED: USER    
DOCKED: USER    NEWDPF move ligand.dum.pdbqt
DOCKED: USER    NEWDPF about 1.179000 0.138000 -0.353000
DOCKED: USER    NEWDPF tran0 36.220873 14.599095 123.627608
DOCKED: USER    NEWDPF quaternion0 -0.683045 0.634762 -0.104492 -0.345845
DOCKED: USER    NEWDPF axisangle0 -0.727966 0.676508 -0.111365 -139.533281
DOCKED: USER    NEWDPF quat0 -0.727966 0.676508 -0.111365 -139.533281
DOCKED: USER    NEWDPF dihe0 -2.54 35.35 -179.88 -177.11 -86.87 151.74 -42.88 
DOCKED: USER  keepresnum = 1 
DOCKED: USER  
DOCKED: REMARK  Name = 
DOCKED: REMARK  11 active torsions:
DOCKED: REMARK  status: ('A' for Active; 'I' for Inactive)
DOCKED: REMARK    1  A    between atoms: C_1  and  N_2
DOCKED: REMARK    2  A    between atoms: N_2  and  C_3
DOCKED: REMARK    3  A    between atoms: N_2  and  C_22
DOCKED: REMARK    4  A    between atoms: C_6  and  C_9
DOCKED: REMARK    5  A    between atoms: C_9  and  C_10
DOCKED: REMARK    6  A    between atoms: C_10  and  C_11
DOCKED: REMARK    7  A    between atoms: C_10  and  C_20
DOCKED: REMARK    8  A    between atoms: C_12  and  C_13
DOCKED: REMARK    9  A    between atoms: C_12  and  C_19
DOCKED: REMARK   10  A    between atoms: C_14  and  C_15
DOCKED: REMARK   11  A    between atoms: N_16  and  O_17
DOCKED: REMARK                            x       y       z     vdW  Elec       q    Type
DOCKED: REMARK                         _______ _______ _______ _____ _____    ______ ____
DOCKED: USER                              x       y       z     vdW  Elec       q    Type
DOCKED: USER                           _______ _______ _______ _____ _____    ______ ____
DOCKED: ROOT
DOCKED: ATOM      1  C   UNL     1      37.622  15.464 122.641 -0.35 -0.00    +0.000 C 
DOCKED: ATOM      2  C   UNL     1      38.658  15.991 121.644 -0.23 -0.00    +0.000 C 
DOCKED: ENDROOT
DOCKED: BRANCH   1   3
DOCKED: ATOM      3  C   UNL     1      37.387  13.983 122.427 -0.48 -0.00    +0.000 C 
DOCKED: ATOM      4  C   UNL     1      37.142  13.414 121.229 -0.43 -0.00    +0.000 C 
DOCKED: ATOM      5  C   UNL     1      37.062  14.234 119.959 -0.31 -0.00    +0.000 C 
DOCKED: BRANCH   4   6
DOCKED: ATOM      6  C   UNL     1      36.883  11.951 121.194 -0.53 -0.00    +0.000 C 
DOCKED: ATOM      7  C   UNL     1      37.257  11.117 122.176 -0.31 -0.00    +0.000 C 
DOCKED: BRANCH   7   8
DOCKED: ATOM      8  C   UNL     1      37.004   9.662 122.147 -0.61 -0.00    +0.000 C 
DOCKED: ATOM      9  N   UNL     1      37.055   8.849 123.327 -0.64 -0.00    +0.000 N 
DOCKED: ATOM     10  O   UNL     1      36.710   9.126 121.044 -2.61 -0.00    +0.000 OA
DOCKED: ATOM     11  H   UNL     1      37.182   9.271 124.207 -0.60 -0.00    +0.000 HD
DOCKED: BRANCH   9  12
DOCKED: ATOM     12  O   UNL     1      36.927   7.505 123.233 -2.16 -0.00    +0.000 OA
DOCKED: ATOM     13  H   UNL     1      36.769   7.257 122.309 -0.06 -0.00    +0.000 HD
DOCKED: ENDBRANCH   9  12
DOCKED: ENDBRANCH   7   8
DOCKED: ENDBRANCH   4   6
DOCKED: ENDBRANCH   1   3
DOCKED: BRANCH   1  14
DOCKED: ATOM     14  C   UNL     1      36.329  16.236 122.484 -0.31 -0.00    +0.000 C 
DOCKED: ATOM     15  O   UNL     1      35.978  16.602 121.328 -0.25 -0.00    +0.000 OA
DOCKED: BRANCH  14  19
DOCKED: ATOM     16  C   UNL     1      33.842  17.317 125.853 -0.36 -0.00    +0.000 A 
DOCKED: ATOM     17  C   UNL     1      34.471  18.300 125.062 -0.31 -0.00    +0.000 A 
DOCKED: ATOM     18  C   UNL     1      35.275  17.941 123.978 -0.29 -0.00    +0.000 A 
DOCKED: ATOM     19  C   UNL     1      35.471  16.591 123.645 -0.36 -0.00    +0.000 A 
DOCKED: ATOM     20  C   UNL     1      34.854  15.606 124.434 -0.50 -0.00    +0.000 A 
DOCKED: ATOM     21  C   UNL     1      34.050  15.964 125.521 -0.40 -0.00    +0.000 A 
DOCKED: ATOM     22  CM  UNL     1      34.661  16.953 124.749 -0.27 -0.00    +0.000 AC
DOCKED: BRANCH  16  23
DOCKED: ATOM     23  C   UNL     1      32.622  16.691 127.985 -0.46 -0.00    +0.000 C 
DOCKED: ATOM     24  N   UNL     1      33.006  17.689 126.980 -0.34 -0.00    +0.000 N 
DOCKED: ATOM     25  C   UNL     1      32.528  19.069 127.133 -0.26 -0.00    +0.000 C 
DOCKED: ENDBRANCH  16  23
DOCKED: ENDBRANCH  14  19
DOCKED: ENDBRANCH   1  14
DOCKED: TORSDOF 7DOCKED: TER
DOCKED: ENDMDL
________________________________________________________________________________


	BEGINNING GENETIC ALGORITHM DOCKING 83 of 100
Run: 83 Seed: 1101941460 1269666489 [ Run 83 of 100 GA/GALS ]
Beginning LAMARCKIAN GENETIC ALGORITHM (LGA), with a maximum of 2500000 energy evaluations.

Final-Value: -15.542


	FINAL GENETIC ALGORITHM DOCKED STATE
	_______________________________________________


Detailed state:  trans 36.474 14.576 122.305 quatxyzw -0.632556 0.435056 -0.454471 -0.451725 center 1.179 0.138 -0.353 ntor 7 20.5489 -86.0868 -21.4310 141.0758 51.5798 -8.7095 176.7288
State:	 36.474  14.576 122.305  -0.709  0.488 -0.509 -126.291     20.55  -86.09  -21.43  141.08   51.58   -8.71  176.73

DOCKED: MODEL       83
DOCKED: USER    Run = 83
DOCKED: USER    DPF = ligand_dock.biased.dpf
DOCKED: USER  
DOCKED: USER    Estimated Free Energy of Binding    =  -11.56 kcal/mol  [=(1)+(2)+(3)-(4)]
DOCKED: USER    Estimated Inhibition Constant, Ki   =    3.36 nM (nanomolar)  [Temperature = 298.15 K]
DOCKED: USER    
DOCKED: USER    (1) Final Intermolecular Energy     =  -13.65 kcal/mol
DOCKED: USER        vdW + Hbond + desolv Energy     =  -13.65 kcal/mol
DOCKED: USER        Electrostatic Energy            =   +0.00 kcal/mol
DOCKED: USER    (2) Final Total Internal Energy     =   -1.89 kcal/mol
DOCKED: USER    (3) Torsional Free Energy           =   +2.09 kcal/mol
DOCKED: USER    (4) Unbound System's Energy  [=(2)] =   -1.89 kcal/mol
DOCKED: USER    
DOCKED: USER    
DOCKED: USER    NEWDPF move ligand.dum.pdbqt
DOCKED: USER    NEWDPF about 1.179000 0.138000 -0.353000
DOCKED: USER    NEWDPF tran0 36.473896 14.575518 122.305222
DOCKED: USER    NEWDPF quaternion0 -0.632556 0.435056 -0.454471 -0.451725
DOCKED: USER    NEWDPF axisangle0 -0.709018 0.487646 -0.509406 -126.291138
DOCKED: USER    NEWDPF quat0 -0.709018 0.487646 -0.509406 -126.291138
DOCKED: USER    NEWDPF dihe0 20.55 -86.09 -21.43 141.08 51.58 -8.71 176.73 
DOCKED: USER  keepresnum = 1 
DOCKED: USER  
DOCKED: REMARK  Name = 
DOCKED: REMARK  11 active torsions:
DOCKED: REMARK  status: ('A' for Active; 'I' for Inactive)
DOCKED: REMARK    1  A    between atoms: C_1  and  N_2
DOCKED: REMARK    2  A    between atoms: N_2  and  C_3
DOCKED: REMARK    3  A    between atoms: N_2  and  C_22
DOCKED: REMARK    4  A    between atoms: C_6  and  C_9
DOCKED: REMARK    5  A    between atoms: C_9  and  C_10
DOCKED: REMARK    6  A    between atoms: C_10  and  C_11
DOCKED: REMARK    7  A    between atoms: C_10  and  C_20
DOCKED: REMARK    8  A    between atoms: C_12  and  C_13
DOCKED: REMARK    9  A    between atoms: C_12  and  C_19
DOCKED: REMARK   10  A    between atoms: C_14  and  C_15
DOCKED: REMARK   11  A    between atoms: N_16  and  O_17
DOCKED: REMARK                            x       y       z     vdW  Elec       q    Type
DOCKED: REMARK                         _______ _______ _______ _____ _____    ______ ____
DOCKED: USER                              x       y       z     vdW  Elec       q    Type
DOCKED: USER                           _______ _______ _______ _____ _____    ______ ____
DOCKED: ROOT
DOCKED: ATOM      1  C   UNL     1      38.262  15.269 122.388 -0.36 -0.00    +0.000 C 
DOCKED: ATOM      2  C   UNL     1      39.755  15.599 122.302 -0.36 -0.00    +0.000 C 
DOCKED: ENDROOT
DOCKED: BRANCH   1   3
DOCKED: ATOM      3  C   UNL     1      38.055  13.772 122.490 -0.48 -0.00    +0.000 C 
DOCKED: ATOM      4  C   UNL     1      37.015  13.186 123.117 -0.59 -0.00    +0.000 C 
DOCKED: ATOM      5  C   UNL     1      35.941  13.998 123.808 -0.57 -0.00    +0.000 C 
DOCKED: BRANCH   4   6
DOCKED: ATOM      6  C   UNL     1      36.982  11.700 123.170 -0.67 -0.00    +0.000 C 
DOCKED: ATOM      7  C   UNL     1      36.913  10.930 122.074 -0.58 -0.00    +0.000 C 
DOCKED: BRANCH   7   8
DOCKED: ATOM      8  C   UNL     1      36.880   9.453 122.120 -0.66 -0.00    +0.000 C 
DOCKED: ATOM      9  N   UNL     1      36.990   8.720 123.347 -0.65 -0.00    +0.000 N 
DOCKED: ATOM     10  O   UNL     1      36.725   8.823 121.039 -2.61 -0.00    +0.000 OA
DOCKED: ATOM     11  H   UNL     1      37.008   9.202 124.206 -0.56 -0.00    +0.000 HD
DOCKED: BRANCH   9  12
DOCKED: ATOM     12  O   UNL     1      37.067   7.369 123.328 -2.14 -0.00    +0.000 OA
DOCKED: ATOM     13  H   UNL     1      37.358   7.073 122.451 -0.20 -0.00    +0.000 HD
DOCKED: ENDBRANCH   9  12
DOCKED: ENDBRANCH   7   8
DOCKED: ENDBRANCH   4   6
DOCKED: ENDBRANCH   1   3
DOCKED: BRANCH   1  14
DOCKED: ATOM     14  C   UNL     1      37.550  15.822 121.171 -0.23 -0.00    +0.000 C 
DOCKED: ATOM     15  O   UNL     1      36.852  16.866 121.299 -0.19 -0.00    +0.000 OA
DOCKED: BRANCH  14  19
DOCKED: ATOM     16  C   UNL     1      37.817  13.954 117.280 -0.31 -0.00    +0.000 A 
DOCKED: ATOM     17  C   UNL     1      38.515  15.144 117.570 -0.17 -0.00    +0.000 A 
DOCKED: ATOM     18  C   UNL     1      38.419  15.742 118.829 -0.14 -0.00    +0.000 A 
DOCKED: ATOM     19  C   UNL     1      37.631  15.167 119.839 -0.21 -0.00    +0.000 A 
DOCKED: ATOM     20  C   UNL     1      36.926  13.986 119.554 -0.28 -0.00    +0.000 A 
DOCKED: ATOM     21  C   UNL     1      37.018  13.388 118.294 -0.37 -0.00    +0.000 A 
DOCKED: ATOM     22  CM  UNL     1      37.721  14.564 118.561 +0.00 -0.00    +0.000 AC
DOCKED: BRANCH  16  23
DOCKED: ATOM     23  C   UNL     1      39.137  12.624 115.572 -0.55 -0.00    +0.000 C 
DOCKED: ATOM     24  N   UNL     1      37.914  13.332 115.972 -0.43 -0.00    +0.000 N 
DOCKED: ATOM     25  C   UNL     1      36.794  13.402 115.026 -0.33 -0.00    +0.000 C 
DOCKED: ENDBRANCH  16  23
DOCKED: ENDBRANCH  14  19
DOCKED: ENDBRANCH   1  14
DOCKED: TORSDOF 7DOCKED: TER
DOCKED: ENDMDL
________________________________________________________________________________


	BEGINNING GENETIC ALGORITHM DOCKING 84 of 100
Run: 84 Seed: 709793977 385328017 [ Run 84 of 100 GA/GALS ]
Beginning LAMARCKIAN GENETIC ALGORITHM (LGA), with a maximum of 2500000 energy evaluations.

Final-Value: -14.618


	FINAL GENETIC ALGORITHM DOCKED STATE
	_______________________________________________


Detailed state:  trans 38.988 14.460 121.374 quatxyzw -0.288581 0.421931 0.718131 0.472210 center 1.179 0.138 -0.353 ntor 7 1.4914 -29.5535 144.3404 -152.8330 -175.9347 -42.2409 -60.2789
State:	 38.988  14.460 121.374  -0.327  0.479  0.815 123.644      1.49  -29.55  144.34 -152.83 -175.93  -42.24  -60.28

DOCKED: MODEL       84
DOCKED: USER    Run = 84
DOCKED: USER    DPF = ligand_dock.biased.dpf
DOCKED: USER  
DOCKED: USER    Estimated Free Energy of Binding    =  -10.73 kcal/mol  [=(1)+(2)+(3)-(4)]
DOCKED: USER    Estimated Inhibition Constant, Ki   =   13.56 nM (nanomolar)  [Temperature = 298.15 K]
DOCKED: USER    
DOCKED: USER    (1) Final Intermolecular Energy     =  -12.82 kcal/mol
DOCKED: USER        vdW + Hbond + desolv Energy     =  -12.82 kcal/mol
DOCKED: USER        Electrostatic Energy            =   +0.00 kcal/mol
DOCKED: USER    (2) Final Total Internal Energy     =   -1.80 kcal/mol
DOCKED: USER    (3) Torsional Free Energy           =   +2.09 kcal/mol
DOCKED: USER    (4) Unbound System's Energy  [=(2)] =   -1.80 kcal/mol
DOCKED: USER    
DOCKED: USER    
DOCKED: USER    NEWDPF move ligand.dum.pdbqt
DOCKED: USER    NEWDPF about 1.179000 0.138000 -0.353000
DOCKED: USER    NEWDPF tran0 38.988099 14.460305 121.374166
DOCKED: USER    NEWDPF quaternion0 -0.288581 0.421931 0.718131 0.472210
DOCKED: USER    NEWDPF axisangle0 -0.327381 0.478659 0.814683 123.644293
DOCKED: USER    NEWDPF quat0 -0.327381 0.478659 0.814683 123.644293
DOCKED: USER    NEWDPF dihe0 1.49 -29.55 144.34 -152.83 -175.93 -42.24 -60.28 
DOCKED: USER  keepresnum = 1 
DOCKED: USER  
DOCKED: REMARK  Name = 
DOCKED: REMARK  11 active torsions:
DOCKED: REMARK  status: ('A' for Active; 'I' for Inactive)
DOCKED: REMARK    1  A    between atoms: C_1  and  N_2
DOCKED: REMARK    2  A    between atoms: N_2  and  C_3
DOCKED: REMARK    3  A    between atoms: N_2  and  C_22
DOCKED: REMARK    4  A    between atoms: C_6  and  C_9
DOCKED: REMARK    5  A    between atoms: C_9  and  C_10
DOCKED: REMARK    6  A    between atoms: C_10  and  C_11
DOCKED: REMARK    7  A    between atoms: C_10  and  C_20
DOCKED: REMARK    8  A    between atoms: C_12  and  C_13
DOCKED: REMARK    9  A    between atoms: C_12  and  C_19
DOCKED: REMARK   10  A    between atoms: C_14  and  C_15
DOCKED: REMARK   11  A    between atoms: N_16  and  O_17
DOCKED: REMARK                            x       y       z     vdW  Elec       q    Type
DOCKED: REMARK                         _______ _______ _______ _____ _____    ______ ____
DOCKED: USER                              x       y       z     vdW  Elec       q    Type
DOCKED: USER                           _______ _______ _______ _____ _____    ______ ____
DOCKED: ROOT
DOCKED: ATOM      1  C   UNL     1      37.394  15.425 121.836 -0.30 -0.00    +0.000 C 
DOCKED: ATOM      2  C   UNL     1      36.082  15.990 122.389 -0.29 -0.00    +0.000 C 
DOCKED: ENDROOT
DOCKED: BRANCH   1   3
DOCKED: ATOM      3  C   UNL     1      37.347  13.911 121.803 -0.43 -0.00    +0.000 C 
DOCKED: ATOM      4  C   UNL     1      37.421  13.169 120.679 -0.47 -0.00    +0.000 C 
DOCKED: ATOM      5  C   UNL     1      37.545  13.806 119.311 -0.38 -0.00    +0.000 C 
DOCKED: BRANCH   4   6
DOCKED: ATOM      6  C   UNL     1      37.311  11.693 120.812 -0.49 -0.00    +0.000 C 
DOCKED: ATOM      7  C   UNL     1      37.066  11.078 121.979 -0.54 -0.00    +0.000 C 
DOCKED: BRANCH   7   8
DOCKED: ATOM      8  C   UNL     1      36.956   9.611 122.118 -0.63 -0.00    +0.000 C 
DOCKED: ATOM      9  N   UNL     1      37.064   8.950 123.385 -0.61 -0.00    +0.000 N 
DOCKED: ATOM     10  O   UNL     1      36.737   8.926 121.083 -2.63 -0.00    +0.000 OA
DOCKED: ATOM     11  H   UNL     1      37.132   9.481 124.211 -0.59 -0.00    +0.000 HD
DOCKED: BRANCH   9  12
DOCKED: ATOM     12  O   UNL     1      37.069   7.598 123.448 -2.23 -0.00    +0.000 OA
DOCKED: ATOM     13  H   UNL     1      37.018   7.231 122.552 -0.08 -0.00    +0.000 HD
DOCKED: ENDBRANCH   9  12
DOCKED: ENDBRANCH   7   8
DOCKED: ENDBRANCH   4   6
DOCKED: ENDBRANCH   1   3
DOCKED: BRANCH   1  14
DOCKED: ATOM     14  C   UNL     1      38.551  15.902 122.689 -0.31 -0.00    +0.000 C 
DOCKED: ATOM     15  O   UNL     1      38.310  16.337 123.849 -0.32 -0.00    +0.000 OA
DOCKED: BRANCH  14  19
DOCKED: ATOM     16  C   UNL     1      42.618  15.874 121.219 -0.27 -0.00    +0.000 A 
DOCKED: ATOM     17  C   UNL     1      41.522  15.979 120.339 -0.15 -0.00    +0.000 A 
DOCKED: ATOM     18  C   UNL     1      40.212  15.984 120.823 -0.19 -0.00    +0.000 A 
DOCKED: ATOM     19  C   UNL     1      39.954  15.891 122.200 -0.29 -0.00    +0.000 A 
DOCKED: ATOM     20  C   UNL     1      41.042  15.776 123.083 -0.33 -0.00    +0.000 A 
DOCKED: ATOM     21  C   UNL     1      42.354  15.769 122.600 -0.43 -0.00    +0.000 A 
DOCKED: ATOM     22  CM  UNL     1      41.283  15.878 121.710 +0.00 -0.00    +0.000 AC
DOCKED: BRANCH  16  23
DOCKED: ATOM     23  C   UNL     1      44.992  16.761 121.296 -0.26 +0.00    +0.000 C 
DOCKED: ATOM     24  N   UNL     1      43.980  15.868 120.717 -0.27 -0.00    +0.000 N 
DOCKED: ATOM     25  C   UNL     1      44.369  14.972 119.622 -0.34 -0.00    +0.000 C 
DOCKED: ENDBRANCH  16  23
DOCKED: ENDBRANCH  14  19
DOCKED: ENDBRANCH   1  14
DOCKED: TORSDOF 7DOCKED: TER
DOCKED: ENDMDL
________________________________________________________________________________


	BEGINNING GENETIC ALGORITHM DOCKING 85 of 100
Run: 85 Seed: 575208894 1141060234 [ Run 85 of 100 GA/GALS ]
Beginning LAMARCKIAN GENETIC ALGORITHM (LGA), with a maximum of 2500000 energy evaluations.

Final-Value: -14.423


	FINAL GENETIC ALGORITHM DOCKED STATE
	_______________________________________________


Detailed state:  trans 38.609 14.918 122.088 quatxyzw 0.136524 -0.328355 -0.716517 -0.600123 center 1.179 0.138 -0.353 ntor 7 1.1763 -176.0514 22.1214 -9.0794 30.2847 -27.6685 -73.6858
State:	 38.609  14.918 122.088   0.171 -0.410 -0.896 -106.243      1.18 -176.05   22.12   -9.08   30.28  -27.67  -73.69

DOCKED: MODEL       85
DOCKED: USER    Run = 85
DOCKED: USER    DPF = ligand_dock.biased.dpf
DOCKED: USER  
DOCKED: USER    Estimated Free Energy of Binding    =  -10.49 kcal/mol  [=(1)+(2)+(3)-(4)]
DOCKED: USER    Estimated Inhibition Constant, Ki   =   20.41 nM (nanomolar)  [Temperature = 298.15 K]
DOCKED: USER    
DOCKED: USER    (1) Final Intermolecular Energy     =  -12.58 kcal/mol
DOCKED: USER        vdW + Hbond + desolv Energy     =  -12.58 kcal/mol
DOCKED: USER        Electrostatic Energy            =   +0.00 kcal/mol
DOCKED: USER    (2) Final Total Internal Energy     =   -1.84 kcal/mol
DOCKED: USER    (3) Torsional Free Energy           =   +2.09 kcal/mol
DOCKED: USER    (4) Unbound System's Energy  [=(2)] =   -1.84 kcal/mol
DOCKED: USER    
DOCKED: USER    
DOCKED: USER    NEWDPF move ligand.dum.pdbqt
DOCKED: USER    NEWDPF about 1.179000 0.138000 -0.353000
DOCKED: USER    NEWDPF tran0 38.609118 14.917558 122.087674
DOCKED: USER    NEWDPF quaternion0 0.136524 -0.328355 -0.716517 -0.600123
DOCKED: USER    NEWDPF axisangle0 0.170674 -0.410491 -0.895750 -106.242595
DOCKED: USER    NEWDPF quat0 0.170674 -0.410491 -0.895750 -106.242595
DOCKED: USER    NEWDPF dihe0 1.18 -176.05 22.12 -9.08 30.28 -27.67 -73.69 
DOCKED: USER  keepresnum = 1 
DOCKED: USER  
DOCKED: REMARK  Name = 
DOCKED: REMARK  11 active torsions:
DOCKED: REMARK  status: ('A' for Active; 'I' for Inactive)
DOCKED: REMARK    1  A    between atoms: C_1  and  N_2
DOCKED: REMARK    2  A    between atoms: N_2  and  C_3
DOCKED: REMARK    3  A    between atoms: N_2  and  C_22
DOCKED: REMARK    4  A    between atoms: C_6  and  C_9
DOCKED: REMARK    5  A    between atoms: C_9  and  C_10
DOCKED: REMARK    6  A    between atoms: C_10  and  C_11
DOCKED: REMARK    7  A    between atoms: C_10  and  C_20
DOCKED: REMARK    8  A    between atoms: C_12  and  C_13
DOCKED: REMARK    9  A    between atoms: C_12  and  C_19
DOCKED: REMARK   10  A    between atoms: C_14  and  C_15
DOCKED: REMARK   11  A    between atoms: N_16  and  O_17
DOCKED: REMARK                            x       y       z     vdW  Elec       q    Type
DOCKED: REMARK                         _______ _______ _______ _____ _____    ______ ____
DOCKED: USER                              x       y       z     vdW  Elec       q    Type
DOCKED: USER                           _______ _______ _______ _____ _____    ______ ____
DOCKED: ROOT
DOCKED: ATOM      1  C   UNL     1      37.225  15.777 123.102 -0.35 -0.00    +0.000 C 
DOCKED: ATOM      2  C   UNL     1      36.183  16.275 124.109 -0.34 -0.00    +0.000 C 
DOCKED: ENDROOT
DOCKED: BRANCH   1   3
DOCKED: ATOM      3  C   UNL     1      37.359  14.270 123.181 -0.49 -0.00    +0.000 C 
DOCKED: ATOM      4  C   UNL     1      37.346  13.445 122.114 -0.50 -0.00    +0.000 C 
DOCKED: ATOM      5  C   UNL     1      37.175  13.969 120.705 -0.35 -0.00    +0.000 C 
DOCKED: BRANCH   4   6
DOCKED: ATOM      6  C   UNL     1      37.440  11.983 122.365 -0.45 -0.00    +0.000 C 
DOCKED: ATOM      7  C   UNL     1      36.846  11.066 121.586 -0.53 -0.00    +0.000 C 
DOCKED: BRANCH   7   8
DOCKED: ATOM      8  C   UNL     1      36.935   9.612 121.830 -0.60 -0.00    +0.000 C 
DOCKED: ATOM      9  N   UNL     1      36.869   9.048 123.146 -0.65 -0.00    +0.000 N 
DOCKED: ATOM     10  O   UNL     1      37.050   8.843 120.837 -2.72 -0.00    +0.000 OA
DOCKED: ATOM     11  H   UNL     1      36.677   9.628 123.919 -0.43 -0.00    +0.000 HD
DOCKED: BRANCH   9  12
DOCKED: ATOM     12  O   UNL     1      37.068   7.722 123.330 -2.31 -0.00    +0.000 OA
DOCKED: ATOM     13  H   UNL     1      37.262   7.302 122.477 -0.13 -0.00    +0.000 HD
DOCKED: ENDBRANCH   9  12
DOCKED: ENDBRANCH   7   8
DOCKED: ENDBRANCH   4   6
DOCKED: ENDBRANCH   1   3
DOCKED: BRANCH   1  14
DOCKED: ATOM     14  C   UNL     1      38.556  16.444 123.379 -0.26 -0.00    +0.000 C 
DOCKED: ATOM     15  O   UNL     1      38.662  17.190 124.391 -0.27 -0.00    +0.000 OA
DOCKED: BRANCH  14  19
DOCKED: ATOM     16  C   UNL     1      42.008  15.906 120.830 -0.19 -0.00    +0.000 A 
DOCKED: ATOM     17  C   UNL     1      42.078  15.666 122.218 -0.41 -0.00    +0.000 A 
DOCKED: ATOM     18  C   UNL     1      40.958  15.846 123.033 -0.33 -0.00    +0.000 A 
DOCKED: ATOM     19  C   UNL     1      39.733  16.263 122.489 -0.25 -0.00    +0.000 A 
DOCKED: ATOM     20  C   UNL     1      39.659  16.513 121.108 -0.15 -0.00    +0.000 A 
DOCKED: ATOM     21  C   UNL     1      40.780  16.336 120.291 -0.15 -0.00    +0.000 A 
DOCKED: ATOM     22  CM  UNL     1      40.869  16.089 121.662 +0.00 -0.00    +0.000 AC
DOCKED: BRANCH  16  23
DOCKED: ATOM     23  C   UNL     1      44.515  15.633 120.566 -0.27 +0.00    +0.000 C 
DOCKED: ATOM     24  N   UNL     1      43.172  15.720 119.982 -0.23 -0.00    +0.000 N 
DOCKED: ATOM     25  C   UNL     1      43.025  15.618 118.525 -0.24 -0.00    +0.000 C 
DOCKED: ENDBRANCH  16  23
DOCKED: ENDBRANCH  14  19
DOCKED: ENDBRANCH   1  14
DOCKED: TORSDOF 7DOCKED: TER
DOCKED: ENDMDL
________________________________________________________________________________


	BEGINNING GENETIC ALGORITHM DOCKING 86 of 100
Run: 86 Seed: 660328041 884985213 [ Run 86 of 100 GA/GALS ]
Beginning LAMARCKIAN GENETIC ALGORITHM (LGA), with a maximum of 2500000 energy evaluations.

Final-Value: -14.895


	FINAL GENETIC ALGORITHM DOCKED STATE
	_______________________________________________


Detailed state:  trans 35.873 14.834 122.150 quatxyzw -0.641435 0.408540 -0.437655 -0.479703 center 1.179 0.138 -0.353 ntor 7 5.1397 -157.0491 -20.8980 157.7176 132.2106 -15.5602 -179.3568
State:	 35.873  14.834 122.150  -0.731  0.466 -0.499 -122.668      5.14 -157.05  -20.90  157.72  132.21  -15.56 -179.36

DOCKED: MODEL       86
DOCKED: USER    Run = 86
DOCKED: USER    DPF = ligand_dock.biased.dpf
DOCKED: USER  
DOCKED: USER    Estimated Free Energy of Binding    =  -10.95 kcal/mol  [=(1)+(2)+(3)-(4)]
DOCKED: USER    Estimated Inhibition Constant, Ki   =    9.41 nM (nanomolar)  [Temperature = 298.15 K]
DOCKED: USER    
DOCKED: USER    (1) Final Intermolecular Energy     =  -13.04 kcal/mol
DOCKED: USER        vdW + Hbond + desolv Energy     =  -13.04 kcal/mol
DOCKED: USER        Electrostatic Energy            =   +0.00 kcal/mol
DOCKED: USER    (2) Final Total Internal Energy     =   -1.86 kcal/mol
DOCKED: USER    (3) Torsional Free Energy           =   +2.09 kcal/mol
DOCKED: USER    (4) Unbound System's Energy  [=(2)] =   -1.86 kcal/mol
DOCKED: USER    
DOCKED: USER    
DOCKED: USER    NEWDPF move ligand.dum.pdbqt
DOCKED: USER    NEWDPF about 1.179000 0.138000 -0.353000
DOCKED: USER    NEWDPF tran0 35.872901 14.834150 122.150471
DOCKED: USER    NEWDPF quaternion0 -0.641435 0.408540 -0.437655 -0.479703
DOCKED: USER    NEWDPF axisangle0 -0.731037 0.465609 -0.498792 -122.667978
DOCKED: USER    NEWDPF quat0 -0.731037 0.465609 -0.498792 -122.667978
DOCKED: USER    NEWDPF dihe0 5.14 -157.05 -20.90 157.72 132.21 -15.56 -179.36 
DOCKED: USER  keepresnum = 1 
DOCKED: USER  
DOCKED: REMARK  Name = 
DOCKED: REMARK  11 active torsions:
DOCKED: REMARK  status: ('A' for Active; 'I' for Inactive)
DOCKED: REMARK    1  A    between atoms: C_1  and  N_2
DOCKED: REMARK    2  A    between atoms: N_2  and  C_3
DOCKED: REMARK    3  A    between atoms: N_2  and  C_22
DOCKED: REMARK    4  A    between atoms: C_6  and  C_9
DOCKED: REMARK    5  A    between atoms: C_9  and  C_10
DOCKED: REMARK    6  A    between atoms: C_10  and  C_11
DOCKED: REMARK    7  A    between atoms: C_10  and  C_20
DOCKED: REMARK    8  A    between atoms: C_12  and  C_13
DOCKED: REMARK    9  A    between atoms: C_12  and  C_19
DOCKED: REMARK   10  A    between atoms: C_14  and  C_15
DOCKED: REMARK   11  A    between atoms: N_16  and  O_17
DOCKED: REMARK                            x       y       z     vdW  Elec       q    Type
DOCKED: REMARK                         _______ _______ _______ _____ _____    ______ ____
DOCKED: USER                              x       y       z     vdW  Elec       q    Type
DOCKED: USER                           _______ _______ _______ _____ _____    ______ ____
DOCKED: ROOT
DOCKED: ATOM      1  C   UNL     1      37.596  15.670 122.280 -0.31 -0.00    +0.000 C 
DOCKED: ATOM      2  C   UNL     1      39.059  16.122 122.229 -0.27 -0.00    +0.000 C 
DOCKED: ENDROOT
DOCKED: BRANCH   1   3
DOCKED: ATOM      3  C   UNL     1      37.511  14.159 122.352 -0.46 -0.00    +0.000 C 
DOCKED: ATOM      4  C   UNL     1      36.585  13.479 123.059 -0.57 -0.00    +0.000 C 
DOCKED: ATOM      5  C   UNL     1      35.529  14.190 123.879 -0.54 -0.00    +0.000 C 
DOCKED: BRANCH   4   6
DOCKED: ATOM      6  C   UNL     1      36.667  11.995 123.066 -0.68 -0.00    +0.000 C 
DOCKED: ATOM      7  C   UNL     1      36.869  11.267 121.957 -0.59 -0.00    +0.000 C 
DOCKED: BRANCH   7   8
DOCKED: ATOM      8  C   UNL     1      36.951   9.792 121.957 -0.61 -0.00    +0.000 C 
DOCKED: ATOM      9  N   UNL     1      36.878   9.019 123.162 -0.65 -0.00    +0.000 N 
DOCKED: ATOM     10  O   UNL     1      37.065   9.198 120.851 -2.74 -0.00    +0.000 OA
DOCKED: ATOM     11  H   UNL     1      36.686   9.464 124.019 -0.46 -0.00    +0.000 HD
DOCKED: BRANCH   9  12
DOCKED: ATOM     12  O   UNL     1      37.070   7.679 123.123 -2.33 -0.00    +0.000 OA
DOCKED: ATOM     13  H   UNL     1      37.326   7.414 122.226 -0.11 -0.00    +0.000 HD
DOCKED: ENDBRANCH   9  12
DOCKED: ENDBRANCH   7   8
DOCKED: ENDBRANCH   4   6
DOCKED: ENDBRANCH   1   3
DOCKED: BRANCH   1  14
DOCKED: ATOM     14  C   UNL     1      36.864  16.185 121.059 -0.21 -0.00    +0.000 C 
DOCKED: ATOM     15  O   UNL     1      36.138  17.212 121.176 -0.22 -0.00    +0.000 OA
DOCKED: BRANCH  14  19
DOCKED: ATOM     16  C   UNL     1      37.177  14.212 117.224 -0.31 -0.00    +0.000 A 
DOCKED: ATOM     17  C   UNL     1      38.191  14.090 118.195 -0.07 -0.00    +0.000 A 
DOCKED: ATOM     18  C   UNL     1      38.083  14.734 119.430 -0.23 -0.00    +0.000 A 
DOCKED: ATOM     19  C   UNL     1      36.956  15.514 119.737 -0.18 -0.00    +0.000 A 
DOCKED: ATOM     20  C   UNL     1      35.945  15.647 118.769 -0.06 -0.00    +0.000 A 
DOCKED: ATOM     21  C   UNL     1      36.054  15.005 117.532 -0.24 -0.00    +0.000 A 
DOCKED: ATOM     22  CM  UNL     1      37.068  14.867 118.481 +0.00 -0.00    +0.000 AC
DOCKED: BRANCH  16  23
DOCKED: ATOM     23  C   UNL     1      38.438  12.679 115.646 -0.51 -0.00    +0.000 C 
DOCKED: ATOM     24  N   UNL     1      37.289  13.544 115.940 -0.38 -0.00    +0.000 N 
DOCKED: ATOM     25  C   UNL     1      36.256  13.722 114.912 -0.32 -0.00    +0.000 C 
DOCKED: ENDBRANCH  16  23
DOCKED: ENDBRANCH  14  19
DOCKED: ENDBRANCH   1  14
DOCKED: TORSDOF 7DOCKED: TER
DOCKED: ENDMDL
________________________________________________________________________________


	BEGINNING GENETIC ALGORITHM DOCKING 87 of 100
Run: 87 Seed: 1890768361 772675035 [ Run 87 of 100 GA/GALS ]
Beginning LAMARCKIAN GENETIC ALGORITHM (LGA), with a maximum of 2500000 energy evaluations.

Final-Value: -14.936


	FINAL GENETIC ALGORITHM DOCKED STATE
	_______________________________________________


Detailed state:  trans 36.671 14.403 120.778 quatxyzw -0.471039 0.182143 -0.668482 -0.545966 center 1.179 0.138 -0.353 ntor 7 42.3530 125.7376 -37.2217 171.7267 72.3514 -64.2492 -80.8239
State:	 36.671  14.403 120.778  -0.562  0.217 -0.798 -113.819     42.35  125.74  -37.22  171.73   72.35  -64.25  -80.82

DOCKED: MODEL       87
DOCKED: USER    Run = 87
DOCKED: USER    DPF = ligand_dock.biased.dpf
DOCKED: USER  
DOCKED: USER    Estimated Free Energy of Binding    =  -11.26 kcal/mol  [=(1)+(2)+(3)-(4)]
DOCKED: USER    Estimated Inhibition Constant, Ki   =    5.55 nM (nanomolar)  [Temperature = 298.15 K]
DOCKED: USER    
DOCKED: USER    (1) Final Intermolecular Energy     =  -13.35 kcal/mol
DOCKED: USER        vdW + Hbond + desolv Energy     =  -13.35 kcal/mol
DOCKED: USER        Electrostatic Energy            =   +0.00 kcal/mol
DOCKED: USER    (2) Final Total Internal Energy     =   -1.59 kcal/mol
DOCKED: USER    (3) Torsional Free Energy           =   +2.09 kcal/mol
DOCKED: USER    (4) Unbound System's Energy  [=(2)] =   -1.59 kcal/mol
DOCKED: USER    
DOCKED: USER    
DOCKED: USER    NEWDPF move ligand.dum.pdbqt
DOCKED: USER    NEWDPF about 1.179000 0.138000 -0.353000
DOCKED: USER    NEWDPF tran0 36.671245 14.403239 120.778376
DOCKED: USER    NEWDPF quaternion0 -0.471039 0.182143 -0.668482 -0.545966
DOCKED: USER    NEWDPF axisangle0 -0.562228 0.217404 -0.797894 -113.818621
DOCKED: USER    NEWDPF quat0 -0.562228 0.217404 -0.797894 -113.818621
DOCKED: USER    NEWDPF dihe0 42.35 125.74 -37.22 171.73 72.35 -64.25 -80.82 
DOCKED: USER  keepresnum = 1 
DOCKED: USER  
DOCKED: REMARK  Name = 
DOCKED: REMARK  11 active torsions:
DOCKED: REMARK  status: ('A' for Active; 'I' for Inactive)
DOCKED: REMARK    1  A    between atoms: C_1  and  N_2
DOCKED: REMARK    2  A    between atoms: N_2  and  C_3
DOCKED: REMARK    3  A    between atoms: N_2  and  C_22
DOCKED: REMARK    4  A    between atoms: C_6  and  C_9
DOCKED: REMARK    5  A    between atoms: C_9  and  C_10
DOCKED: REMARK    6  A    between atoms: C_10  and  C_11
DOCKED: REMARK    7  A    between atoms: C_10  and  C_20
DOCKED: REMARK    8  A    between atoms: C_12  and  C_13
DOCKED: REMARK    9  A    between atoms: C_12  and  C_19
DOCKED: REMARK   10  A    between atoms: C_14  and  C_15
DOCKED: REMARK   11  A    between atoms: N_16  and  O_17
DOCKED: REMARK                            x       y       z     vdW  Elec       q    Type
DOCKED: REMARK                         _______ _______ _______ _____ _____    ______ ____
DOCKED: USER                              x       y       z     vdW  Elec       q    Type
DOCKED: USER                           _______ _______ _______ _____ _____    ______ ____
DOCKED: ROOT
DOCKED: ATOM      1  C   UNL     1      37.916  15.314 121.921 -0.32 -0.00    +0.000 C 
DOCKED: ATOM      2  C   UNL     1      39.065  15.810 122.804 -0.30 -0.00    +0.000 C 
DOCKED: ENDROOT
DOCKED: BRANCH   1   3
DOCKED: ATOM      3  C   UNL     1      37.713  13.824 122.105 -0.47 -0.00    +0.000 C 
DOCKED: ATOM      4  C   UNL     1      36.818  13.274 122.951 -0.58 -0.00    +0.000 C 
DOCKED: ATOM      5  C   UNL     1      35.925  14.124 123.828 -0.56 -0.00    +0.000 C 
DOCKED: BRANCH   4   6
DOCKED: ATOM      6  C   UNL     1      36.775  11.791 123.050 -0.68 -0.00    +0.000 C 
DOCKED: ATOM      7  C   UNL     1      37.061  10.980 122.021 -0.55 -0.00    +0.000 C 
DOCKED: BRANCH   7   8
DOCKED: ATOM      8  C   UNL     1      37.019   9.505 122.113 -0.63 -0.00    +0.000 C 
DOCKED: ATOM      9  N   UNL     1      37.067   8.813 123.367 -0.63 -0.00    +0.000 N 
DOCKED: ATOM     10  O   UNL     1      36.914   8.841 121.047 -2.67 -0.00    +0.000 OA
DOCKED: ATOM     11  H   UNL     1      37.045   9.322 124.210 -0.57 -0.00    +0.000 HD
DOCKED: BRANCH   9  12
DOCKED: ATOM     12  O   UNL     1      37.139   7.461 123.396 -2.14 -0.00    +0.000 OA
DOCKED: ATOM     13  H   UNL     1      37.767   7.156 122.723 -0.43 -0.00    +0.000 HD
DOCKED: ENDBRANCH   9  12
DOCKED: ENDBRANCH   7   8
DOCKED: ENDBRANCH   4   6
DOCKED: ENDBRANCH   1   3
DOCKED: BRANCH   1  14
DOCKED: ATOM     14  C   UNL     1      38.217  15.634 120.472 -0.22 -0.00    +0.000 C 
DOCKED: ATOM     15  O   UNL     1      39.278  16.260 120.196 -0.15 -0.00    +0.000 OA
DOCKED: BRANCH  14  19
DOCKED: ATOM     16  C   UNL     1      35.563  14.479 117.258 -0.30 -0.00    +0.000 A 
DOCKED: ATOM     17  C   UNL     1      36.523  13.585 117.771 -0.34 -0.00    +0.000 A 
DOCKED: ATOM     18  C   UNL     1      37.379  13.968 118.807 -0.33 -0.00    +0.000 A 
DOCKED: ATOM     19  C   UNL     1      37.297  15.253 119.368 -0.20 -0.00    +0.000 A 
DOCKED: ATOM     20  C   UNL     1      36.348  16.153 118.855 -0.15 -0.00    +0.000 A 
DOCKED: ATOM     21  C   UNL     1      35.493  15.772 117.816 -0.15 -0.00    +0.000 A 
DOCKED: ATOM     22  CM  UNL     1      36.435  14.868 118.312 +0.00 -0.00    +0.000 AC
DOCKED: BRANCH  16  23
DOCKED: ATOM     23  C   UNL     1      35.170  13.979 114.804 -0.27 -0.00    +0.000 C 
DOCKED: ATOM     24  N   UNL     1      34.674  14.083 116.181 -0.31 -0.00    +0.000 N 
DOCKED: ATOM     25  C   UNL     1      33.263  13.781 116.451 -0.39 -0.00    +0.000 C 
DOCKED: ENDBRANCH  16  23
DOCKED: ENDBRANCH  14  19
DOCKED: ENDBRANCH   1  14
DOCKED: TORSDOF 7DOCKED: TER
DOCKED: ENDMDL
________________________________________________________________________________


	BEGINNING GENETIC ALGORITHM DOCKING 88 of 100
Run: 88 Seed: 1815579065 1431944712 [ Run 88 of 100 GA/GALS ]
Beginning LAMARCKIAN GENETIC ALGORITHM (LGA), with a maximum of 2500000 energy evaluations.

Final-Value: -14.815


	FINAL GENETIC ALGORITHM DOCKED STATE
	_______________________________________________


Detailed state:  trans 35.726 14.390 124.041 quatxyzw 0.656413 -0.593944 0.142163 0.442879 center 1.179 0.138 -0.353 ntor 7 9.3085 -149.0416 172.9180 178.8654 94.3651 150.9538 -22.6512
State:	 35.726  14.390 124.041   0.732 -0.662  0.159 127.425      9.31 -149.04  172.92  178.87   94.37  150.95  -22.65

DOCKED: MODEL       88
DOCKED: USER    Run = 88
DOCKED: USER    DPF = ligand_dock.biased.dpf
DOCKED: USER  
DOCKED: USER    Estimated Free Energy of Binding    =  -11.45 kcal/mol  [=(1)+(2)+(3)-(4)]
DOCKED: USER    Estimated Inhibition Constant, Ki   =    4.03 nM (nanomolar)  [Temperature = 298.15 K]
DOCKED: USER    
DOCKED: USER    (1) Final Intermolecular Energy     =  -13.54 kcal/mol
DOCKED: USER        vdW + Hbond + desolv Energy     =  -13.54 kcal/mol
DOCKED: USER        Electrostatic Energy            =   +0.00 kcal/mol
DOCKED: USER    (2) Final Total Internal Energy     =   -1.28 kcal/mol
DOCKED: USER    (3) Torsional Free Energy           =   +2.09 kcal/mol
DOCKED: USER    (4) Unbound System's Energy  [=(2)] =   -1.28 kcal/mol
DOCKED: USER    
DOCKED: USER    
DOCKED: USER    NEWDPF move ligand.dum.pdbqt
DOCKED: USER    NEWDPF about 1.179000 0.138000 -0.353000
DOCKED: USER    NEWDPF tran0 35.726144 14.389798 124.041170
DOCKED: USER    NEWDPF quaternion0 0.656413 -0.593944 0.142163 0.442879
DOCKED: USER    NEWDPF axisangle0 0.732129 -0.662454 0.158561 127.424518
DOCKED: USER    NEWDPF quat0 0.732129 -0.662454 0.158561 127.424518
DOCKED: USER    NEWDPF dihe0 9.31 -149.04 172.92 178.87 94.37 150.95 -22.65 
DOCKED: USER  keepresnum = 1 
DOCKED: USER  
DOCKED: REMARK  Name = 
DOCKED: REMARK  11 active torsions:
DOCKED: REMARK  status: ('A' for Active; 'I' for Inactive)
DOCKED: REMARK    1  A    between atoms: C_1  and  N_2
DOCKED: REMARK    2  A    between atoms: N_2  and  C_3
DOCKED: REMARK    3  A    between atoms: N_2  and  C_22
DOCKED: REMARK    4  A    between atoms: C_6  and  C_9
DOCKED: REMARK    5  A    between atoms: C_9  and  C_10
DOCKED: REMARK    6  A    between atoms: C_10  and  C_11
DOCKED: REMARK    7  A    between atoms: C_10  and  C_20
DOCKED: REMARK    8  A    between atoms: C_12  and  C_13
DOCKED: REMARK    9  A    between atoms: C_12  and  C_19
DOCKED: REMARK   10  A    between atoms: C_14  and  C_15
DOCKED: REMARK   11  A    between atoms: N_16  and  O_17
DOCKED: REMARK                            x       y       z     vdW  Elec       q    Type
DOCKED: REMARK                         _______ _______ _______ _____ _____    ______ ____
DOCKED: USER                              x       y       z     vdW  Elec       q    Type
DOCKED: USER                           _______ _______ _______ _____ _____    ______ ____
DOCKED: ROOT
DOCKED: ATOM      1  C   UNL     1      37.278  15.354 123.452 -0.38 -0.00    +0.000 C 
DOCKED: ATOM      2  C   UNL     1      38.483  15.980 122.744 -0.30 -0.00    +0.000 C 
DOCKED: ENDROOT
DOCKED: BRANCH   1   3
DOCKED: ATOM      3  C   UNL     1      37.130  13.899 123.058 -0.53 -0.00    +0.000 C 
DOCKED: ATOM      4  C   UNL     1      37.137  13.448 121.787 -0.46 -0.00    +0.000 C 
DOCKED: ATOM      5  C   UNL     1      37.281  14.387 120.609 -0.31 -0.00    +0.000 C 
DOCKED: BRANCH   4   6
DOCKED: ATOM      6  C   UNL     1      36.932  11.992 121.565 -0.56 -0.00    +0.000 C 
DOCKED: ATOM      7  C   UNL     1      37.207  11.063 122.492 -0.40 -0.00    +0.000 C 
DOCKED: BRANCH   7   8
DOCKED: ATOM      8  C   UNL     1      37.006   9.615 122.277 -0.62 -0.00    +0.000 C 
DOCKED: ATOM      9  N   UNL     1      37.085   8.662 123.345 -0.66 -0.00    +0.000 N 
DOCKED: ATOM     10  O   UNL     1      36.732   9.214 121.114 -2.63 -0.00    +0.000 OA
DOCKED: ATOM     11  H   UNL     1      37.196   8.973 124.273 -0.56 -0.00    +0.000 HD
DOCKED: BRANCH   9  12
DOCKED: ATOM     12  O   UNL     1      37.005   7.337 123.081 -2.13 -0.00    +0.000 OA
DOCKED: ATOM     13  H   UNL     1      37.045   7.194 122.123 -0.10 -0.00    +0.000 HD
DOCKED: ENDBRANCH   9  12
DOCKED: ENDBRANCH   7   8
DOCKED: ENDBRANCH   4   6
DOCKED: ENDBRANCH   1   3
DOCKED: BRANCH   1  14
DOCKED: ATOM     14  C   UNL     1      36.025  16.129 123.101 -0.38 -0.00    +0.000 C 
DOCKED: ATOM     15  O   UNL     1      35.719  16.268 121.885 -0.28 -0.00    +0.000 OA
DOCKED: BRANCH  14  19
DOCKED: ATOM     16  C   UNL     1      33.490  17.876 126.138 -0.30 -0.00    +0.000 A 
DOCKED: ATOM     17  C   UNL     1      33.688  16.483 126.063 -0.36 -0.00    +0.000 A 
DOCKED: ATOM     18  C   UNL     1      34.507  15.928 125.077 -0.42 -0.00    +0.000 A 
DOCKED: ATOM     19  C   UNL     1      35.157  16.745 124.138 -0.39 -0.00    +0.000 A 
DOCKED: ATOM     20  C   UNL     1      34.956  18.135 124.201 -0.30 -0.00    +0.000 A 
DOCKED: ATOM     21  C   UNL     1      34.135  18.692 125.187 -0.27 -0.00    +0.000 A 
DOCKED: ATOM     22  CM  UNL     1      34.322  17.309 125.133 -0.33 -0.00    +0.000 AC
DOCKED: BRANCH  16  23
DOCKED: ATOM     23  C   UNL     1      32.152  17.635 128.278 -0.34 -0.00    +0.000 C 
DOCKED: ATOM     24  N   UNL     1      32.639  18.455 127.162 -0.27 -0.00    +0.000 N 
DOCKED: ATOM     25  C   UNL     1      32.249  19.869 127.098 -0.25 -0.00    +0.000 C 
DOCKED: ENDBRANCH  16  23
DOCKED: ENDBRANCH  14  19
DOCKED: ENDBRANCH   1  14
DOCKED: TORSDOF 7DOCKED: TER
DOCKED: ENDMDL
________________________________________________________________________________


	BEGINNING GENETIC ALGORITHM DOCKING 89 of 100
Run: 89 Seed: 433758943 175065333 [ Run 89 of 100 GA/GALS ]
Beginning LAMARCKIAN GENETIC ALGORITHM (LGA), with a maximum of 2500000 energy evaluations.

Final-Value: -14.397


	FINAL GENETIC ALGORITHM DOCKED STATE
	_______________________________________________


Detailed state:  trans 36.663 14.453 120.639 quatxyzw -0.370818 0.057663 -0.630127 -0.679786 center 1.179 0.138 -0.353 ntor 7 26.8805 151.4812 50.1387 94.9761 85.1635 -77.1492 -81.0306
State:	 36.663  14.453 120.639  -0.506  0.079 -0.859 -94.346     26.88  151.48   50.14   94.98   85.16  -77.15  -81.03

DOCKED: MODEL       89
DOCKED: USER    Run = 89
DOCKED: USER    DPF = ligand_dock.biased.dpf
DOCKED: USER  
DOCKED: USER    Estimated Free Energy of Binding    =  -10.76 kcal/mol  [=(1)+(2)+(3)-(4)]
DOCKED: USER    Estimated Inhibition Constant, Ki   =   12.98 nM (nanomolar)  [Temperature = 298.15 K]
DOCKED: USER    
DOCKED: USER    (1) Final Intermolecular Energy     =  -12.85 kcal/mol
DOCKED: USER        vdW + Hbond + desolv Energy     =  -12.85 kcal/mol
DOCKED: USER        Electrostatic Energy            =   +0.00 kcal/mol
DOCKED: USER    (2) Final Total Internal Energy     =   -1.55 kcal/mol
DOCKED: USER    (3) Torsional Free Energy           =   +2.09 kcal/mol
DOCKED: USER    (4) Unbound System's Energy  [=(2)] =   -1.55 kcal/mol
DOCKED: USER    
DOCKED: USER    
DOCKED: USER    NEWDPF move ligand.dum.pdbqt
DOCKED: USER    NEWDPF about 1.179000 0.138000 -0.353000
DOCKED: USER    NEWDPF tran0 36.662570 14.452814 120.639247
DOCKED: USER    NEWDPF quaternion0 -0.370818 0.057663 -0.630127 -0.679786
DOCKED: USER    NEWDPF axisangle0 -0.505608 0.078623 -0.859174 -94.346224
DOCKED: USER    NEWDPF quat0 -0.505608 0.078623 -0.859174 -94.346224
DOCKED: USER    NEWDPF dihe0 26.88 151.48 50.14 94.98 85.16 -77.15 -81.03 
DOCKED: USER  keepresnum = 1 
DOCKED: USER  
DOCKED: REMARK  Name = 
DOCKED: REMARK  11 active torsions:
DOCKED: REMARK  status: ('A' for Active; 'I' for Inactive)
DOCKED: REMARK    1  A    between atoms: C_1  and  N_2
DOCKED: REMARK    2  A    between atoms: N_2  and  C_3
DOCKED: REMARK    3  A    between atoms: N_2  and  C_22
DOCKED: REMARK    4  A    between atoms: C_6  and  C_9
DOCKED: REMARK    5  A    between atoms: C_9  and  C_10
DOCKED: REMARK    6  A    between atoms: C_10  and  C_11
DOCKED: REMARK    7  A    between atoms: C_10  and  C_20
DOCKED: REMARK    8  A    between atoms: C_12  and  C_13
DOCKED: REMARK    9  A    between atoms: C_12  and  C_19
DOCKED: REMARK   10  A    between atoms: C_14  and  C_15
DOCKED: REMARK   11  A    between atoms: N_16  and  O_17
DOCKED: REMARK                            x       y       z     vdW  Elec       q    Type
DOCKED: REMARK                         _______ _______ _______ _____ _____    ______ ____
DOCKED: USER                              x       y       z     vdW  Elec       q    Type
DOCKED: USER                           _______ _______ _______ _____ _____    ______ ____
DOCKED: ROOT
DOCKED: ATOM      1  C   UNL     1      37.221  15.530 122.127 -0.31 -0.00    +0.000 C 
DOCKED: ATOM      2  C   UNL     1      37.886  16.218 123.323 -0.30 -0.00    +0.000 C 
DOCKED: ENDROOT
DOCKED: BRANCH   1   3
DOCKED: ATOM      3  C   UNL     1      37.443  14.033 122.186 -0.46 -0.00    +0.000 C 
DOCKED: ATOM      4  C   UNL     1      36.704  13.180 122.925 -0.59 -0.00    +0.000 C 
DOCKED: ATOM      5  C   UNL     1      35.565  13.662 123.797 -0.51 -0.00    +0.000 C 
DOCKED: BRANCH   4   6
DOCKED: ATOM      6  C   UNL     1      37.082  11.742 122.912 -0.63 -0.00    +0.000 C 
DOCKED: ATOM      7  C   UNL     1      36.357  10.799 122.292 -0.67 -0.00    +0.000 C 
DOCKED: BRANCH   7   8
DOCKED: ATOM      8  C   UNL     1      36.726   9.369 122.276 -0.71 -0.00    +0.000 C 
DOCKED: ATOM      9  N   UNL     1      36.691   8.554 123.455 -0.64 -0.00    +0.000 N 
DOCKED: ATOM     10  O   UNL     1      37.061   8.848 121.178 -2.69 -0.00    +0.000 OA
DOCKED: ATOM     11  H   UNL     1      36.334   8.922 124.295 -0.29 -0.00    +0.000 HD
DOCKED: BRANCH   9  12
DOCKED: ATOM     12  O   UNL     1      37.145   7.279 123.414 -2.01 -0.00    +0.000 OA
DOCKED: ATOM     13  H   UNL     1      37.815   7.196 122.718 -0.44 -0.00    +0.000 HD
DOCKED: ENDBRANCH   9  12
DOCKED: ENDBRANCH   7   8
DOCKED: ENDBRANCH   4   6
DOCKED: ENDBRANCH   1   3
DOCKED: BRANCH   1  14
DOCKED: ATOM     14  C   UNL     1      37.780  16.099 120.840 -0.19 -0.00    +0.000 C 
DOCKED: ATOM     15  O   UNL     1      38.628  17.031 120.907 -0.11 -0.00    +0.000 OA
DOCKED: BRANCH  14  19
DOCKED: ATOM     16  C   UNL     1      36.555  14.633 116.960 -0.27 -0.00    +0.000 A 
DOCKED: ATOM     17  C   UNL     1      37.372  13.860 117.809 -0.34 -0.00    +0.000 A 
DOCKED: ATOM     18  C   UNL     1      37.766  14.344 119.060 -0.27 -0.00    +0.000 A 
DOCKED: ATOM     19  C   UNL     1      37.350  15.609 119.504 -0.18 -0.00    +0.000 A 
DOCKED: ATOM     20  C   UNL     1      36.543  16.389 118.657 -0.14 -0.00    +0.000 A 
DOCKED: ATOM     21  C   UNL     1      36.150  15.907 117.405 -0.15 -0.00    +0.000 A 
DOCKED: ATOM     22  CM  UNL     1      36.957  15.124 118.232 +0.00 -0.00    +0.000 AC
DOCKED: BRANCH  16  23
DOCKED: ATOM     23  C   UNL     1      37.133  13.560 114.736 -0.38 -0.00    +0.000 C 
DOCKED: ATOM     24  N   UNL     1      36.146  14.132 115.660 -0.28 -0.00    +0.000 N 
DOCKED: ATOM     25  C   UNL     1      34.739  14.190 115.246 -0.28 -0.00    +0.000 C 
DOCKED: ENDBRANCH  16  23
DOCKED: ENDBRANCH  14  19
DOCKED: ENDBRANCH   1  14
DOCKED: TORSDOF 7DOCKED: TER
DOCKED: ENDMDL
________________________________________________________________________________


	BEGINNING GENETIC ALGORITHM DOCKING 90 of 100
Run: 90 Seed: 1568671745 203049263 [ Run 90 of 100 GA/GALS ]
Beginning LAMARCKIAN GENETIC ALGORITHM (LGA), with a maximum of 2500000 energy evaluations.

Final-Value: -15.394


	FINAL GENETIC ALGORITHM DOCKED STATE
	_______________________________________________


Detailed state:  trans 36.176 14.567 122.199 quatxyzw 0.665398 -0.420079 0.424227 0.448118 center 1.179 0.138 -0.353 ntor 7 21.8834 130.7936 -15.2720 147.6298 29.4586 -11.4848 171.0045
State:	 36.176  14.567 122.199   0.744 -0.470  0.475 126.754     21.88  130.79  -15.27  147.63   29.46  -11.48  171.00

DOCKED: MODEL       90
DOCKED: USER    Run = 90
DOCKED: USER    DPF = ligand_dock.biased.dpf
DOCKED: USER  
DOCKED: USER    Estimated Free Energy of Binding    =  -11.57 kcal/mol  [=(1)+(2)+(3)-(4)]
DOCKED: USER    Estimated Inhibition Constant, Ki   =    3.29 nM (nanomolar)  [Temperature = 298.15 K]
DOCKED: USER    
DOCKED: USER    (1) Final Intermolecular Energy     =  -13.66 kcal/mol
DOCKED: USER        vdW + Hbond + desolv Energy     =  -13.66 kcal/mol
DOCKED: USER        Electrostatic Energy            =   +0.00 kcal/mol
DOCKED: USER    (2) Final Total Internal Energy     =   -1.73 kcal/mol
DOCKED: USER    (3) Torsional Free Energy           =   +2.09 kcal/mol
DOCKED: USER    (4) Unbound System's Energy  [=(2)] =   -1.73 kcal/mol
DOCKED: USER    
DOCKED: USER    
DOCKED: USER    NEWDPF move ligand.dum.pdbqt
DOCKED: USER    NEWDPF about 1.179000 0.138000 -0.353000
DOCKED: USER    NEWDPF tran0 36.175592 14.567235 122.199353
DOCKED: USER    NEWDPF quaternion0 0.665398 -0.420079 0.424227 0.448118
DOCKED: USER    NEWDPF axisangle0 0.744315 -0.469901 0.474541 126.754052
DOCKED: USER    NEWDPF quat0 0.744315 -0.469901 0.474541 126.754052
DOCKED: USER    NEWDPF dihe0 21.88 130.79 -15.27 147.63 29.46 -11.48 171.00 
DOCKED: USER  keepresnum = 1 
DOCKED: USER  
DOCKED: REMARK  Name = 
DOCKED: REMARK  11 active torsions:
DOCKED: REMARK  status: ('A' for Active; 'I' for Inactive)
DOCKED: REMARK    1  A    between atoms: C_1  and  N_2
DOCKED: REMARK    2  A    between atoms: N_2  and  C_3
DOCKED: REMARK    3  A    between atoms: N_2  and  C_22
DOCKED: REMARK    4  A    between atoms: C_6  and  C_9
DOCKED: REMARK    5  A    between atoms: C_9  and  C_10
DOCKED: REMARK    6  A    between atoms: C_10  and  C_11
DOCKED: REMARK    7  A    between atoms: C_10  and  C_20
DOCKED: REMARK    8  A    between atoms: C_12  and  C_13
DOCKED: REMARK    9  A    between atoms: C_12  and  C_19
DOCKED: REMARK   10  A    between atoms: C_14  and  C_15
DOCKED: REMARK   11  A    between atoms: N_16  and  O_17
DOCKED: REMARK                            x       y       z     vdW  Elec       q    Type
DOCKED: REMARK                         _______ _______ _______ _____ _____    ______ ____
DOCKED: USER                              x       y       z     vdW  Elec       q    Type
DOCKED: USER                           _______ _______ _______ _____ _____    ______ ____
DOCKED: ROOT
DOCKED: ATOM      1  C   UNL     1      37.911  15.388 122.164 -0.33 -0.00    +0.000 C 
DOCKED: ATOM      2  C   UNL     1      39.369  15.820 121.985 -0.29 -0.00    +0.000 C 
DOCKED: ENDROOT
DOCKED: BRANCH   1   3
DOCKED: ATOM      3  C   UNL     1      37.818  13.883 122.307 -0.48 -0.00    +0.000 C 
DOCKED: ATOM      4  C   UNL     1      36.892  13.241 123.048 -0.59 -0.00    +0.000 C 
DOCKED: ATOM      5  C   UNL     1      35.844  13.994 123.839 -0.56 -0.00    +0.000 C 
DOCKED: BRANCH   4   6
DOCKED: ATOM      6  C   UNL     1      36.967  11.758 123.124 -0.67 -0.00    +0.000 C 
DOCKED: ATOM      7  C   UNL     1      36.964  10.968 122.040 -0.57 -0.00    +0.000 C 
DOCKED: BRANCH   7   8
DOCKED: ATOM      8  C   UNL     1      37.037   9.494 122.108 -0.62 -0.00    +0.000 C 
DOCKED: ATOM      9  N   UNL     1      37.059   8.783 123.353 -0.64 -0.00    +0.000 N 
DOCKED: ATOM     10  O   UNL     1      37.057   8.844 121.028 -2.70 -0.00    +0.000 OA
DOCKED: ATOM     11  H   UNL     1      36.941   9.273 124.199 -0.54 -0.00    +0.000 HD
DOCKED: BRANCH   9  12
DOCKED: ATOM     12  O   UNL     1      37.240   7.442 123.367 -2.10 -0.00    +0.000 OA
DOCKED: ATOM     13  H   UNL     1      37.672   7.164 122.544 -0.31 -0.00    +0.000 HD
DOCKED: ENDBRANCH   9  12
DOCKED: ENDBRANCH   7   8
DOCKED: ENDBRANCH   4   6
DOCKED: ENDBRANCH   1   3
DOCKED: BRANCH   1  14
DOCKED: ATOM     14  C   UNL     1      37.093  15.860 120.980 -0.22 -0.00    +0.000 C 
DOCKED: ATOM     15  O   UNL     1      36.250  16.783 121.155 -0.22 -0.00    +0.000 OA
DOCKED: BRANCH  14  19
DOCKED: ATOM     16  C   UNL     1      37.518  14.164 117.025 -0.31 -0.00    +0.000 A 
DOCKED: ATOM     17  C   UNL     1      37.604  15.555 117.238 -0.15 -0.00    +0.000 A 
DOCKED: ATOM     18  C   UNL     1      37.462  16.093 118.519 -0.13 -0.00    +0.000 A 
DOCKED: ATOM     19  C   UNL     1      37.237  15.261 119.628 -0.21 -0.00    +0.000 A 
DOCKED: ATOM     20  C   UNL     1      37.140  13.875 119.420 -0.34 -0.00    +0.000 A 
DOCKED: ATOM     21  C   UNL     1      37.280  13.334 118.139 -0.37 -0.00    +0.000 A 
DOCKED: ATOM     22  CM  UNL     1      37.373  14.714 118.328 +0.00 -0.00    +0.000 AC
DOCKED: BRANCH  16  23
DOCKED: ATOM     23  C   UNL     1      36.629  13.817 114.675 -0.34 -0.00    +0.000 C 
DOCKED: ATOM     24  N   UNL     1      37.664  13.603 115.694 -0.39 -0.00    +0.000 N 
DOCKED: ATOM     25  C   UNL     1      38.849  12.810 115.344 -0.57 -0.00    +0.000 C 
DOCKED: ENDBRANCH  16  23
DOCKED: ENDBRANCH  14  19
DOCKED: ENDBRANCH   1  14
DOCKED: TORSDOF 7DOCKED: TER
DOCKED: ENDMDL
________________________________________________________________________________


	BEGINNING GENETIC ALGORITHM DOCKING 91 of 100
Run: 91 Seed: 965794920 2143637406 [ Run 91 of 100 GA/GALS ]
Beginning LAMARCKIAN GENETIC ALGORITHM (LGA), with a maximum of 2500000 energy evaluations.

Final-Value: -14.693


	FINAL GENETIC ALGORITHM DOCKED STATE
	_______________________________________________


Detailed state:  trans 39.200 14.088 121.482 quatxyzw -0.284217 0.540548 0.673161 0.416993 center 1.179 0.138 -0.353 ntor 7 6.1045 159.2365 -44.3920 -165.5149 0.7537 149.7540 -44.3589
State:	 39.200  14.088 121.482  -0.313  0.595  0.741 130.710      6.10  159.24  -44.39 -165.51    0.75  149.75  -44.36

DOCKED: MODEL       91
DOCKED: USER    Run = 91
DOCKED: USER    DPF = ligand_dock.biased.dpf
DOCKED: USER  
DOCKED: USER    Estimated Free Energy of Binding    =  -11.15 kcal/mol  [=(1)+(2)+(3)-(4)]
DOCKED: USER    Estimated Inhibition Constant, Ki   =    6.71 nM (nanomolar)  [Temperature = 298.15 K]
DOCKED: USER    
DOCKED: USER    (1) Final Intermolecular Energy     =  -13.24 kcal/mol
DOCKED: USER        vdW + Hbond + desolv Energy     =  -13.24 kcal/mol
DOCKED: USER        Electrostatic Energy            =   +0.00 kcal/mol
DOCKED: USER    (2) Final Total Internal Energy     =   -1.45 kcal/mol
DOCKED: USER    (3) Torsional Free Energy           =   +2.09 kcal/mol
DOCKED: USER    (4) Unbound System's Energy  [=(2)] =   -1.45 kcal/mol
DOCKED: USER    
DOCKED: USER    
DOCKED: USER    NEWDPF move ligand.dum.pdbqt
DOCKED: USER    NEWDPF about 1.179000 0.138000 -0.353000
DOCKED: USER    NEWDPF tran0 39.199867 14.087569 121.482082
DOCKED: USER    NEWDPF quaternion0 -0.284217 0.540548 0.673161 0.416993
DOCKED: USER    NEWDPF axisangle0 -0.312701 0.594721 0.740624 130.710244
DOCKED: USER    NEWDPF quat0 -0.312701 0.594721 0.740624 130.710244
DOCKED: USER    NEWDPF dihe0 6.10 159.24 -44.39 -165.51 0.75 149.75 -44.36 
DOCKED: USER  keepresnum = 1 
DOCKED: USER  
DOCKED: REMARK  Name = 
DOCKED: REMARK  11 active torsions:
DOCKED: REMARK  status: ('A' for Active; 'I' for Inactive)
DOCKED: REMARK    1  A    between atoms: C_1  and  N_2
DOCKED: REMARK    2  A    between atoms: N_2  and  C_3
DOCKED: REMARK    3  A    between atoms: N_2  and  C_22
DOCKED: REMARK    4  A    between atoms: C_6  and  C_9
DOCKED: REMARK    5  A    between atoms: C_9  and  C_10
DOCKED: REMARK    6  A    between atoms: C_10  and  C_11
DOCKED: REMARK    7  A    between atoms: C_10  and  C_20
DOCKED: REMARK    8  A    between atoms: C_12  and  C_13
DOCKED: REMARK    9  A    between atoms: C_12  and  C_19
DOCKED: REMARK   10  A    between atoms: C_14  and  C_15
DOCKED: REMARK   11  A    between atoms: N_16  and  O_17
DOCKED: REMARK                            x       y       z     vdW  Elec       q    Type
DOCKED: REMARK                         _______ _______ _______ _____ _____    ______ ____
DOCKED: USER                              x       y       z     vdW  Elec       q    Type
DOCKED: USER                           _______ _______ _______ _____ _____    ______ ____
DOCKED: ROOT
DOCKED: ATOM      1  C   UNL     1      37.683  15.264 121.469 -0.29 -0.00    +0.000 C 
DOCKED: ATOM      2  C   UNL     1      36.378  16.041 121.664 -0.21 -0.00    +0.000 C 
DOCKED: ENDROOT
DOCKED: BRANCH   1   3
DOCKED: ATOM      3  C   UNL     1      37.455  13.783 121.684 -0.44 -0.00    +0.000 C 
DOCKED: ATOM      4  C   UNL     1      36.842  13.253 122.763 -0.56 -0.00    +0.000 C 
DOCKED: ATOM      5  C   UNL     1      36.329  14.119 123.893 -0.49 -0.00    +0.000 C 
DOCKED: BRANCH   4   6
DOCKED: ATOM      6  C   UNL     1      36.739  11.772 122.847 -0.67 -0.00    +0.000 C 
DOCKED: ATOM      7  C   UNL     1      37.069  10.956 121.835 -0.53 -0.00    +0.000 C 
DOCKED: BRANCH   7   8
DOCKED: ATOM      8  C   UNL     1      36.968   9.484 121.912 -0.63 -0.00    +0.000 C 
DOCKED: ATOM      9  N   UNL     1      37.051   8.772 123.153 -0.68 -0.00    +0.000 N 
DOCKED: ATOM     10  O   UNL     1      36.778   8.840 120.845 -2.64 -0.00    +0.000 OA
DOCKED: ATOM     11  H   UNL     1      37.095   9.271 124.002 -0.53 -0.00    +0.000 HD
DOCKED: BRANCH   9  12
DOCKED: ATOM     12  O   UNL     1      37.065   7.419 123.162 -2.19 -0.00    +0.000 OA
DOCKED: ATOM     13  H   UNL     1      37.112   7.089 122.251 -0.12 -0.00    +0.000 HD
DOCKED: ENDBRANCH   9  12
DOCKED: ENDBRANCH   7   8
DOCKED: ENDBRANCH   4   6
DOCKED: ENDBRANCH   1   3
DOCKED: BRANCH   1  14
DOCKED: ATOM     14  C   UNL     1      38.731  15.785 122.430 -0.31 -0.00    +0.000 C 
DOCKED: ATOM     15  O   UNL     1      38.366  16.178 123.572 -0.32 -0.00    +0.000 OA
DOCKED: BRANCH  14  19
DOCKED: ATOM     16  C   UNL     1      42.930  16.018 121.421 -0.29 -0.00    +0.000 A 
DOCKED: ATOM     17  C   UNL     1      42.503  15.942 122.762 -0.42 -0.00    +0.000 A 
DOCKED: ATOM     18  C   UNL     1      41.144  15.870 123.078 -0.36 -0.00    +0.000 A 
DOCKED: ATOM     19  C   UNL     1      40.171  15.865 122.066 -0.29 -0.00    +0.000 A 
DOCKED: ATOM     20  C   UNL     1      40.589  15.950 120.727 -0.18 -0.00    +0.000 A 
DOCKED: ATOM     21  C   UNL     1      41.949  16.024 120.409 -0.16 -0.00    +0.000 A 
DOCKED: ATOM     22  CM  UNL     1      41.548  15.946 121.744 +0.00 -0.00    +0.000 AC
DOCKED: BRANCH  16  23
DOCKED: ATOM     23  C   UNL     1      45.250  16.932 121.882 -0.29 -0.00    +0.000 C 
DOCKED: ATOM     24  N   UNL     1      44.342  16.093 121.091 -0.27 +0.00    +0.000 N 
DOCKED: ATOM     25  C   UNL     1      44.886  15.333 119.959 -0.35 +0.00    +0.000 C 
DOCKED: ENDBRANCH  16  23
DOCKED: ENDBRANCH  14  19
DOCKED: ENDBRANCH   1  14
DOCKED: TORSDOF 7DOCKED: TER
DOCKED: ENDMDL
________________________________________________________________________________


	BEGINNING GENETIC ALGORITHM DOCKING 92 of 100
Run: 92 Seed: 1467877546 733212524 [ Run 92 of 100 GA/GALS ]
Beginning LAMARCKIAN GENETIC ALGORITHM (LGA), with a maximum of 2500000 energy evaluations.

Final-Value: -14.290


	FINAL GENETIC ALGORITHM DOCKED STATE
	_______________________________________________


Detailed state:  trans 36.022 14.809 120.460 quatxyzw 0.386231 -0.261939 0.637177 0.613367 center 1.179 0.138 -0.353 ntor 7 18.4666 -88.2531 -157.5153 -46.3503 28.4370 -82.7663 -136.9722
State:	 36.022  14.809 120.460   0.489 -0.332  0.807 104.333     18.47  -88.25 -157.52  -46.35   28.44  -82.77 -136.97

DOCKED: MODEL       92
DOCKED: USER    Run = 92
DOCKED: USER    DPF = ligand_dock.biased.dpf
DOCKED: USER  
DOCKED: USER    Estimated Free Energy of Binding    =  -10.73 kcal/mol  [=(1)+(2)+(3)-(4)]
DOCKED: USER    Estimated Inhibition Constant, Ki   =   13.58 nM (nanomolar)  [Temperature = 298.15 K]
DOCKED: USER    
DOCKED: USER    (1) Final Intermolecular Energy     =  -12.82 kcal/mol
DOCKED: USER        vdW + Hbond + desolv Energy     =  -12.82 kcal/mol
DOCKED: USER        Electrostatic Energy            =   +0.00 kcal/mol
DOCKED: USER    (2) Final Total Internal Energy     =   -1.47 kcal/mol
DOCKED: USER    (3) Torsional Free Energy           =   +2.09 kcal/mol
DOCKED: USER    (4) Unbound System's Energy  [=(2)] =   -1.47 kcal/mol
DOCKED: USER    
DOCKED: USER    
DOCKED: USER    NEWDPF move ligand.dum.pdbqt
DOCKED: USER    NEWDPF about 1.179000 0.138000 -0.353000
DOCKED: USER    NEWDPF tran0 36.021584 14.808945 120.460260
DOCKED: USER    NEWDPF quaternion0 0.386231 -0.261939 0.637177 0.613367
DOCKED: USER    NEWDPF axisangle0 0.489025 -0.331653 0.806759 104.333255
DOCKED: USER    NEWDPF quat0 0.489025 -0.331653 0.806759 104.333255
DOCKED: USER    NEWDPF dihe0 18.47 -88.25 -157.52 -46.35 28.44 -82.77 -136.97 
DOCKED: USER  keepresnum = 1 
DOCKED: USER  
DOCKED: REMARK  Name = 
DOCKED: REMARK  11 active torsions:
DOCKED: REMARK  status: ('A' for Active; 'I' for Inactive)
DOCKED: REMARK    1  A    between atoms: C_1  and  N_2
DOCKED: REMARK    2  A    between atoms: N_2  and  C_3
DOCKED: REMARK    3  A    between atoms: N_2  and  C_22
DOCKED: REMARK    4  A    between atoms: C_6  and  C_9
DOCKED: REMARK    5  A    between atoms: C_9  and  C_10
DOCKED: REMARK    6  A    between atoms: C_10  and  C_11
DOCKED: REMARK    7  A    between atoms: C_10  and  C_20
DOCKED: REMARK    8  A    between atoms: C_12  and  C_13
DOCKED: REMARK    9  A    between atoms: C_12  and  C_19
DOCKED: REMARK   10  A    between atoms: C_14  and  C_15
DOCKED: REMARK   11  A    between atoms: N_16  and  O_17
DOCKED: REMARK                            x       y       z     vdW  Elec       q    Type
DOCKED: REMARK                         _______ _______ _______ _____ _____    ______ ____
DOCKED: USER                              x       y       z     vdW  Elec       q    Type
DOCKED: USER                           _______ _______ _______ _____ _____    ______ ____
DOCKED: ROOT
DOCKED: ATOM      1  C   UNL     1      37.226  15.394 121.836 -0.30 -0.00    +0.000 C 
DOCKED: ATOM      2  C   UNL     1      38.347  15.648 122.848 -0.33 -0.00    +0.000 C 
DOCKED: ENDROOT
DOCKED: BRANCH   1   3
DOCKED: ATOM      3  C   UNL     1      37.050  13.907 121.604 -0.38 -0.00    +0.000 C 
DOCKED: ATOM      4  C   UNL     1      36.432  13.068 122.460 -0.47 -0.00    +0.000 C 
DOCKED: ATOM      5  C   UNL     1      35.857  13.552 123.774 -0.56 -0.00    +0.000 C 
DOCKED: BRANCH   4   6
DOCKED: ATOM      6  C   UNL     1      36.385  11.625 122.107 -0.61 -0.00    +0.000 C 
DOCKED: ATOM      7  C   UNL     1      37.074  10.685 122.771 -0.58 -0.00    +0.000 C 
DOCKED: BRANCH   7   8
DOCKED: ATOM      8  C   UNL     1      37.032   9.249 122.424 -0.65 -0.00    +0.000 C 
DOCKED: ATOM      9  N   UNL     1      36.986   8.220 123.421 -0.72 -0.00    +0.000 N 
DOCKED: ATOM     10  O   UNL     1      37.012   8.927 121.206 -2.69 -0.00    +0.000 OA
DOCKED: ATOM     11  H   UNL     1      36.898   8.462 124.371 -0.42 -0.00    +0.000 HD
DOCKED: BRANCH   9  12
DOCKED: ATOM     12  O   UNL     1      37.062   6.918 123.058 -1.72 -0.00    +0.000 OA
DOCKED: ATOM     13  H   UNL     1      37.430   6.852 122.163 -0.30 -0.00    +0.000 HD
DOCKED: ENDBRANCH   9  12
DOCKED: ENDBRANCH   7   8
DOCKED: ENDBRANCH   4   6
DOCKED: ENDBRANCH   1   3
DOCKED: BRANCH   1  14
DOCKED: ATOM     14  C   UNL     1      37.547  16.100 120.536 -0.19 -0.00    +0.000 C 
DOCKED: ATOM     15  O   UNL     1      37.723  17.350 120.552 -0.10 -0.00    +0.000 OA
DOCKED: BRANCH  14  19
DOCKED: ATOM     16  C   UNL     1      37.870  14.011 116.763 -0.32 -0.00    +0.000 A 
DOCKED: ATOM     17  C   UNL     1      38.889  14.876 117.210 -0.14 -0.00    +0.000 A 
DOCKED: ATOM     18  C   UNL     1      38.774  15.549 118.429 -0.14 -0.00    +0.000 A 
DOCKED: ATOM     19  C   UNL     1      37.643  15.375 119.242 -0.19 -0.00    +0.000 A 
DOCKED: ATOM     20  C   UNL     1      36.618  14.522 118.797 -0.26 -0.00    +0.000 A 
DOCKED: ATOM     21  C   UNL     1      36.731  13.849 117.576 -0.35 -0.00    +0.000 A 
DOCKED: ATOM     22  CM  UNL     1      37.754  14.698 118.003 +0.00 -0.00    +0.000 AC
DOCKED: BRANCH  16  23
DOCKED: ATOM     23  C   UNL     1      38.943  12.208 115.339 -0.57 -0.00    +0.000 C 
DOCKED: ATOM     24  N   UNL     1      37.988  13.312 115.496 -0.45 -0.00    +0.000 N 
DOCKED: ATOM     25  C   UNL     1      37.157  13.697 114.349 -0.37 -0.00    +0.000 C 
DOCKED: ENDBRANCH  16  23
DOCKED: ENDBRANCH  14  19
DOCKED: ENDBRANCH   1  14
DOCKED: TORSDOF 7DOCKED: TER
DOCKED: ENDMDL
________________________________________________________________________________


	BEGINNING GENETIC ALGORITHM DOCKING 93 of 100
Run: 93 Seed: 1849630603 1211911995 [ Run 93 of 100 GA/GALS ]
Beginning LAMARCKIAN GENETIC ALGORITHM (LGA), with a maximum of 2500000 energy evaluations.

Final-Value: -14.869


	FINAL GENETIC ALGORITHM DOCKED STATE
	_______________________________________________


Detailed state:  trans 36.785 14.694 123.452 quatxyzw -0.765780 0.562582 -0.059613 -0.305825 center 1.179 0.138 -0.353 ntor 7 -0.9705 48.0840 111.2016 -79.4545 73.1969 142.2068 -39.7923
State:	 36.785  14.694 123.452  -0.804  0.591 -0.063 -144.384     -0.97   48.08  111.20  -79.45   73.20  142.21  -39.79

DOCKED: MODEL       93
DOCKED: USER    Run = 93
DOCKED: USER    DPF = ligand_dock.biased.dpf
DOCKED: USER  
DOCKED: USER    Estimated Free Energy of Binding    =  -11.36 kcal/mol  [=(1)+(2)+(3)-(4)]
DOCKED: USER    Estimated Inhibition Constant, Ki   =    4.72 nM (nanomolar)  [Temperature = 298.15 K]
DOCKED: USER    
DOCKED: USER    (1) Final Intermolecular Energy     =  -13.45 kcal/mol
DOCKED: USER        vdW + Hbond + desolv Energy     =  -13.45 kcal/mol
DOCKED: USER        Electrostatic Energy            =   +0.00 kcal/mol
DOCKED: USER    (2) Final Total Internal Energy     =   -1.42 kcal/mol
DOCKED: USER    (3) Torsional Free Energy           =   +2.09 kcal/mol
DOCKED: USER    (4) Unbound System's Energy  [=(2)] =   -1.42 kcal/mol
DOCKED: USER    
DOCKED: USER    
DOCKED: USER    NEWDPF move ligand.dum.pdbqt
DOCKED: USER    NEWDPF about 1.179000 0.138000 -0.353000
DOCKED: USER    NEWDPF tran0 36.784945 14.694005 123.451503
DOCKED: USER    NEWDPF quaternion0 -0.765780 0.562582 -0.059613 -0.305825
DOCKED: USER    NEWDPF axisangle0 -0.804316 0.590893 -0.062613 -144.384396
DOCKED: USER    NEWDPF quat0 -0.804316 0.590893 -0.062613 -144.384396
DOCKED: USER    NEWDPF dihe0 -0.97 48.08 111.20 -79.45 73.20 142.21 -39.79 
DOCKED: USER  keepresnum = 1 
DOCKED: USER  
DOCKED: REMARK  Name = 
DOCKED: REMARK  11 active torsions:
DOCKED: REMARK  status: ('A' for Active; 'I' for Inactive)
DOCKED: REMARK    1  A    between atoms: C_1  and  N_2
DOCKED: REMARK    2  A    between atoms: N_2  and  C_3
DOCKED: REMARK    3  A    between atoms: N_2  and  C_22
DOCKED: REMARK    4  A    between atoms: C_6  and  C_9
DOCKED: REMARK    5  A    between atoms: C_9  and  C_10
DOCKED: REMARK    6  A    between atoms: C_10  and  C_11
DOCKED: REMARK    7  A    between atoms: C_10  and  C_20
DOCKED: REMARK    8  A    between atoms: C_12  and  C_13
DOCKED: REMARK    9  A    between atoms: C_12  and  C_19
DOCKED: REMARK   10  A    between atoms: C_14  and  C_15
DOCKED: REMARK   11  A    between atoms: N_16  and  O_17
DOCKED: REMARK                            x       y       z     vdW  Elec       q    Type
DOCKED: REMARK                         _______ _______ _______ _____ _____    ______ ____
DOCKED: USER                              x       y       z     vdW  Elec       q    Type
DOCKED: USER                           _______ _______ _______ _____ _____    ______ ____
DOCKED: ROOT
DOCKED: ATOM      1  C   UNL     1      37.879  15.768 122.297 -0.30 -0.00    +0.000 C 
DOCKED: ATOM      2  C   UNL     1      38.695  16.432 121.183 -0.17 -0.00    +0.000 C 
DOCKED: ENDROOT
DOCKED: BRANCH   1   3
DOCKED: ATOM      3  C   UNL     1      37.972  14.260 122.194 -0.45 -0.00    +0.000 C 
DOCKED: ATOM      4  C   UNL     1      37.602  13.544 121.112 -0.44 -0.00    +0.000 C 
DOCKED: ATOM      5  C   UNL     1      37.030  14.206 119.877 -0.30 -0.00    +0.000 C 
DOCKED: BRANCH   4   6
DOCKED: ATOM      6  C   UNL     1      37.711  12.063 121.188 -0.33 -0.00    +0.000 C 
DOCKED: ATOM      7  C   UNL     1      36.826  11.296 121.842 -0.58 -0.00    +0.000 C 
DOCKED: BRANCH   7   8
DOCKED: ATOM      8  C   UNL     1      36.929   9.824 121.921 -0.60 -0.00    +0.000 C 
DOCKED: ATOM      9  N   UNL     1      36.854   9.115 123.164 -0.64 -0.00    +0.000 N 
DOCKED: ATOM     10  O   UNL     1      37.065   9.174 120.850 -2.74 -0.00    +0.000 OA
DOCKED: ATOM     11  H   UNL     1      36.645   9.602 123.995 -0.44 -0.00    +0.000 HD
DOCKED: BRANCH   9  12
DOCKED: ATOM     12  O   UNL     1      37.065   7.778 123.200 -2.32 -0.00    +0.000 OA
DOCKED: ATOM     13  H   UNL     1      37.241   7.454 122.302 -0.10 -0.00    +0.000 HD
DOCKED: ENDBRANCH   9  12
DOCKED: ENDBRANCH   7   8
DOCKED: ENDBRANCH   4   6
DOCKED: ENDBRANCH   1   3
DOCKED: BRANCH   1  14
DOCKED: ATOM     14  C   UNL     1      36.437  16.219 122.206 -0.28 -0.00    +0.000 C 
DOCKED: ATOM     15  O   UNL     1      35.913  16.350 121.065 -0.23 -0.00    +0.000 OA
DOCKED: BRANCH  14  19
DOCKED: ATOM     16  C   UNL     1      34.065  17.074 125.720 -0.39 -0.00    +0.000 A 
DOCKED: ATOM     17  C   UNL     1      34.213  15.757 125.239 -0.40 -0.00    +0.000 A 
DOCKED: ATOM     18  C   UNL     1      34.979  15.491 124.102 -0.50 -0.00    +0.000 A 
DOCKED: ATOM     19  C   UNL     1      35.625  16.529 123.412 -0.34 -0.00    +0.000 A 
DOCKED: ATOM     20  C   UNL     1      35.474  17.846 123.880 -0.28 -0.00    +0.000 A 
DOCKED: ATOM     21  C   UNL     1      34.706  18.114 125.018 -0.31 -0.00    +0.000 A 
DOCKED: ATOM     22  CM  UNL     1      34.843  16.801 124.561 -0.22 -0.00    +0.000 AC
DOCKED: BRANCH  16  23
DOCKED: ATOM     23  C   UNL     1      32.614  18.655 127.072 -0.26 -0.00    +0.000 C 
DOCKED: ATOM     24  N   UNL     1      33.269  17.351 126.902 -0.38 -0.00    +0.000 N 
DOCKED: ATOM     25  C   UNL     1      33.107  16.335 127.949 -0.45 -0.00    +0.000 C 
DOCKED: ENDBRANCH  16  23
DOCKED: ENDBRANCH  14  19
DOCKED: ENDBRANCH   1  14
DOCKED: TORSDOF 7DOCKED: TER
DOCKED: ENDMDL
________________________________________________________________________________


	BEGINNING GENETIC ALGORITHM DOCKING 94 of 100
Run: 94 Seed: 1455859924 64291940 [ Run 94 of 100 GA/GALS ]
Beginning LAMARCKIAN GENETIC ALGORITHM (LGA), with a maximum of 2500000 energy evaluations.

Final-Value: -15.497


	FINAL GENETIC ALGORITHM DOCKED STATE
	_______________________________________________


Detailed state:  trans 35.980 14.516 121.801 quatxyzw 0.621799 -0.386350 0.478703 0.484710 center 1.179 0.138 -0.353 ntor 7 6.3477 111.0428 -22.5140 169.1752 53.6629 -32.6176 178.0444
State:	 35.980  14.516 121.801   0.711 -0.442  0.547 122.013      6.35  111.04  -22.51  169.18   53.66  -32.62  178.04

DOCKED: MODEL       94
DOCKED: USER    Run = 94
DOCKED: USER    DPF = ligand_dock.biased.dpf
DOCKED: USER  
DOCKED: USER    Estimated Free Energy of Binding    =  -11.49 kcal/mol  [=(1)+(2)+(3)-(4)]
DOCKED: USER    Estimated Inhibition Constant, Ki   =    3.76 nM (nanomolar)  [Temperature = 298.15 K]
DOCKED: USER    
DOCKED: USER    (1) Final Intermolecular Energy     =  -13.58 kcal/mol
DOCKED: USER        vdW + Hbond + desolv Energy     =  -13.58 kcal/mol
DOCKED: USER        Electrostatic Energy            =   +0.00 kcal/mol
DOCKED: USER    (2) Final Total Internal Energy     =   -1.92 kcal/mol
DOCKED: USER    (3) Torsional Free Energy           =   +2.09 kcal/mol
DOCKED: USER    (4) Unbound System's Energy  [=(2)] =   -1.92 kcal/mol
DOCKED: USER    
DOCKED: USER    
DOCKED: USER    NEWDPF move ligand.dum.pdbqt
DOCKED: USER    NEWDPF about 1.179000 0.138000 -0.353000
DOCKED: USER    NEWDPF tran0 35.980352 14.515570 121.800895
DOCKED: USER    NEWDPF quaternion0 0.621799 -0.386350 0.478703 0.484710
DOCKED: USER    NEWDPF axisangle0 0.710891 -0.441707 0.547292 122.013021
DOCKED: USER    NEWDPF quat0 0.710891 -0.441707 0.547292 122.013021
DOCKED: USER    NEWDPF dihe0 6.35 111.04 -22.51 169.18 53.66 -32.62 178.04 
DOCKED: USER  keepresnum = 1 
DOCKED: USER  
DOCKED: REMARK  Name = 
DOCKED: REMARK  11 active torsions:
DOCKED: REMARK  status: ('A' for Active; 'I' for Inactive)
DOCKED: REMARK    1  A    between atoms: C_1  and  N_2
DOCKED: REMARK    2  A    between atoms: N_2  and  C_3
DOCKED: REMARK    3  A    between atoms: N_2  and  C_22
DOCKED: REMARK    4  A    between atoms: C_6  and  C_9
DOCKED: REMARK    5  A    between atoms: C_9  and  C_10
DOCKED: REMARK    6  A    between atoms: C_10  and  C_11
DOCKED: REMARK    7  A    between atoms: C_10  and  C_20
DOCKED: REMARK    8  A    between atoms: C_12  and  C_13
DOCKED: REMARK    9  A    between atoms: C_12  and  C_19
DOCKED: REMARK   10  A    between atoms: C_14  and  C_15
DOCKED: REMARK   11  A    between atoms: N_16  and  O_17
DOCKED: REMARK                            x       y       z     vdW  Elec       q    Type
DOCKED: REMARK                         _______ _______ _______ _____ _____    ______ ____
DOCKED: USER                              x       y       z     vdW  Elec       q    Type
DOCKED: USER                           _______ _______ _______ _____ _____    ______ ____
DOCKED: ROOT
DOCKED: ATOM      1  C   UNL     1      37.703  15.318 122.072 -0.33 -0.00    +0.000 C 
DOCKED: ATOM      2  C   UNL     1      39.174  15.737 122.149 -0.31 -0.00    +0.000 C 
DOCKED: ENDROOT
DOCKED: BRANCH   1   3
DOCKED: ATOM      3  C   UNL     1      37.575  13.812 122.176 -0.48 -0.00    +0.000 C 
DOCKED: ATOM      4  C   UNL     1      36.784  13.172 123.061 -0.60 -0.00    +0.000 C 
DOCKED: ATOM      5  C   UNL     1      35.942  13.926 124.067 -0.50 -0.00    +0.000 C 
DOCKED: BRANCH   4   6
DOCKED: ATOM      6  C   UNL     1      36.807  11.686 123.066 -0.68 -0.00    +0.000 C 
DOCKED: ATOM      7  C   UNL     1      36.980  10.951 121.958 -0.56 -0.00    +0.000 C 
DOCKED: BRANCH   7   8
DOCKED: ATOM      8  C   UNL     1      37.004   9.474 121.957 -0.63 -0.00    +0.000 C 
DOCKED: ATOM      9  N   UNL     1      36.936   8.704 123.164 -0.69 -0.00    +0.000 N 
DOCKED: ATOM     10  O   UNL     1      37.062   8.876 120.849 -2.72 -0.00    +0.000 OA
DOCKED: ATOM     11  H   UNL     1      36.787   9.156 124.026 -0.47 -0.00    +0.000 HD
DOCKED: BRANCH   9  12
DOCKED: ATOM     12  O   UNL     1      37.074   7.358 123.122 -2.16 -0.00    +0.000 OA
DOCKED: ATOM     13  H   UNL     1      37.312   7.084 122.222 -0.17 -0.00    +0.000 HD
DOCKED: ENDBRANCH   9  12
DOCKED: ENDBRANCH   7   8
DOCKED: ENDBRANCH   4   6
DOCKED: ENDBRANCH   1   3
DOCKED: BRANCH   1  14
DOCKED: ATOM     14  C   UNL     1      37.102  15.814 120.774 -0.22 -0.00    +0.000 C 
DOCKED: ATOM     15  O   UNL     1      36.353  16.829 120.801 -0.21 -0.00    +0.000 OA
DOCKED: BRANCH  14  19
DOCKED: ATOM     16  C   UNL     1      37.854  13.874 116.982 -0.32 -0.00    +0.000 A 
DOCKED: ATOM     17  C   UNL     1      38.502  15.076 117.330 -0.18 -0.00    +0.000 A 
DOCKED: ATOM     18  C   UNL     1      38.250  15.697 118.556 -0.14 -0.00    +0.000 A 
DOCKED: ATOM     19  C   UNL     1      37.350  15.134 119.475 -0.21 -0.00    +0.000 A 
DOCKED: ATOM     20  C   UNL     1      36.693  13.941 119.130 -0.30 -0.00    +0.000 A 
DOCKED: ATOM     21  C   UNL     1      36.942  13.319 117.903 -0.35 -0.00    +0.000 A 
DOCKED: ATOM     22  CM  UNL     1      37.598  14.507 118.229 +0.00 -0.00    +0.000 AC
DOCKED: BRANCH  16  23
DOCKED: ATOM     23  C   UNL     1      37.316  13.565 114.524 -0.39 -0.00    +0.000 C 
DOCKED: ATOM     24  N   UNL     1      38.114  13.227 115.709 -0.46 -0.00    +0.000 N 
DOCKED: ATOM     25  C   UNL     1      39.178  12.224 115.584 -0.50 -0.00    +0.000 C 
DOCKED: ENDBRANCH  16  23
DOCKED: ENDBRANCH  14  19
DOCKED: ENDBRANCH   1  14
DOCKED: TORSDOF 7DOCKED: TER
DOCKED: ENDMDL
________________________________________________________________________________


	BEGINNING GENETIC ALGORITHM DOCKING 95 of 100
Run: 95 Seed: 1905303140 1340907056 [ Run 95 of 100 GA/GALS ]
Beginning LAMARCKIAN GENETIC ALGORITHM (LGA), with a maximum of 2500000 energy evaluations.

Final-Value: -14.610


	FINAL GENETIC ALGORITHM DOCKED STATE
	_______________________________________________


Detailed state:  trans 38.933 14.071 121.544 quatxyzw -0.268977 0.516679 0.698209 0.416172 center 1.179 0.138 -0.353 ntor 7 3.2673 157.9741 -63.5812 -147.0363 -178.7150 151.6616 -44.7092
State:	 38.933  14.071 121.544  -0.296  0.568  0.768 130.814      3.27  157.97  -63.58 -147.04 -178.71  151.66  -44.71

DOCKED: MODEL       95
DOCKED: USER    Run = 95
DOCKED: USER    DPF = ligand_dock.biased.dpf
DOCKED: USER  
DOCKED: USER    Estimated Free Energy of Binding    =  -11.07 kcal/mol  [=(1)+(2)+(3)-(4)]
DOCKED: USER    Estimated Inhibition Constant, Ki   =    7.62 nM (nanomolar)  [Temperature = 298.15 K]
DOCKED: USER    
DOCKED: USER    (1) Final Intermolecular Energy     =  -13.16 kcal/mol
DOCKED: USER        vdW + Hbond + desolv Energy     =  -13.16 kcal/mol
DOCKED: USER        Electrostatic Energy            =   +0.00 kcal/mol
DOCKED: USER    (2) Final Total Internal Energy     =   -1.45 kcal/mol
DOCKED: USER    (3) Torsional Free Energy           =   +2.09 kcal/mol
DOCKED: USER    (4) Unbound System's Energy  [=(2)] =   -1.45 kcal/mol
DOCKED: USER    
DOCKED: USER    
DOCKED: USER    NEWDPF move ligand.dum.pdbqt
DOCKED: USER    NEWDPF about 1.179000 0.138000 -0.353000
DOCKED: USER    NEWDPF tran0 38.932759 14.071069 121.543819
DOCKED: USER    NEWDPF quaternion0 -0.268977 0.516679 0.698209 0.416172
DOCKED: USER    NEWDPF axisangle0 -0.295811 0.568225 0.767865 130.813768
DOCKED: USER    NEWDPF quat0 -0.295811 0.568225 0.767865 130.813768
DOCKED: USER    NEWDPF dihe0 3.27 157.97 -63.58 -147.04 -178.71 151.66 -44.71 
DOCKED: USER  keepresnum = 1 
DOCKED: USER  
DOCKED: REMARK  Name = 
DOCKED: REMARK  11 active torsions:
DOCKED: REMARK  status: ('A' for Active; 'I' for Inactive)
DOCKED: REMARK    1  A    between atoms: C_1  and  N_2
DOCKED: REMARK    2  A    between atoms: N_2  and  C_3
DOCKED: REMARK    3  A    between atoms: N_2  and  C_22
DOCKED: REMARK    4  A    between atoms: C_6  and  C_9
DOCKED: REMARK    5  A    between atoms: C_9  and  C_10
DOCKED: REMARK    6  A    between atoms: C_10  and  C_11
DOCKED: REMARK    7  A    between atoms: C_10  and  C_20
DOCKED: REMARK    8  A    between atoms: C_12  and  C_13
DOCKED: REMARK    9  A    between atoms: C_12  and  C_19
DOCKED: REMARK   10  A    between atoms: C_14  and  C_15
DOCKED: REMARK   11  A    between atoms: N_16  and  O_17
DOCKED: REMARK                            x       y       z     vdW  Elec       q    Type
DOCKED: REMARK                         _______ _______ _______ _____ _____    ______ ____
DOCKED: USER                              x       y       z     vdW  Elec       q    Type
DOCKED: USER                           _______ _______ _______ _____ _____    ______ ____
DOCKED: ROOT
DOCKED: ATOM      1  C   UNL     1      37.449  15.283 121.667 -0.30 -0.00    +0.000 C 
DOCKED: ATOM      2  C   UNL     1      36.176  16.080 121.969 -0.23 -0.00    +0.000 C 
DOCKED: ENDROOT
DOCKED: BRANCH   1   3
DOCKED: ATOM      3  C   UNL     1      37.194  13.798 121.826 -0.43 -0.00    +0.000 C 
DOCKED: ATOM      4  C   UNL     1      36.592  13.236 122.895 -0.57 -0.00    +0.000 C 
DOCKED: ATOM      5  C   UNL     1      36.121  14.065 124.070 -0.46 -0.00    +0.000 C 
DOCKED: BRANCH   4   6
DOCKED: ATOM      6  C   UNL     1      36.459  11.756 122.919 -0.68 -0.00    +0.000 C 
DOCKED: ATOM      7  C   UNL     1      37.068  10.951 122.037 -0.54 -0.00    +0.000 C 
DOCKED: BRANCH   7   8
DOCKED: ATOM      8  C   UNL     1      36.940   9.479 122.056 -0.65 -0.00    +0.000 C 
DOCKED: ATOM      9  N   UNL     1      37.049   8.714 123.263 -0.67 -0.00    +0.000 N 
DOCKED: ATOM     10  O   UNL     1      36.701   8.884 120.970 -2.62 -0.00    +0.000 OA
DOCKED: ATOM     11  H   UNL     1      37.132   9.174 124.129 -0.56 -0.00    +0.000 HD
DOCKED: BRANCH   9  12
DOCKED: ATOM     12  O   UNL     1      37.036   7.361 123.215 -2.14 -0.00    +0.000 OA
DOCKED: ATOM     13  H   UNL     1      37.000   7.070 122.290 -0.10 -0.00    +0.000 HD
DOCKED: ENDBRANCH   9  12
DOCKED: ENDBRANCH   7   8
DOCKED: ENDBRANCH   4   6
DOCKED: ENDBRANCH   1   3
DOCKED: BRANCH   1  14
DOCKED: ATOM     14  C   UNL     1      38.560  15.732 122.593 -0.32 -0.00    +0.000 C 
DOCKED: ATOM     15  O   UNL     1      38.265  16.085 123.768 -0.31 -0.00    +0.000 OA
DOCKED: BRANCH  14  19
DOCKED: ATOM     16  C   UNL     1      42.677  15.900 121.280 -0.28 -0.00    +0.000 A 
DOCKED: ATOM     17  C   UNL     1      41.612  15.976 120.360 -0.15 -0.00    +0.000 A 
DOCKED: ATOM     18  C   UNL     1      40.285  15.918 120.794 -0.19 -0.00    +0.000 A 
DOCKED: ATOM     19  C   UNL     1      39.980  15.788 122.158 -0.30 -0.00    +0.000 A 
DOCKED: ATOM     20  C   UNL     1      41.038  15.702 123.080 -0.33 -0.00    +0.000 A 
DOCKED: ATOM     21  C   UNL     1      42.366  15.758 122.648 -0.43 -0.00    +0.000 A 
DOCKED: ATOM     22  CM  UNL     1      41.326  15.840 121.720 +0.00 -0.00    +0.000 AC
DOCKED: BRANCH  16  23
DOCKED: ATOM     23  C   UNL     1      44.485  15.224 119.636 -0.36 -0.00    +0.000 C 
DOCKED: ATOM     24  N   UNL     1      44.057  15.960 120.831 -0.27 -0.00    +0.000 N 
DOCKED: ATOM     25  C   UNL     1      45.047  16.756 121.566 -0.28 +0.00    +0.000 C 
DOCKED: ENDBRANCH  16  23
DOCKED: ENDBRANCH  14  19
DOCKED: ENDBRANCH   1  14
DOCKED: TORSDOF 7DOCKED: TER
DOCKED: ENDMDL
________________________________________________________________________________


	BEGINNING GENETIC ALGORITHM DOCKING 96 of 100
Run: 96 Seed: 1048215558 1525670974 [ Run 96 of 100 GA/GALS ]
Beginning LAMARCKIAN GENETIC ALGORITHM (LGA), with a maximum of 2500000 energy evaluations.

Final-Value: -13.834


	FINAL GENETIC ALGORITHM DOCKED STATE
	_______________________________________________


Detailed state:  trans 38.447 14.075 120.924 quatxyzw -0.083530 -0.171486 -0.825624 -0.530999 center 1.179 0.138 -0.353 ntor 7 3.3097 -94.0908 -76.1433 180.0000 -73.8845 -106.9090 70.8798
State:	 38.447  14.075 120.924  -0.099 -0.202 -0.974 -115.854      3.31  -94.09  -76.14  180.00  -73.88 -106.91   70.88

DOCKED: MODEL       96
DOCKED: USER    Run = 96
DOCKED: USER    DPF = ligand_dock.biased.dpf
DOCKED: USER  
DOCKED: USER    Estimated Free Energy of Binding    =  -10.35 kcal/mol  [=(1)+(2)+(3)-(4)]
DOCKED: USER    Estimated Inhibition Constant, Ki   =   25.85 nM (nanomolar)  [Temperature = 298.15 K]
DOCKED: USER    
DOCKED: USER    (1) Final Intermolecular Energy     =  -12.44 kcal/mol
DOCKED: USER        vdW + Hbond + desolv Energy     =  -12.44 kcal/mol
DOCKED: USER        Electrostatic Energy            =   +0.00 kcal/mol
DOCKED: USER    (2) Final Total Internal Energy     =   -1.39 kcal/mol
DOCKED: USER    (3) Torsional Free Energy           =   +2.09 kcal/mol
DOCKED: USER    (4) Unbound System's Energy  [=(2)] =   -1.39 kcal/mol
DOCKED: USER    
DOCKED: USER    
DOCKED: USER    NEWDPF move ligand.dum.pdbqt
DOCKED: USER    NEWDPF about 1.179000 0.138000 -0.353000
DOCKED: USER    NEWDPF tran0 38.446567 14.075101 120.923661
DOCKED: USER    NEWDPF quaternion0 -0.083530 -0.171486 -0.825624 -0.530999
DOCKED: USER    NEWDPF axisangle0 -0.098575 -0.202374 -0.974334 -115.853991
DOCKED: USER    NEWDPF quat0 -0.098575 -0.202374 -0.974334 -115.853991
DOCKED: USER    NEWDPF dihe0 3.31 -94.09 -76.14 180.00 -73.88 -106.91 70.88 
DOCKED: USER  keepresnum = 1 
DOCKED: USER  
DOCKED: REMARK  Name = 
DOCKED: REMARK  11 active torsions:
DOCKED: REMARK  status: ('A' for Active; 'I' for Inactive)
DOCKED: REMARK    1  A    between atoms: C_1  and  N_2
DOCKED: REMARK    2  A    between atoms: N_2  and  C_3
DOCKED: REMARK    3  A    between atoms: N_2  and  C_22
DOCKED: REMARK    4  A    between atoms: C_6  and  C_9
DOCKED: REMARK    5  A    between atoms: C_9  and  C_10
DOCKED: REMARK    6  A    between atoms: C_10  and  C_11
DOCKED: REMARK    7  A    between atoms: C_10  and  C_20
DOCKED: REMARK    8  A    between atoms: C_12  and  C_13
DOCKED: REMARK    9  A    between atoms: C_12  and  C_19
DOCKED: REMARK   10  A    between atoms: C_14  and  C_15
DOCKED: REMARK   11  A    between atoms: N_16  and  O_17
DOCKED: REMARK                            x       y       z     vdW  Elec       q    Type
DOCKED: REMARK                         _______ _______ _______ _____ _____    ______ ____
DOCKED: USER                              x       y       z     vdW  Elec       q    Type
DOCKED: USER                           _______ _______ _______ _____ _____    ______ ____
DOCKED: ROOT
DOCKED: ATOM      1  C   UNL     1      38.050  15.176 122.446 -0.37 -0.00    +0.000 C 
DOCKED: ATOM      2  C   UNL     1      37.815  15.832 123.809 -0.03 -0.00    +0.000 C 
DOCKED: ENDROOT
DOCKED: BRANCH   1   3
DOCKED: ATOM      3  C   UNL     1      37.701  13.703 122.500 -0.50 -0.00    +0.000 C 
DOCKED: ATOM      4  C   UNL     1      36.526  13.212 122.945 -0.57 -0.00    +0.000 C 
DOCKED: ATOM      5  C   UNL     1      35.428  14.119 123.459 -0.43 -0.00    +0.000 C 
DOCKED: BRANCH   4   6
DOCKED: ATOM      6  C   UNL     1      36.357  11.736 122.979 -0.69 -0.00    +0.000 C 
DOCKED: ATOM      7  C   UNL     1      37.069  10.898 122.211 -0.55 -0.00    +0.000 C 
DOCKED: BRANCH   7   8
DOCKED: ATOM      8  C   UNL     1      36.906   9.430 122.240 -0.66 -0.00    +0.000 C 
DOCKED: ATOM      9  N   UNL     1      37.083   8.661 123.436 -0.64 -0.00    +0.000 N 
DOCKED: ATOM     10  O   UNL     1      36.575   8.843 121.175 -2.48 -0.00    +0.000 OA
DOCKED: ATOM     11  H   UNL     1      37.239   9.119 124.294 -0.57 -0.00    +0.000 HD
DOCKED: BRANCH   9  12
DOCKED: ATOM     12  O   UNL     1      37.032   7.309 123.390 -2.07 -0.00    +0.000 OA
DOCKED: ATOM     13  H   UNL     1      36.923   7.020 122.471 -0.09 -0.00    +0.000 HD
DOCKED: ENDBRANCH   9  12
DOCKED: ENDBRANCH   7   8
DOCKED: ENDBRANCH   4   6
DOCKED: ENDBRANCH   1   3
DOCKED: BRANCH   1  14
DOCKED: ATOM     14  C   UNL     1      39.496  15.364 122.036 -0.36 -0.00    +0.000 C 
DOCKED: ATOM     15  O   UNL     1      40.041  14.483 121.314 -0.78 -0.00    +0.000 OA
DOCKED: BRANCH  14  19
DOCKED: ATOM     16  C   UNL     1      41.861  18.752 123.313 -0.17 -0.00    +0.000 A 
DOCKED: ATOM     17  C   UNL     1      42.328  17.431 123.472 -0.30 -0.00    +0.000 A 
DOCKED: ATOM     18  C   UNL     1      41.555  16.343 123.060 -0.38 -0.00    +0.000 A 
DOCKED: ATOM     19  C   UNL     1      40.296  16.539 122.469 -0.25 -0.00    +0.000 A 
DOCKED: ATOM     20  C   UNL     1      39.821  17.852 122.316 -0.12 -0.00    +0.000 A 
DOCKED: ATOM     21  C   UNL     1      40.592  18.942 122.730 -0.08 -0.00    +0.000 A 
DOCKED: ATOM     22  CM  UNL     1      41.076  17.643 122.894 +0.00 -0.00    +0.000 AC
DOCKED: BRANCH  16  23
DOCKED: ATOM     23  C   UNL     1      43.941  20.184 123.084 -0.12 -0.00    +0.000 C 
DOCKED: ATOM     24  N   UNL     1      42.663  19.883 123.741 -0.12 -0.00    +0.000 N 
DOCKED: ATOM     25  C   UNL     1      42.212  20.745 124.841 -0.11 -0.00    +0.000 C 
DOCKED: ENDBRANCH  16  23
DOCKED: ENDBRANCH  14  19
DOCKED: ENDBRANCH   1  14
DOCKED: TORSDOF 7DOCKED: TER
DOCKED: ENDMDL
________________________________________________________________________________


	BEGINNING GENETIC ALGORITHM DOCKING 97 of 100
Run: 97 Seed: 1224788432 1721305089 [ Run 97 of 100 GA/GALS ]
Beginning LAMARCKIAN GENETIC ALGORITHM (LGA), with a maximum of 2500000 energy evaluations.

Final-Value: -14.841


	FINAL GENETIC ALGORITHM DOCKED STATE
	_______________________________________________


Detailed state:  trans 35.314 14.130 125.154 quatxyzw -0.813133 0.532015 0.081338 -0.221717 center 1.179 0.138 -0.353 ntor 7 8.3947 86.6539 44.0614 -105.0666 -117.0724 -109.3402 -1.6289
State:	 35.314  14.130 125.154  -0.834  0.546  0.083 -154.380      8.39   86.65   44.06 -105.07 -117.07 -109.34   -1.63

DOCKED: MODEL       97
DOCKED: USER    Run = 97
DOCKED: USER    DPF = ligand_dock.biased.dpf
DOCKED: USER  
DOCKED: USER    Estimated Free Energy of Binding    =  -11.42 kcal/mol  [=(1)+(2)+(3)-(4)]
DOCKED: USER    Estimated Inhibition Constant, Ki   =    4.22 nM (nanomolar)  [Temperature = 298.15 K]
DOCKED: USER    
DOCKED: USER    (1) Final Intermolecular Energy     =  -13.51 kcal/mol
DOCKED: USER        vdW + Hbond + desolv Energy     =  -13.51 kcal/mol
DOCKED: USER        Electrostatic Energy            =   +0.00 kcal/mol
DOCKED: USER    (2) Final Total Internal Energy     =   -1.33 kcal/mol
DOCKED: USER    (3) Torsional Free Energy           =   +2.09 kcal/mol
DOCKED: USER    (4) Unbound System's Energy  [=(2)] =   -1.33 kcal/mol
DOCKED: USER    
DOCKED: USER    
DOCKED: USER    NEWDPF move ligand.dum.pdbqt
DOCKED: USER    NEWDPF about 1.179000 0.138000 -0.353000
DOCKED: USER    NEWDPF tran0 35.313817 14.129671 125.153991
DOCKED: USER    NEWDPF quaternion0 -0.813133 0.532015 0.081338 -0.221717
DOCKED: USER    NEWDPF axisangle0 -0.833888 0.545594 0.083414 -154.380225
DOCKED: USER    NEWDPF quat0 -0.833888 0.545594 0.083414 -154.380225
DOCKED: USER    NEWDPF dihe0 8.39 86.65 44.06 -105.07 -117.07 -109.34 -1.63 
DOCKED: USER  keepresnum = 1 
DOCKED: USER  
DOCKED: REMARK  Name = 
DOCKED: REMARK  11 active torsions:
DOCKED: REMARK  status: ('A' for Active; 'I' for Inactive)
DOCKED: REMARK    1  A    between atoms: C_1  and  N_2
DOCKED: REMARK    2  A    between atoms: N_2  and  C_3
DOCKED: REMARK    3  A    between atoms: N_2  and  C_22
DOCKED: REMARK    4  A    between atoms: C_6  and  C_9
DOCKED: REMARK    5  A    between atoms: C_9  and  C_10
DOCKED: REMARK    6  A    between atoms: C_10  and  C_11
DOCKED: REMARK    7  A    between atoms: C_10  and  C_20
DOCKED: REMARK    8  A    between atoms: C_12  and  C_13
DOCKED: REMARK    9  A    between atoms: C_12  and  C_19
DOCKED: REMARK   10  A    between atoms: C_14  and  C_15
DOCKED: REMARK   11  A    between atoms: N_16  and  O_17
DOCKED: REMARK                            x       y       z     vdW  Elec       q    Type
DOCKED: REMARK                         _______ _______ _______ _____ _____    ______ ____
DOCKED: USER                              x       y       z     vdW  Elec       q    Type
DOCKED: USER                           _______ _______ _______ _____ _____    ______ ____
DOCKED: ROOT
DOCKED: ATOM      1  C   UNL     1      35.818  15.343 123.755 -0.49 -0.00    +0.000 C 
DOCKED: ATOM      2  C   UNL     1      36.143  16.106 122.467 -0.31 -0.00    +0.000 C 
DOCKED: ENDROOT
DOCKED: BRANCH   1   3
DOCKED: ATOM      3  C   UNL     1      36.137  13.871 123.594 -0.56 -0.00    +0.000 C 
DOCKED: ATOM      4  C   UNL     1      37.308  13.391 123.128 -0.57 -0.00    +0.000 C 
DOCKED: ATOM      5  C   UNL     1      38.431  14.309 122.697 -0.46 -0.00    +0.000 C 
DOCKED: BRANCH   4   6
DOCKED: ATOM      6  C   UNL     1      37.447  11.918 122.984 -0.46 -0.00    +0.000 C 
DOCKED: ATOM      7  C   UNL     1      36.559  11.158 122.325 -0.65 -0.00    +0.000 C 
DOCKED: BRANCH   7   8
DOCKED: ATOM      8  C   UNL     1      36.692   9.694 122.179 -0.69 -0.00    +0.000 C 
DOCKED: ATOM      9  N   UNL     1      36.690   8.807 123.305 -0.63 -0.00    +0.000 N 
DOCKED: ATOM     10  O   UNL     1      36.785   9.213 121.018 -2.64 -0.00    +0.000 OA
DOCKED: ATOM     11  H   UNL     1      36.515   9.161 124.207 -0.41 -0.00    +0.000 HD
DOCKED: BRANCH   9  12
DOCKED: ATOM     12  O   UNL     1      36.926   7.486 123.131 -2.17 -0.00    +0.000 OA
DOCKED: ATOM     13  H   UNL     1      37.208   7.324 122.217 -0.10 -0.00    +0.000 HD
DOCKED: ENDBRANCH   9  12
DOCKED: ENDBRANCH   7   8
DOCKED: ENDBRANCH   4   6
DOCKED: ENDBRANCH   1   3
DOCKED: BRANCH   1  14
DOCKED: ATOM     14  C   UNL     1      34.356  15.534 124.101 -0.60 -0.00    +0.000 C 
DOCKED: ATOM     15  O   UNL     1      33.490  14.878 123.460 -0.56 -0.00    +0.000 OA
DOCKED: BRANCH  14  19
DOCKED: ATOM     16  C   UNL     1      33.055  18.327 127.137 -0.26 -0.00    +0.000 A 
DOCKED: ATOM     17  C   UNL     1      33.284  18.743 125.810 -0.27 -0.00    +0.000 A 
DOCKED: ATOM     18  C   UNL     1      33.707  17.834 124.837 -0.32 -0.00    +0.000 A 
DOCKED: ATOM     19  C   UNL     1      33.909  16.481 125.156 -0.32 -0.00    +0.000 A 
DOCKED: ATOM     20  C   UNL     1      33.691  16.062 126.480 -0.18 -0.00    +0.000 A 
DOCKED: ATOM     21  C   UNL     1      33.269  16.971 127.455 -0.38 -0.00    +0.000 A 
DOCKED: ATOM     22  CM  UNL     1      33.487  17.403 126.146 -0.05 -0.00    +0.000 AC
DOCKED: BRANCH  16  23
DOCKED: ATOM     23  C   UNL     1      33.488  19.613 129.279 -0.07 -0.00    +0.000 C 
DOCKED: ATOM     24  N   UNL     1      32.615  19.270 128.149 -0.15 -0.00    +0.000 N 
DOCKED: ATOM     25  C   UNL     1      31.290  19.895 128.062 -0.23 -0.00    +0.000 C 
DOCKED: ENDBRANCH  16  23
DOCKED: ENDBRANCH  14  19
DOCKED: ENDBRANCH   1  14
DOCKED: TORSDOF 7DOCKED: TER
DOCKED: ENDMDL
________________________________________________________________________________


	BEGINNING GENETIC ALGORITHM DOCKING 98 of 100
Run: 98 Seed: 999719478 875076980 [ Run 98 of 100 GA/GALS ]
Beginning LAMARCKIAN GENETIC ALGORITHM (LGA), with a maximum of 2500000 energy evaluations.

Final-Value: -14.303


	FINAL GENETIC ALGORITHM DOCKED STATE
	_______________________________________________


Detailed state:  trans 38.829 14.528 121.369 quatxyzw -0.278148 0.431544 0.728500 0.453532 center 1.179 0.138 -0.353 ntor 7 13.0757 -52.5832 172.3645 180.0000 -146.3164 -40.6839 -57.1837
State:	 38.829  14.528 121.369  -0.312  0.484  0.817 126.059     13.08  -52.58  172.36  180.00 -146.32  -40.68  -57.18

DOCKED: MODEL       98
DOCKED: USER    Run = 98
DOCKED: USER    DPF = ligand_dock.biased.dpf
DOCKED: USER  
DOCKED: USER    Estimated Free Energy of Binding    =  -10.46 kcal/mol  [=(1)+(2)+(3)-(4)]
DOCKED: USER    Estimated Inhibition Constant, Ki   =   21.63 nM (nanomolar)  [Temperature = 298.15 K]
DOCKED: USER    
DOCKED: USER    (1) Final Intermolecular Energy     =  -12.55 kcal/mol
DOCKED: USER        vdW + Hbond + desolv Energy     =  -12.55 kcal/mol
DOCKED: USER        Electrostatic Energy            =   +0.00 kcal/mol
DOCKED: USER    (2) Final Total Internal Energy     =   -1.76 kcal/mol
DOCKED: USER    (3) Torsional Free Energy           =   +2.09 kcal/mol
DOCKED: USER    (4) Unbound System's Energy  [=(2)] =   -1.76 kcal/mol
DOCKED: USER    
DOCKED: USER    
DOCKED: USER    NEWDPF move ligand.dum.pdbqt
DOCKED: USER    NEWDPF about 1.179000 0.138000 -0.353000
DOCKED: USER    NEWDPF tran0 38.828759 14.528334 121.369426
DOCKED: USER    NEWDPF quaternion0 -0.278148 0.431544 0.728500 0.453532
DOCKED: USER    NEWDPF axisangle0 -0.312091 0.484207 0.817400 126.058933
DOCKED: USER    NEWDPF quat0 -0.312091 0.484207 0.817400 126.058933
DOCKED: USER    NEWDPF dihe0 13.08 -52.58 172.36 180.00 -146.32 -40.68 -57.18 
DOCKED: USER  keepresnum = 1 
DOCKED: USER  
DOCKED: REMARK  Name = 
DOCKED: REMARK  11 active torsions:
DOCKED: REMARK  status: ('A' for Active; 'I' for Inactive)
DOCKED: REMARK    1  A    between atoms: C_1  and  N_2
DOCKED: REMARK    2  A    between atoms: N_2  and  C_3
DOCKED: REMARK    3  A    between atoms: N_2  and  C_22
DOCKED: REMARK    4  A    between atoms: C_6  and  C_9
DOCKED: REMARK    5  A    between atoms: C_9  and  C_10
DOCKED: REMARK    6  A    between atoms: C_10  and  C_11
DOCKED: REMARK    7  A    between atoms: C_10  and  C_20
DOCKED: REMARK    8  A    between atoms: C_12  and  C_13
DOCKED: REMARK    9  A    between atoms: C_12  and  C_19
DOCKED: REMARK   10  A    between atoms: C_14  and  C_15
DOCKED: REMARK   11  A    between atoms: N_16  and  O_17
DOCKED: REMARK                            x       y       z     vdW  Elec       q    Type
DOCKED: REMARK                         _______ _______ _______ _____ _____    ______ ____
DOCKED: USER                              x       y       z     vdW  Elec       q    Type
DOCKED: USER                           _______ _______ _______ _____ _____    ______ ____
DOCKED: ROOT
DOCKED: ATOM      1  C   UNL     1      37.284  15.575 121.821 -0.28 -0.00    +0.000 C 
DOCKED: ATOM      2  C   UNL     1      36.001  16.208 122.367 -0.29 -0.00    +0.000 C 
DOCKED: ENDROOT
DOCKED: BRANCH   1   3
DOCKED: ATOM      3  C   UNL     1      37.160  14.066 121.794 -0.40 -0.00    +0.000 C 
DOCKED: ATOM      4  C   UNL     1      37.230  13.314 120.677 -0.44 -0.00    +0.000 C 
DOCKED: ATOM      5  C   UNL     1      37.429  13.934 119.310 -0.38 -0.00    +0.000 C 
DOCKED: BRANCH   4   6
DOCKED: ATOM      6  C   UNL     1      37.040  11.845 120.813 -0.50 -0.00    +0.000 C 
DOCKED: ATOM      7  C   UNL     1      37.251  11.183 121.960 -0.33 -0.00    +0.000 C 
DOCKED: BRANCH   7   8
DOCKED: ATOM      8  C   UNL     1      37.065   9.724 122.102 -0.59 -0.00    +0.000 C 
DOCKED: ATOM      9  N   UNL     1      37.082   9.068 123.377 -0.59 -0.00    +0.000 N 
DOCKED: ATOM     10  O   UNL     1      36.860   9.042 121.062 -2.66 -0.00    +0.000 OA
DOCKED: ATOM     11  H   UNL     1      37.139   9.602 124.202 -0.59 -0.00    +0.000 HD
DOCKED: BRANCH   9  12
DOCKED: ATOM     12  O   UNL     1      37.020   7.718 123.448 -2.27 -0.00    +0.000 OA
DOCKED: ATOM     13  H   UNL     1      37.175   7.339 122.568 -0.11 -0.00    +0.000 HD
DOCKED: ENDBRANCH   9  12
DOCKED: ENDBRANCH   7   8
DOCKED: ENDBRANCH   4   6
DOCKED: ENDBRANCH   1   3
DOCKED: BRANCH   1  14
DOCKED: ATOM     14  C   UNL     1      38.460  15.996 122.677 -0.30 -0.00    +0.000 C 
DOCKED: ATOM     15  O   UNL     1      38.242  16.392 123.855 -0.32 -0.00    +0.000 OA
DOCKED: BRANCH  14  19
DOCKED: ATOM     16  C   UNL     1      42.512  15.964 121.165 -0.26 -0.00    +0.000 A 
DOCKED: ATOM     17  C   UNL     1      41.494  16.692 120.515 -0.15 -0.00    +0.000 A 
DOCKED: ATOM     18  C   UNL     1      40.188  16.693 121.010 -0.14 -0.00    +0.000 A 
DOCKED: ATOM     19  C   UNL     1      39.858  15.975 122.170 -0.27 -0.00    +0.000 A 
DOCKED: ATOM     20  C   UNL     1      40.866  15.240 122.817 -0.38 -0.00    +0.000 A 
DOCKED: ATOM     21  C   UNL     1      42.174  15.236 122.323 -0.42 -0.00    +0.000 A 
DOCKED: ATOM     22  CM  UNL     1      41.181  15.966 121.666 +0.00 -0.00    +0.000 AC
DOCKED: BRANCH  16  23
DOCKED: ATOM     23  C   UNL     1      44.930  16.706 121.344 -0.27 +0.00    +0.000 C 
DOCKED: ATOM     24  N   UNL     1      43.870  15.962 120.652 -0.26 -0.00    +0.000 N 
DOCKED: ATOM     25  C   UNL     1      44.207  15.218 119.432 -0.34 -0.00    +0.000 C 
DOCKED: ENDBRANCH  16  23
DOCKED: ENDBRANCH  14  19
DOCKED: ENDBRANCH   1  14
DOCKED: TORSDOF 7DOCKED: TER
DOCKED: ENDMDL
________________________________________________________________________________


	BEGINNING GENETIC ALGORITHM DOCKING 99 of 100
Run: 99 Seed: 40062589 872167480 [ Run 99 of 100 GA/GALS ]
Beginning LAMARCKIAN GENETIC ALGORITHM (LGA), with a maximum of 2500000 energy evaluations.

Final-Value: -15.370


	FINAL GENETIC ALGORITHM DOCKED STATE
	_______________________________________________


Detailed state:  trans 36.060 14.493 122.134 quatxyzw -0.671632 0.387975 -0.414526 -0.475976 center 1.179 0.138 -0.353 ntor 7 34.4304 134.9148 12.8177 125.4503 44.6818 -13.7255 171.9336
State:	 36.060  14.493 122.134  -0.764  0.441 -0.471 -123.154     34.43  134.91   12.82  125.45   44.68  -13.73  171.93

DOCKED: MODEL       99
DOCKED: USER    Run = 99
DOCKED: USER    DPF = ligand_dock.biased.dpf
DOCKED: USER  
DOCKED: USER    Estimated Free Energy of Binding    =  -11.59 kcal/mol  [=(1)+(2)+(3)-(4)]
DOCKED: USER    Estimated Inhibition Constant, Ki   =    3.18 nM (nanomolar)  [Temperature = 298.15 K]
DOCKED: USER    
DOCKED: USER    (1) Final Intermolecular Energy     =  -13.68 kcal/mol
DOCKED: USER        vdW + Hbond + desolv Energy     =  -13.68 kcal/mol
DOCKED: USER        Electrostatic Energy            =   +0.00 kcal/mol
DOCKED: USER    (2) Final Total Internal Energy     =   -1.69 kcal/mol
DOCKED: USER    (3) Torsional Free Energy           =   +2.09 kcal/mol
DOCKED: USER    (4) Unbound System's Energy  [=(2)] =   -1.69 kcal/mol
DOCKED: USER    
DOCKED: USER    
DOCKED: USER    NEWDPF move ligand.dum.pdbqt
DOCKED: USER    NEWDPF about 1.179000 0.138000 -0.353000
DOCKED: USER    NEWDPF tran0 36.059770 14.493050 122.133871
DOCKED: USER    NEWDPF quaternion0 -0.671632 0.387975 -0.414526 -0.475976
DOCKED: USER    NEWDPF axisangle0 -0.763689 0.441153 -0.471342 -123.154132
DOCKED: USER    NEWDPF quat0 -0.763689 0.441153 -0.471342 -123.154132
DOCKED: USER    NEWDPF dihe0 34.43 134.91 12.82 125.45 44.68 -13.73 171.93 
DOCKED: USER  keepresnum = 1 
DOCKED: USER  
DOCKED: REMARK  Name = 
DOCKED: REMARK  11 active torsions:
DOCKED: REMARK  status: ('A' for Active; 'I' for Inactive)
DOCKED: REMARK    1  A    between atoms: C_1  and  N_2
DOCKED: REMARK    2  A    between atoms: N_2  and  C_3
DOCKED: REMARK    3  A    between atoms: N_2  and  C_22
DOCKED: REMARK    4  A    between atoms: C_6  and  C_9
DOCKED: REMARK    5  A    between atoms: C_9  and  C_10
DOCKED: REMARK    6  A    between atoms: C_10  and  C_11
DOCKED: REMARK    7  A    between atoms: C_10  and  C_20
DOCKED: REMARK    8  A    between atoms: C_12  and  C_13
DOCKED: REMARK    9  A    between atoms: C_12  and  C_19
DOCKED: REMARK   10  A    between atoms: C_14  and  C_15
DOCKED: REMARK   11  A    between atoms: N_16  and  O_17
DOCKED: REMARK                            x       y       z     vdW  Elec       q    Type
DOCKED: REMARK                         _______ _______ _______ _____ _____    ______ ____
DOCKED: USER                              x       y       z     vdW  Elec       q    Type
DOCKED: USER                           _______ _______ _______ _____ _____    ______ ____
DOCKED: ROOT
DOCKED: ATOM      1  C   UNL     1      37.723  15.450 122.167 -0.32 -0.00    +0.000 C 
DOCKED: ATOM      2  C   UNL     1      39.148  16.000 122.043 -0.27 -0.00    +0.000 C 
DOCKED: ENDROOT
DOCKED: BRANCH   1   3
DOCKED: ATOM      3  C   UNL     1      37.748  13.941 122.290 -0.48 -0.00    +0.000 C 
DOCKED: ATOM      4  C   UNL     1      36.878  13.220 123.027 -0.59 -0.00    +0.000 C 
DOCKED: ATOM      5  C   UNL     1      35.779  13.880 123.832 -0.56 -0.00    +0.000 C 
DOCKED: BRANCH   4   6
DOCKED: ATOM      6  C   UNL     1      37.066  11.747 123.082 -0.66 -0.00    +0.000 C 
DOCKED: ATOM      7  C   UNL     1      36.701  10.923 122.088 -0.63 -0.00    +0.000 C 
DOCKED: BRANCH   7   8
DOCKED: ATOM      8  C   UNL     1      36.885   9.458 122.137 -0.66 -0.00    +0.000 C 
DOCKED: ATOM      9  N   UNL     1      36.844   8.719 123.365 -0.64 -0.00    +0.000 N 
DOCKED: ATOM     10  O   UNL     1      37.061   8.839 121.053 -2.70 -0.00    +0.000 OA
DOCKED: ATOM     11  H   UNL     1      36.605   9.177 124.204 -0.44 -0.00    +0.000 HD
DOCKED: BRANCH   9  12
DOCKED: ATOM     12  O   UNL     1      37.129   7.396 123.374 -2.12 -0.00    +0.000 OA
DOCKED: ATOM     13  H   UNL     1      37.815   7.208 122.714 -0.44 -0.00    +0.000 HD
DOCKED: ENDBRANCH   9  12
DOCKED: ENDBRANCH   7   8
DOCKED: ENDBRANCH   4   6
DOCKED: ENDBRANCH   1   3
DOCKED: BRANCH   1  14
DOCKED: ATOM     14  C   UNL     1      36.910  15.872 120.962 -0.21 -0.00    +0.000 C 
DOCKED: ATOM     15  O   UNL     1      36.002  16.735 121.114 -0.24 -0.00    +0.000 OA
DOCKED: BRANCH  14  19
DOCKED: ATOM     16  C   UNL     1      37.576  14.225 117.018 -0.30 -0.00    +0.000 A 
DOCKED: ATOM     17  C   UNL     1      37.868  15.573 117.307 -0.15 -0.00    +0.000 A 
DOCKED: ATOM     18  C   UNL     1      37.646  16.097 118.583 -0.13 -0.00    +0.000 A 
DOCKED: ATOM     19  C   UNL     1      37.134  15.290 119.612 -0.20 -0.00    +0.000 A 
DOCKED: ATOM     20  C   UNL     1      36.832  13.948 119.328 -0.29 -0.00    +0.000 A 
DOCKED: ATOM     21  C   UNL     1      37.051  13.422 118.051 -0.37 -0.00    +0.000 A 
DOCKED: ATOM     22  CM  UNL     1      37.351  14.760 118.317 +0.00 -0.00    +0.000 AC
DOCKED: BRANCH  16  23
DOCKED: ATOM     23  C   UNL     1      37.031  14.163 114.543 -0.31 -0.00    +0.000 C 
DOCKED: ATOM     24  N   UNL     1      37.806  13.679 115.693 -0.39 -0.00    +0.000 N 
DOCKED: ATOM     25  C   UNL     1      38.814  12.634 115.479 -0.58 -0.00    +0.000 C 
DOCKED: ENDBRANCH  16  23
DOCKED: ENDBRANCH  14  19
DOCKED: ENDBRANCH   1  14
DOCKED: TORSDOF 7DOCKED: TER
DOCKED: ENDMDL
________________________________________________________________________________


	BEGINNING GENETIC ALGORITHM DOCKING 100 of 100
Run: 100 Seed: 1754458418 960854535 [ Run 100 of 100 GA/GALS ]
Beginning LAMARCKIAN GENETIC ALGORITHM (LGA), with a maximum of 2500000 energy evaluations.

Final-Value: -14.661


	FINAL GENETIC ALGORITHM DOCKED STATE
	_______________________________________________


Detailed state:  trans 36.808 14.251 120.390 quatxyzw -0.340903 0.027232 -0.720199 -0.603619 center 1.179 0.138 -0.353 ntor 7 17.8261 -47.6397 -26.8014 -178.1683 97.5646 -101.5122 -80.1635
State:	 36.808  14.251 120.390  -0.428  0.034 -0.903 -105.741     17.83  -47.64  -26.80 -178.17   97.56 -101.51  -80.16

DOCKED: MODEL      100
DOCKED: USER    Run = 100
DOCKED: USER    DPF = ligand_dock.biased.dpf
DOCKED: USER  
DOCKED: USER    Estimated Free Energy of Binding    =  -11.05 kcal/mol  [=(1)+(2)+(3)-(4)]
DOCKED: USER    Estimated Inhibition Constant, Ki   =    7.92 nM (nanomolar)  [Temperature = 298.15 K]
DOCKED: USER    
DOCKED: USER    (1) Final Intermolecular Energy     =  -13.14 kcal/mol
DOCKED: USER        vdW + Hbond + desolv Energy     =  -13.14 kcal/mol
DOCKED: USER        Electrostatic Energy            =   +0.00 kcal/mol
DOCKED: USER    (2) Final Total Internal Energy     =   -1.52 kcal/mol
DOCKED: USER    (3) Torsional Free Energy           =   +2.09 kcal/mol
DOCKED: USER    (4) Unbound System's Energy  [=(2)] =   -1.52 kcal/mol
DOCKED: USER    
DOCKED: USER    
DOCKED: USER    NEWDPF move ligand.dum.pdbqt
DOCKED: USER    NEWDPF about 1.179000 0.138000 -0.353000
DOCKED: USER    NEWDPF tran0 36.807576 14.251496 120.390499
DOCKED: USER    NEWDPF quaternion0 -0.340903 0.027232 -0.720199 -0.603619
DOCKED: USER    NEWDPF axisangle0 -0.427587 0.034157 -0.903329 -105.740891
DOCKED: USER    NEWDPF quat0 -0.427587 0.034157 -0.903329 -105.740891
DOCKED: USER    NEWDPF dihe0 17.83 -47.64 -26.80 -178.17 97.56 -101.51 -80.16 
DOCKED: USER  keepresnum = 1 
DOCKED: USER  
DOCKED: REMARK  Name = 
DOCKED: REMARK  11 active torsions:
DOCKED: REMARK  status: ('A' for Active; 'I' for Inactive)
DOCKED: REMARK    1  A    between atoms: C_1  and  N_2
DOCKED: REMARK    2  A    between atoms: N_2  and  C_3
DOCKED: REMARK    3  A    between atoms: N_2  and  C_22
DOCKED: REMARK    4  A    between atoms: C_6  and  C_9
DOCKED: REMARK    5  A    between atoms: C_9  and  C_10
DOCKED: REMARK    6  A    between atoms: C_10  and  C_11
DOCKED: REMARK    7  A    between atoms: C_10  and  C_20
DOCKED: REMARK    8  A    between atoms: C_12  and  C_13
DOCKED: REMARK    9  A    between atoms: C_12  and  C_19
DOCKED: REMARK   10  A    between atoms: C_14  and  C_15
DOCKED: REMARK   11  A    between atoms: N_16  and  O_17
DOCKED: REMARK                            x       y       z     vdW  Elec       q    Type
DOCKED: REMARK                         _______ _______ _______ _____ _____    ______ ____
DOCKED: USER                              x       y       z     vdW  Elec       q    Type
DOCKED: USER                           _______ _______ _______ _____ _____    ______ ____
DOCKED: ROOT
DOCKED: ATOM      1  C   UNL     1      37.375  15.313 121.886 -0.31 -0.00    +0.000 C 
DOCKED: ATOM      2  C   UNL     1      38.005  15.950 123.129 -0.32 -0.00    +0.000 C 
DOCKED: ENDROOT
DOCKED: BRANCH   1   3
DOCKED: ATOM      3  C   UNL     1      37.280  13.810 122.052 -0.46 -0.00    +0.000 C 
DOCKED: ATOM      4  C   UNL     1      36.623  13.192 123.055 -0.59 -0.00    +0.000 C 
DOCKED: ATOM      5  C   UNL     1      35.916  13.972 124.143 -0.48 -0.00    +0.000 C 
DOCKED: BRANCH   4   6
DOCKED: ATOM      6  C   UNL     1      36.665  11.707 123.103 -0.69 -0.00    +0.000 C 
DOCKED: ATOM      7  C   UNL     1      36.940  10.947 122.033 -0.57 -0.00    +0.000 C 
DOCKED: BRANCH   7   8
DOCKED: ATOM      8  C   UNL     1      36.983   9.470 122.074 -0.64 -0.00    +0.000 C 
DOCKED: ATOM      9  N   UNL     1      36.912   8.734 123.302 -0.65 -0.00    +0.000 N 
DOCKED: ATOM     10  O   UNL     1      37.060   8.842 120.984 -2.71 -0.00    +0.000 OA
DOCKED: ATOM     11  H   UNL     1      36.749   9.208 124.149 -0.49 -0.00    +0.000 HD
DOCKED: BRANCH   9  12
DOCKED: ATOM     12  O   UNL     1      37.068   7.389 123.299 -2.15 -0.00    +0.000 OA
DOCKED: ATOM     13  H   UNL     1      37.490   7.114 122.470 -0.24 -0.00    +0.000 HD
DOCKED: ENDBRANCH   9  12
DOCKED: ENDBRANCH   7   8
DOCKED: ENDBRANCH   4   6
DOCKED: ENDBRANCH   1   3
DOCKED: BRANCH   1  14
DOCKED: ATOM     14  C   UNL     1      38.199  15.661 120.665 -0.22 -0.00    +0.000 C 
DOCKED: ATOM     15  O   UNL     1      39.212  16.401 120.807 -0.15 -0.00    +0.000 OA
DOCKED: BRANCH  14  19
DOCKED: ATOM     16  C   UNL     1      37.174  14.206 116.723 -0.31 -0.00    +0.000 A 
DOCKED: ATOM     17  C   UNL     1      37.448  13.318 117.783 -0.36 -0.00    +0.000 A 
DOCKED: ATOM     18  C   UNL     1      37.781  13.797 119.052 -0.29 -0.00    +0.000 A 
DOCKED: ATOM     19  C   UNL     1      37.845  15.177 119.305 -0.20 -0.00    +0.000 A 
DOCKED: ATOM     20  C   UNL     1      37.582  16.068 118.250 -0.13 -0.00    +0.000 A 
DOCKED: ATOM     21  C   UNL     1      37.251  15.589 116.979 -0.15 -0.00    +0.000 A 
DOCKED: ATOM     22  CM  UNL     1      37.514  14.692 118.016 +0.00 -0.00    +0.000 AC
DOCKED: BRANCH  16  23
DOCKED: ATOM     23  C   UNL     1      35.476  13.901 114.865 -0.27 -0.00    +0.000 C 
DOCKED: ATOM     24  N   UNL     1      36.828  13.709 115.404 -0.34 -0.00    +0.000 N 
DOCKED: ATOM     25  C   UNL     1      37.823  13.004 114.586 -0.42 -0.00    +0.000 C 
DOCKED: ENDBRANCH  16  23
DOCKED: ENDBRANCH  14  19
DOCKED: ENDBRANCH   1  14
DOCKED: TORSDOF 7DOCKED: TER
DOCKED: ENDMDL
________________________________________________________________________________

DPF> analysis                             # perform a ranked cluster analysis


		CLUSTER ANALYSIS OF CONFORMATIONS
		_________________________________

Number of conformations = 100

RMSD cluster analysis will be performed using the ligand atoms only (25 / 25 total atoms).

Outputting structurally similar clusters, ranked in order of increasing energy.


________________________________________________________________________________

Number of distinct conformational clusters found = 7,  out of 100 runs,
Using an rmsd-tolerance of 2.0 A


	CLUSTERING HISTOGRAM
	____________________

________________________________________________________________________________
     |           |     |           |     |                                    
Clus | Lowest    | Run | Mean      | Num | Histogram                          
-ter | Binding   |     | Binding   | in  |                                    
Rank | Energy    |     | Energy    | Clus|    5    10   15   20   25   30   35
_____|___________|_____|___________|_____|____:____|____:____|____:____|____:___
   1 |    -11.73 |  63 |    -11.12 |  23 |#######################
   2 |    -11.60 |  23 |    -11.15 |  51 |###################################################
   3 |    -11.38 |  13 |    -10.95 |  21 |#####################
   4 |    -11.15 |  58 |    -10.95 |   2 |##
   5 |    -10.71 |  56 |    -10.71 |   1 |#
   6 |    -10.22 |   4 |    -10.22 |   1 |#
   7 |    -10.09 |  20 |    -10.09 |   1 |#
_____|___________|_____|___________|_____|______________________________________


Number of multi-member conformational clusters found = 4, out of 100 runs.

	RMSD TABLE
	__________

_____________________________________________________________________
     |      |      |           |         |                 |
Rank | Sub- | Run  | Binding   | Cluster | Reference       | Grep
     | Rank |      | Energy    | RMSD    | RMSD            | Pattern
_____|______|______|___________|_________|_________________|___________
   1      1     63      -11.73      0.00    127.64           RANKING
   1      2     75      -11.57      0.50    127.87           RANKING
   1      3      8      -11.55      0.39    127.82           RANKING
   1      4     88      -11.45      0.73    127.97           RANKING
   1      5     97      -11.42      1.62    128.51           RANKING
   1      6     61      -11.36      0.35    127.76           RANKING
   1      7     55      -11.36      0.50    127.90           RANKING
   1      8     93      -11.36      0.33    127.54           RANKING
   1      9     82      -11.35      0.26    127.67           RANKING
   1     10     64      -11.25      0.42    127.79           RANKING
   1     11     15      -11.20      1.01    127.78           RANKING
   1     12     81      -11.19      1.01    127.87           RANKING
   1     13     59      -11.19      1.07    127.83           RANKING
   1     14     66      -11.17      0.51    127.76           RANKING
   1     15     48      -11.11      0.80    127.67           RANKING
   1     16     77      -10.93      1.11    126.80           RANKING
   1     17     45      -10.78      1.13    128.05           RANKING
   1     18     33      -10.77      1.02    127.90           RANKING
   1     19     80      -10.68      0.93    127.69           RANKING
   1     20     35      -10.67      1.42    128.55           RANKING
   1     21     43      -10.62      0.96    127.47           RANKING
   1     22     36      -10.56      1.64    128.45           RANKING
   1     23     62      -10.44      0.96    127.96           RANKING
   2      1     23      -11.60      0.00    124.96           RANKING
   2      2     99      -11.59      0.43    125.04           RANKING
   2      3     37      -11.58      0.21    125.08           RANKING
   2      4     90      -11.57      0.42    125.04           RANKING
   2      5     83      -11.56      0.37    125.22           RANKING
   2      6     32      -11.56      0.32    125.03           RANKING
   2      7     57      -11.55      0.25    124.85           RANKING
   2      8     73      -11.54      0.21    125.08           RANKING
   2      9     21      -11.50      0.27    124.87           RANKING
   2     10     94      -11.49      0.23    124.96           RANKING
   2     11     79      -11.47      0.54    125.02           RANKING
   2     12     24      -11.46      0.26    124.90           RANKING
   2     13     38      -11.41      0.87    125.27           RANKING
   2     14     27      -11.39      0.40    124.76           RANKING
   2     15     41      -11.37      0.50    124.89           RANKING
   2     16      5      -11.33      0.95    125.30           RANKING
   2     17     30      -11.32      0.81    125.19           RANKING
   2     18     74      -11.31      1.52    124.83           RANKING
   2     19     26      -11.30      0.78    125.12           RANKING
   2     20     31      -11.29      0.87    125.09           RANKING
   2     21     14      -11.29      0.53    125.00           RANKING
   2     22     71      -11.27      1.53    125.12           RANKING
   2     23     87      -11.26      1.51    124.93           RANKING
   2     24     51      -11.22      0.35    125.07           RANKING
   2     25     52      -11.21      0.72    125.13           RANKING
   2     26     70      -11.17      0.47    124.68           RANKING
   2     27     29      -11.17      0.31    125.08           RANKING
   2     28     44      -11.16      0.76    125.04           RANKING
   2     29     34      -11.16      1.56    124.96           RANKING
   2     30     67      -11.09      0.63    124.94           RANKING
   2     31      1      -11.08      1.39    124.93           RANKING
   2     32    100      -11.05      0.91    124.91           RANKING
   2     33     18      -11.03      0.72    124.97           RANKING
   2     34     78      -11.02      0.98    124.90           RANKING
   2     35     47      -11.00      0.63    124.66           RANKING
   2     36     42      -10.97      1.36    125.01           RANKING
   2     37     22      -10.96      1.36    124.87           RANKING
   2     38     86      -10.95      0.79    125.02           RANKING
   2     39      3      -10.94      1.29    124.89           RANKING
   2     40     50      -10.93      0.79    124.75           RANKING
   2     41     76      -10.87      1.03    125.40           RANKING
   2     42      2      -10.86      0.86    125.02           RANKING
   2     43     11      -10.84      1.03    124.94           RANKING
   2     44     89      -10.76      1.16    124.98           RANKING
   2     45     16      -10.74      1.35    124.42           RANKING
   2     46     92      -10.73      0.63    124.87           RANKING
   2     47     46      -10.65      0.87    124.93           RANKING
   2     48     25      -10.64      1.17    125.22           RANKING
   2     49      9      -10.61      0.66    125.24           RANKING
   2     50     53      -10.37      0.80    125.03           RANKING
   2     51     40      -10.23      0.76    125.01           RANKING
   3      1     13      -11.38      0.00    127.79           RANKING
   3      2     10      -11.35      0.44    127.72           RANKING
   3      3     19      -11.33      0.43    127.59           RANKING
   3      4     39      -11.32      0.63    127.58           RANKING
   3      5     60      -11.16      0.70    127.40           RANKING
   3      6     68      -11.15      0.71    127.31           RANKING
   3      7     91      -11.15      0.71    127.31           RANKING
   3      8     65      -11.15      0.25    127.69           RANKING
   3      9      6      -11.08      1.18    127.56           RANKING
   3     10     95      -11.07      0.80    127.29           RANKING
   3     11     12      -11.06      0.79    127.36           RANKING
   3     12     54      -10.94      0.76    127.49           RANKING
   3     13     49      -10.93      1.25    126.97           RANKING
   3     14     69      -10.91      0.59    127.70           RANKING
   3     15     84      -10.73      1.06    127.02           RANKING
   3     16     17      -10.72      1.53    127.20           RANKING
   3     17      7      -10.67      1.10    127.01           RANKING
   3     18     72      -10.53      0.84    127.43           RANKING
   3     19     85      -10.49      1.32    127.17           RANKING
   3     20     98      -10.46      1.12    126.99           RANKING
   3     21     96      -10.35      1.76    128.10           RANKING
   4      1     58      -11.15      0.00    128.44           RANKING
   4      2     28      -10.75      1.97    127.78           RANKING
   5      1     56      -10.71      0.00    125.98           RANKING
   6      1      4      -10.22      0.00    126.98           RANKING
   7      1     20      -10.09      0.00    128.14           RANKING
_______________________________________________________________________



	INFORMATION ENTROPY ANALYSIS FOR THIS CLUSTERING
	________________________________________________


Information entropy for this clustering = 0.27  (rmstol = 2.00 Angstrom)

_______________________________________________________________________


	STATISTICAL MECHANICAL ANALYSIS
	_______________________________


Partition function, Q =   101.89            at Temperature, T = 298.15 K
Free energy,        A ~ -2739.55 kcal/mol   at Temperature, T = 298.15 K
Internal energy,    U =   -11.07 kcal/mol   at Temperature, T = 298.15 K
Entropy,            S =     9.15 kcal/mol/K at Temperature, T = 298.15 K

_______________________________________________________________________


	LOWEST ENERGY DOCKED CONFORMATION from EACH CLUSTER
	___________________________________________________



Keeping original residue number (specified in the input PDBQ file) for outputting.

MODEL       63
USER    Run = 63
USER    Cluster Rank = 1
USER    Number of conformations in this cluster = 23
USER  
USER    RMSD from reference structure       = 127.643 A
USER  
USER    Estimated Free Energy of Binding    =  -11.73 kcal/mol  [=(1)+(2)+(3)-(4)]
USER    Estimated Inhibition Constant, Ki   =    2.51 nM (nanomolar)  [Temperature = 298.15 K]
USER    
USER    (1) Final Intermolecular Energy     =  -13.82 kcal/mol
USER        vdW + Hbond + desolv Energy     =  -13.82 kcal/mol
USER        Electrostatic Energy            =   +0.00 kcal/mol
USER    (2) Final Total Internal Energy     =   -1.41 kcal/mol
USER    (3) Torsional Free Energy           =   +2.09 kcal/mol
USER    (4) Unbound System's Energy  [=(2)] =   -1.41 kcal/mol
USER    
USER    
USER  
USER    DPF = ligand_dock.biased.dpf
USER    NEWDPF move	ligand.dum.pdbqt
USER    NEWDPF about	1.179000 0.138000 -0.353000
USER    NEWDPF tran0	36.510341 14.472703 123.543145
USER    NEWDPF axisangle0	0.760939 -0.640286 0.104906 137.571708
USER    NEWDPF quaternion0	0.709374 -0.596897 0.097797 0.361855
USER    NEWDPF dihe0	9.55 -134.41 135.88 -131.50 -100.68 148.97 -37.28 
USER  
USER                              x       y       z    vdW   Elec        q     RMS 
ATOM      1  C   UNL     1      37.855  15.470 122.605 -0.35 -0.00    +0.000    127.643
ATOM      2  C   UNL     1      38.869  16.097 121.642 -0.23 -0.00    +0.000    127.643
ATOM      3  C   UNL     1      37.766  13.975 122.379 -0.48 -0.00    +0.000    127.643
ATOM      4  C   UNL     1      37.559  13.395 121.179 -0.46 -0.00    +0.000    127.643
ATOM      5  C   UNL     1      37.378  14.213 119.919 -0.34 -0.00    +0.000    127.643
ATOM      6  C   UNL     1      37.448  11.913 121.133 -0.49 -0.00    +0.000    127.643
ATOM      7  C   UNL     1      37.054  11.175 122.181 -0.56 -0.00    +0.000    127.643
ATOM      8  C   UNL     1      36.943   9.702 122.142 -0.63 -0.00    +0.000    127.643
ATOM      9  N   UNL     1      37.062   8.891 123.318 -0.63 -0.00    +0.000    127.643
ATOM     10  O   UNL     1      36.710   9.148 121.034 -2.61 -0.00    +0.000    127.643
ATOM     11  H   UNL     1      37.141   9.318 124.202 -0.59 -0.00    +0.000    127.643
ATOM     12  O   UNL     1      37.065   7.541 123.217 -2.24 -0.00    +0.000    127.643
ATOM     13  H   UNL     1      37.131   7.286 122.283 -0.10 -0.00    +0.000    127.643
ATOM     14  C   UNL     1      36.502  16.119 122.408 -0.30 -0.00    +0.000    127.643
ATOM     15  O   UNL     1      36.109  16.360 121.233 -0.24 -0.00    +0.000    127.643
ATOM     16  C   UNL     1      33.979  17.266 125.729 -0.37 -0.00    +0.000    127.643
ATOM     17  C   UNL     1      34.745  18.220 125.027 -0.30 -0.00    +0.000    127.643
ATOM     18  C   UNL     1      35.559  17.839 123.958 -0.27 -0.00    +0.000    127.643
ATOM     19  C   UNL     1      35.630  16.497 123.551 -0.35 -0.00    +0.000    127.643
ATOM     20  C   UNL     1      34.877  15.540 124.252 -0.51 -0.00    +0.000    127.643
ATOM     21  C   UNL     1      34.063  15.919 125.324 -0.44 -0.00    +0.000    127.643
ATOM     22  CM  UNL     1      34.809  16.880 124.640 -0.25 -0.00    +0.000    127.643
ATOM     23  C   UNL     1      32.613  19.031 126.933 -0.28 -0.00    +0.000    127.643
ATOM     24  N   UNL     1      33.133  17.661 126.840 -0.34 -0.00    +0.000    127.643
ATOM     25  C   UNL     1      32.784  16.698 127.892 -0.45 -0.00    +0.000    127.643
TER
ENDMDL
MODEL       23
USER    Run = 23
USER    Cluster Rank = 2
USER    Number of conformations in this cluster = 51
USER  
USER    RMSD from reference structure       = 124.963 A
USER  
USER    Estimated Free Energy of Binding    =  -11.60 kcal/mol  [=(1)+(2)+(3)-(4)]
USER    Estimated Inhibition Constant, Ki   =    3.15 nM (nanomolar)  [Temperature = 298.15 K]
USER    
USER    (1) Final Intermolecular Energy     =  -13.69 kcal/mol
USER        vdW + Hbond + desolv Energy     =  -13.69 kcal/mol
USER        Electrostatic Energy            =   +0.00 kcal/mol
USER    (2) Final Total Internal Energy     =   -1.86 kcal/mol
USER    (3) Torsional Free Energy           =   +2.09 kcal/mol
USER    (4) Unbound System's Energy  [=(2)] =   -1.86 kcal/mol
USER    
USER    
USER  
USER    DPF = ligand_dock.biased.dpf
USER    NEWDPF move	ligand.dum.pdbqt
USER    NEWDPF about	1.179000 0.138000 -0.353000
USER    NEWDPF tran0	36.187586 14.624011 121.942076
USER    NEWDPF axisangle0	-0.705623 0.481973 -0.519421 -128.772359
USER    NEWDPF quaternion0	-0.636280 0.434609 -0.468377 -0.432303
USER    NEWDPF dihe0	20.87 105.16 -42.53 173.85 -121.57 -19.23 170.60 
USER  
USER                              x       y       z    vdW   Elec        q     RMS 
ATOM      1  C   UNL     1      37.993  15.273 121.994 -0.33 -0.00    +0.000    124.963
ATOM      2  C   UNL     1      39.495  15.559 121.892 -0.32 -0.00    +0.000    124.963
ATOM      3  C   UNL     1      37.747  13.787 122.156 -0.48 -0.00    +0.000    124.963
ATOM      4  C   UNL     1      36.816  13.252 122.972 -0.58 -0.00    +0.000    124.963
ATOM      5  C   UNL     1      35.920  14.116 123.833 -0.56 -0.00    +0.000    124.963
ATOM      6  C   UNL     1      36.732  11.770 123.054 -0.68 -0.00    +0.000    124.963
ATOM      7  C   UNL     1      37.066  10.960 122.039 -0.54 -0.00    +0.000    124.963
ATOM      8  C   UNL     1      36.985   9.486 122.114 -0.64 -0.00    +0.000    124.963
ATOM      9  N   UNL     1      37.047   8.776 123.358 -0.64 -0.00    +0.000    124.963
ATOM     10  O   UNL     1      36.831   8.839 121.044 -2.64 -0.00    +0.000    124.963
ATOM     11  H   UNL     1      37.063   9.276 124.207 -0.58 -0.00    +0.000    124.963
ATOM     12  O   UNL     1      37.081   7.423 123.369 -2.15 -0.00    +0.000    124.963
ATOM     13  H   UNL     1      37.385   7.100 122.506 -0.21 -0.00    +0.000    124.963
ATOM     14  C   UNL     1      37.293  15.795 120.757 -0.22 -0.00    +0.000    124.963
ATOM     15  O   UNL     1      36.529  16.794 120.868 -0.20 -0.00    +0.000    124.963
ATOM     16  C   UNL     1      37.747  13.913 116.889 -0.33 -0.00    +0.000    124.963
ATOM     17  C   UNL     1      36.856  13.400 117.853 -0.35 -0.00    +0.000    124.963
ATOM     18  C   UNL     1      36.718  14.013 119.100 -0.30 -0.00    +0.000    124.963
ATOM     19  C   UNL     1      37.461  15.160 119.423 -0.21 -0.00    +0.000    124.963
ATOM     20  C   UNL     1      38.359  15.672 118.471 -0.15 -0.00    +0.000    124.963
ATOM     21  C   UNL     1      38.499  15.058 117.222 -0.18 -0.00    +0.000    124.963
ATOM     22  CM  UNL     1      37.607  14.536 118.160 +0.00 -0.00    +0.000    124.963
ATOM     23  C   UNL     1      38.961  12.300 115.355 -0.57 -0.00    +0.000    124.963
ATOM     24  N   UNL     1      37.892  13.277 115.592 -0.44 -0.00    +0.000    124.963
ATOM     25  C   UNL     1      36.972  13.602 114.495 -0.37 -0.00    +0.000    124.963
TER
ENDMDL
MODEL       13
USER    Run = 13
USER    Cluster Rank = 3
USER    Number of conformations in this cluster = 21
USER  
USER    RMSD from reference structure       = 127.793 A
USER  
USER    Estimated Free Energy of Binding    =  -11.38 kcal/mol  [=(1)+(2)+(3)-(4)]
USER    Estimated Inhibition Constant, Ki   =    4.58 nM (nanomolar)  [Temperature = 298.15 K]
USER    
USER    (1) Final Intermolecular Energy     =  -13.46 kcal/mol
USER        vdW + Hbond + desolv Energy     =  -13.46 kcal/mol
USER        Electrostatic Energy            =   +0.00 kcal/mol
USER    (2) Final Total Internal Energy     =   -1.39 kcal/mol
USER    (3) Torsional Free Energy           =   +2.09 kcal/mol
USER    (4) Unbound System's Energy  [=(2)] =   -1.39 kcal/mol
USER    
USER    
USER  
USER    DPF = ligand_dock.biased.dpf
USER    NEWDPF move	ligand.dum.pdbqt
USER    NEWDPF about	1.179000 0.138000 -0.353000
USER    NEWDPF tran0	39.485935 14.231553 122.019892
USER    NEWDPF axisangle0	-0.377102 0.633456 0.675668 134.081353
USER    NEWDPF quaternion0	-0.347229 0.583275 0.622143 0.390078
USER    NEWDPF dihe0	8.56 -157.10 -28.59 165.79 136.32 152.02 -40.75 
USER  
USER                              x       y       z    vdW   Elec        q     RMS 
ATOM      1  C   UNL     1      37.944  15.323 121.681 -0.30 -0.00    +0.000    127.793
ATOM      2  C   UNL     1      36.590  16.036 121.605 -0.23 -0.00    +0.000    127.793
ATOM      3  C   UNL     1      37.749  13.841 121.925 -0.46 -0.00    +0.000    127.793
ATOM      4  C   UNL     1      36.944  13.323 122.875 -0.57 -0.00    +0.000    127.793
ATOM      5  C   UNL     1      36.155  14.205 123.819 -0.54 -0.00    +0.000    127.793
ATOM      6  C   UNL     1      36.899  11.844 123.018 -0.67 -0.00    +0.000    127.793
ATOM      7  C   UNL     1      36.953  11.005 121.973 -0.57 -0.00    +0.000    127.793
ATOM      8  C   UNL     1      36.908   9.534 122.108 -0.65 -0.00    +0.000    127.793
ATOM      9  N   UNL     1      37.025   8.876 123.376 -0.62 -0.00    +0.000    127.793
ATOM     10  O   UNL     1      36.737   8.842 121.069 -2.63 -0.00    +0.000    127.793
ATOM     11  H   UNL     1      37.056   9.408 124.204 -0.58 -0.00    +0.000    127.793
ATOM     12  O   UNL     1      37.092   7.525 123.438 -2.19 -0.00    +0.000    127.793
ATOM     13  H   UNL     1      37.185   7.164 122.543 -0.13 -0.00    +0.000    127.793
ATOM     14  C   UNL     1      38.778  15.938 122.785 -0.31 -0.00    +0.000    127.793
ATOM     15  O   UNL     1      38.205  16.293 123.852 -0.32 -0.00    +0.000    127.793
ATOM     16  C   UNL     1      43.040  16.528 122.347 -0.36 -0.00    +0.000    127.793
ATOM     17  C   UNL     1      42.344  15.599 121.547 -0.32 -0.00    +0.000    127.793
ATOM     18  C   UNL     1      40.968  15.413 121.699 -0.32 -0.00    +0.000    127.793
ATOM     19  C   UNL     1      40.243  16.153 122.647 -0.30 -0.00    +0.000    127.793
ATOM     20  C   UNL     1      40.932  17.074 123.453 -0.30 -0.00    +0.000    127.793
ATOM     21  C   UNL     1      42.310  17.260 123.304 -0.33 -0.00    +0.000    127.793
ATOM     22  CM  UNL     1      41.639  16.337 122.500 +0.00 -0.00    +0.000    127.793
ATOM     23  C   UNL     1      45.214  15.992 121.157 -0.21 +0.00    +0.000    127.793
ATOM     24  N   UNL     1      44.470  16.722 122.191 -0.33 -0.00    +0.000    127.793
ATOM     25  C   UNL     1      45.198  17.651 123.064 -0.27 -0.00    +0.000    127.793
TER
ENDMDL
MODEL       58
USER    Run = 58
USER    Cluster Rank = 4
USER    Number of conformations in this cluster = 2
USER  
USER    RMSD from reference structure       = 128.439 A
USER  
USER    Estimated Free Energy of Binding    =  -11.15 kcal/mol  [=(1)+(2)+(3)-(4)]
USER    Estimated Inhibition Constant, Ki   =    6.76 nM (nanomolar)  [Temperature = 298.15 K]
USER    
USER    (1) Final Intermolecular Energy     =  -13.23 kcal/mol
USER        vdW + Hbond + desolv Energy     =  -13.23 kcal/mol
USER        Electrostatic Energy            =   +0.00 kcal/mol
USER    (2) Final Total Internal Energy     =   -1.46 kcal/mol
USER    (3) Torsional Free Energy           =   +2.09 kcal/mol
USER    (4) Unbound System's Energy  [=(2)] =   -1.46 kcal/mol
USER    
USER    
USER  
USER    DPF = ligand_dock.biased.dpf
USER    NEWDPF move	ligand.dum.pdbqt
USER    NEWDPF about	1.179000 0.138000 -0.353000
USER    NEWDPF tran0	35.640842 14.546953 125.340338
USER    NEWDPF axisangle0	-0.723731 0.637692 0.263746 -173.500834
USER    NEWDPF quaternion0	-0.722567 0.636667 0.263322 -0.056686
USER    NEWDPF dihe0	2.98 134.28 -89.79 22.37 152.91 -84.15 36.67 
USER  
USER                              x       y       z    vdW   Elec        q     RMS 
ATOM      1  C   UNL     1      35.514  15.650 123.774 -0.49 -0.00    +0.000    128.439
ATOM      2  C   UNL     1      35.231  16.338 122.435 -0.24 -0.00    +0.000    128.439
ATOM      3  C   UNL     1      35.497  14.144 123.609 -0.50 -0.00    +0.000    128.439
ATOM      4  C   UNL     1      36.484  13.427 123.035 -0.56 -0.00    +0.000    128.439
ATOM      5  C   UNL     1      37.725  14.088 122.473 -0.48 -0.00    +0.000    128.439
ATOM      6  C   UNL     1      36.293  11.959 122.906 -0.67 -0.00    +0.000    128.439
ATOM      7  C   UNL     1      37.199  11.149 122.338 -0.41 -0.00    +0.000    128.439
ATOM      8  C   UNL     1      37.014   9.689 122.206 -0.61 -0.00    +0.000    128.439
ATOM      9  N   UNL     1      37.083   8.801 123.329 -0.64 -0.00    +0.000    128.439
ATOM     10  O   UNL     1      36.765   9.217 121.064 -2.64 -0.00    +0.000    128.439
ATOM     11  H   UNL     1      37.175   9.168 124.239 -0.58 -0.00    +0.000    128.439
ATOM     12  O   UNL     1      37.020   7.462 123.144 -2.20 -0.00    +0.000    128.439
ATOM     13  H   UNL     1      36.977   7.268 122.195 -0.08 -0.00    +0.000    128.439
ATOM     14  C   UNL     1      34.484  16.084 124.795 -0.54 -0.00    +0.000    128.439
ATOM     15  O   UNL     1      33.692  15.219 125.264 -0.60 -0.00    +0.000    128.439
ATOM     16  C   UNL     1      34.169  20.199 126.087 -0.17 -0.00    +0.000    128.439
ATOM     17  C   UNL     1      35.186  19.785 125.203 -0.18 -0.00    +0.000    128.439
ATOM     18  C   UNL     1      35.282  18.453 124.794 -0.25 -0.00    +0.000    128.439
ATOM     19  C   UNL     1      34.362  17.494 125.248 -0.37 -0.00    +0.000    128.439
ATOM     20  C   UNL     1      33.351  17.899 126.137 -0.28 -0.00    +0.000    128.439
ATOM     21  C   UNL     1      33.256  19.231 126.549 -0.24 -0.00    +0.000    128.439
ATOM     22  CM  UNL     1      34.268  18.843 125.670 -0.13 -0.00    +0.000    128.439
ATOM     23  C   UNL     1      35.116  22.185 127.348 -0.06 -0.00    +0.000    128.439
ATOM     24  N   UNL     1      34.069  21.584 126.513 -0.14 -0.00    +0.000    128.439
ATOM     25  C   UNL     1      32.919  22.405 126.119 -0.20 -0.00    +0.000    128.439
TER
ENDMDL
MODEL       56
USER    Run = 56
USER    Cluster Rank = 5
USER    Number of conformations in this cluster = 1
USER  
USER    RMSD from reference structure       = 125.977 A
USER  
USER    Estimated Free Energy of Binding    =  -10.71 kcal/mol  [=(1)+(2)+(3)-(4)]
USER    Estimated Inhibition Constant, Ki   =   14.15 nM (nanomolar)  [Temperature = 298.15 K]
USER    
USER    (1) Final Intermolecular Energy     =  -12.80 kcal/mol
USER        vdW + Hbond + desolv Energy     =  -12.80 kcal/mol
USER        Electrostatic Energy            =   +0.00 kcal/mol
USER    (2) Final Total Internal Energy     =   -0.93 kcal/mol
USER    (3) Torsional Free Energy           =   +2.09 kcal/mol
USER    (4) Unbound System's Energy  [=(2)] =   -0.93 kcal/mol
USER    
USER    
USER  
USER    DPF = ligand_dock.biased.dpf
USER    NEWDPF move	ligand.dum.pdbqt
USER    NEWDPF about	1.179000 0.138000 -0.353000
USER    NEWDPF tran0	38.423372 14.246767 120.830238
USER    NEWDPF axisangle0	-0.092900 -0.243003 -0.965567 -108.780297
USER    NEWDPF quaternion0	-0.075527 -0.197561 -0.785006 -0.582263
USER    NEWDPF dihe0	39.94 33.36 -27.29 157.13 -17.75 -117.87 -51.25 
USER  
USER                              x       y       z    vdW   Elec        q     RMS 
ATOM      1  C   UNL     1      37.854  15.342 122.300 -0.34 -0.00    +0.000    125.977
ATOM      2  C   UNL     1      37.506  16.013 123.633 -0.26 -0.00    +0.000    125.977
ATOM      3  C   UNL     1      37.705  13.839 122.410 -0.49 -0.00    +0.000    125.977
ATOM      4  C   UNL     1      36.693  13.216 123.049 -0.59 -0.00    +0.000    125.977
ATOM      5  C   UNL     1      35.594  13.991 123.745 -0.54 -0.00    +0.000    125.977
ATOM      6  C   UNL     1      36.716  11.731 123.108 -0.69 -0.00    +0.000    125.977
ATOM      7  C   UNL     1      36.980  10.959 122.043 -0.56 -0.00    +0.000    125.977
ATOM      8  C   UNL     1      37.005   9.483 122.095 -0.63 -0.00    +0.000    125.977
ATOM      9  N   UNL     1      36.939   8.757 123.329 -0.64 -0.00    +0.000    125.977
ATOM     10  O   UNL     1      37.062   8.845 121.009 -2.70 -0.00    +0.000    125.977
ATOM     11  H   UNL     1      36.790   9.240 124.175 -0.50 -0.00    +0.000    125.977
ATOM     12  O   UNL     1      37.077   7.410 123.335 -2.15 -0.00    +0.000    125.977
ATOM     13  H   UNL     1      37.770   7.153 122.707 -0.43 -0.00    +0.000    125.977
ATOM     14  C   UNL     1      39.269  15.707 121.903 -0.30 -0.00    +0.000    125.977
ATOM     15  O   UNL     1      40.101  15.985 122.810 -0.36 -0.00    +0.000    125.977
ATOM     16  C   UNL     1      40.579  15.894 117.786 -0.13 -0.00    +0.000    125.977
ATOM     17  C   UNL     1      41.485  16.070 118.851 -0.12 -0.00    +0.000    125.977
ATOM     18  C   UNL     1      41.052  16.011 120.178 -0.14 -0.00    +0.000    125.977
ATOM     19  C   UNL     1      39.703  15.768 120.483 -0.18 -0.00    +0.000    125.977
ATOM     20  C   UNL     1      38.792  15.601 119.425 -0.16 -0.00    +0.000    125.977
ATOM     21  C   UNL     1      39.224  15.661 118.097 -0.13 -0.00    +0.000    125.977
ATOM     22  CM  UNL     1      40.139  15.835 119.137 +0.00 -0.00    +0.000    125.977
ATOM     23  C   UNL     1      40.057  16.054 115.309 -0.22 -0.00    +0.000    125.977
ATOM     24  N   UNL     1      41.028  15.955 116.406 -0.23 -0.00    +0.000    125.977
ATOM     25  C   UNL     1      42.459  15.916 116.084 -0.29 -0.00    +0.000    125.977
TER
ENDMDL
MODEL        4
USER    Run = 4
USER    Cluster Rank = 6
USER    Number of conformations in this cluster = 1
USER  
USER    RMSD from reference structure       = 126.981 A
USER  
USER    Estimated Free Energy of Binding    =  -10.22 kcal/mol  [=(1)+(2)+(3)-(4)]
USER    Estimated Inhibition Constant, Ki   =   32.31 nM (nanomolar)  [Temperature = 298.15 K]
USER    
USER    (1) Final Intermolecular Energy     =  -12.31 kcal/mol
USER        vdW + Hbond + desolv Energy     =  -12.31 kcal/mol
USER        Electrostatic Energy            =   +0.00 kcal/mol
USER    (2) Final Total Internal Energy     =   -1.37 kcal/mol
USER    (3) Torsional Free Energy           =   +2.09 kcal/mol
USER    (4) Unbound System's Energy  [=(2)] =   -1.37 kcal/mol
USER    
USER    
USER  
USER    DPF = ligand_dock.biased.dpf
USER    NEWDPF move	ligand.dum.pdbqt
USER    NEWDPF about	1.179000 0.138000 -0.353000
USER    NEWDPF tran0	36.346301 14.647679 122.277048
USER    NEWDPF axisangle0	-0.062006 0.320931 0.945071 96.318771
USER    NEWDPF quaternion0	-0.046195 0.239095 0.704081 0.667061
USER    NEWDPF dihe0	21.49 156.29 -43.69 7.13 147.99 31.15 4.64 
USER  
USER                              x       y       z    vdW   Elec        q     RMS 
ATOM      1  C   UNL     1      35.232  15.419 123.636 -0.52 -0.00    +0.000    126.981
ATOM      2  C   UNL     1      34.471  15.857 124.891 -0.55 -0.00    +0.000    126.981
ATOM      3  C   UNL     1      35.496  13.928 123.670 -0.48 -0.00    +0.000    126.981
ATOM      4  C   UNL     1      36.315  13.279 122.817 -0.52 -0.00    +0.000    126.981
ATOM      5  C   UNL     1      37.050  14.004 121.710 -0.38 -0.00    +0.000    126.981
ATOM      6  C   UNL     1      36.431  11.803 122.953 -0.68 -0.00    +0.000    126.981
ATOM      7  C   UNL     1      36.949  11.017 121.997 -0.57 -0.00    +0.000    126.981
ATOM      8  C   UNL     1      37.065   9.550 122.125 -0.61 -0.00    +0.000    126.981
ATOM      9  N   UNL     1      37.154   8.895 123.397 -0.59 -0.00    +0.000    126.981
ATOM     10  O   UNL     1      37.062   8.854 121.074 -2.70 -0.00    +0.000    126.981
ATOM     11  H   UNL     1      37.055   9.418 124.226 -0.57 -0.00    +0.000    126.981
ATOM     12  O   UNL     1      37.373   7.561 123.462 -2.11 -0.00    +0.000    126.981
ATOM     13  H   UNL     1      37.775   7.258 122.633 -0.35 -0.00    +0.000    126.981
ATOM     14  C   UNL     1      36.533  16.188 123.539 -0.36 -0.00    +0.000    126.981
ATOM     15  O   UNL     1      37.533  15.772 124.187 -0.14 -0.00    +0.000    126.981
ATOM     16  C   UNL     1      36.874  19.772 121.143 -0.11 -0.00    +0.000    126.981
ATOM     17  C   UNL     1      35.725  18.958 121.082 -0.18 -0.00    +0.000    126.981
ATOM     18  C   UNL     1      35.625  17.800 121.858 -0.24 -0.00    +0.000    126.981
ATOM     19  C   UNL     1      36.665  17.423 122.722 -0.19 -0.00    +0.000    126.981
ATOM     20  C   UNL     1      37.818  18.225 122.780 -0.12 -0.00    +0.000    126.981
ATOM     21  C   UNL     1      37.920  19.383 122.003 -0.07 -0.00    +0.000    126.981
ATOM     22  CM  UNL     1      36.771  18.593 121.931 +0.00 -0.00    +0.000    126.981
ATOM     23  C   UNL     1      36.575  20.966 118.926 -0.09 -0.00    +0.000    126.981
ATOM     24  N   UNL     1      36.979  20.975 120.337 -0.09 -0.00    +0.000    126.981
ATOM     25  C   UNL     1      37.492  22.221 120.919 -0.08 -0.00    +0.000    126.981
TER
ENDMDL
MODEL       20
USER    Run = 20
USER    Cluster Rank = 7
USER    Number of conformations in this cluster = 1
USER  
USER    RMSD from reference structure       = 128.143 A
USER  
USER    Estimated Free Energy of Binding    =  -10.09 kcal/mol  [=(1)+(2)+(3)-(4)]
USER    Estimated Inhibition Constant, Ki   =   40.29 nM (nanomolar)  [Temperature = 298.15 K]
USER    
USER    (1) Final Intermolecular Energy     =  -12.18 kcal/mol
USER        vdW + Hbond + desolv Energy     =  -12.18 kcal/mol
USER        Electrostatic Energy            =   +0.00 kcal/mol
USER    (2) Final Total Internal Energy     =   -0.96 kcal/mol
USER    (3) Torsional Free Energy           =   +2.09 kcal/mol
USER    (4) Unbound System's Energy  [=(2)] =   -0.96 kcal/mol
USER    
USER    
USER  
USER    DPF = ligand_dock.biased.dpf
USER    NEWDPF move	ligand.dum.pdbqt
USER    NEWDPF about	1.179000 0.138000 -0.353000
USER    NEWDPF tran0	39.395844 14.032551 121.045362
USER    NEWDPF axisangle0	-0.281756 0.397903 0.873090 135.229604
USER    NEWDPF quaternion0	-0.260524 0.367919 0.807298 0.380832
USER    NEWDPF dihe0	18.43 94.96 -178.92 -24.60 23.21 159.71 44.07 
USER  
USER                              x       y       z    vdW   Elec        q     RMS 
ATOM      1  C   UNL     1      38.066  15.195 121.797 -0.32 -0.00    +0.000    128.143
ATOM      2  C   UNL     1      36.930  15.899 122.546 -0.31 -0.00    +0.000    128.143
ATOM      3  C   UNL     1      37.697  13.754 121.510 -0.44 -0.00    +0.000    128.143
ATOM      4  C   UNL     1      37.064  12.940 122.379 -0.55 -0.00    +0.000    128.143
ATOM      5  C   UNL     1      36.669  13.407 123.764 -0.52 -0.00    +0.000    128.143
ATOM      6  C   UNL     1      36.817  11.534 121.963 -0.60 -0.00    +0.000    128.143
ATOM      7  C   UNL     1      37.093  10.479 122.744 -0.54 -0.00    +0.000    128.143
ATOM      8  C   UNL     1      36.851   9.080 122.335 -0.71 -0.00    +0.000    128.143
ATOM      9  N   UNL     1      36.766   8.007 123.282 -0.73 -0.00    +0.000    128.143
ATOM     10  O   UNL     1      36.690   8.833 121.110 -2.61 -0.00    +0.000    128.143
ATOM     11  H   UNL     1      36.786   8.203 124.247 -0.34 -0.00    +0.000    128.143
ATOM     12  O   UNL     1      36.655   6.728 122.853 -1.44 -0.00    +0.000    128.143
ATOM     13  H   UNL     1      36.935   6.672 121.926 -0.23 -0.00    +0.000    128.143
ATOM     14  C   UNL     1      39.335  15.265 122.619 -0.37 -0.00    +0.000    128.143
ATOM     15  O   UNL     1      39.914  14.188 122.934 -0.83 -0.00    +0.000    128.143
ATOM     16  C   UNL     1      41.054  19.004 123.949 -0.17 -0.00    +0.000    128.143
ATOM     17  C   UNL     1      41.851  17.999 123.365 -0.25 -0.00    +0.000    128.143
ATOM     18  C   UNL     1      41.287  16.793 122.941 -0.32 -0.00    +0.000    128.143
ATOM     19  C   UNL     1      39.910  16.555 123.081 -0.24 -0.00    +0.000    128.143
ATOM     20  C   UNL     1      39.112  17.549 123.672 -0.21 -0.00    +0.000    128.143
ATOM     21  C   UNL     1      39.675  18.756 124.098 -0.15 -0.00    +0.000    128.143
ATOM     22  CM  UNL     1      40.482  17.775 123.518 +0.00 -0.00    +0.000    128.143
ATOM     23  C   UNL     1      41.837  20.526 125.820 -0.14 -0.00    +0.000    128.143
ATOM     24  N   UNL     1      41.639  20.257 124.390 -0.11 -0.00    +0.000    128.143
ATOM     25  C   UNL     1      42.040  21.278 123.415 -0.06 -0.00    +0.000    128.143
TER
ENDMDL


AVSFLD: # AVS field file
AVSFLD: #
AVSFLD: # Created by AutoDock
AVSFLD: #
AVSFLD: ndim=2           # number of dimensions in the field
AVSFLD: nspace=1         # number of physical coordinates
AVSFLD: veclen=7         # vector size
AVSFLD: dim1=25          # atoms
AVSFLD: dim2=7           # conformations
AVSFLD: data=Real       # data type (byte,integer,Real,double)
AVSFLD: field=uniform    # field coordinate layout
AVSFLD: label= x y z vdW Elec q RMS
AVSFLD: variable 1 file = ligand_dock.biased.dlg.pdb filetype = ascii offset = 5 stride = 12
AVSFLD: variable 2 file = ligand_dock.biased.dlg.pdb filetype = ascii offset = 6 stride = 12
AVSFLD: variable 3 file = ligand_dock.biased.dlg.pdb filetype = ascii offset = 7 stride = 12
AVSFLD: variable 4 file = ligand_dock.biased.dlg.pdb filetype = ascii offset = 8 stride = 12
AVSFLD: variable 5 file = ligand_dock.biased.dlg.pdb filetype = ascii offset = 9 stride = 12
AVSFLD: variable 6 file = ligand_dock.biased.dlg.pdb filetype = ascii offset = 10 stride = 12
AVSFLD: variable 7 file = ligand_dock.biased.dlg.pdb filetype = ascii offset = 11 stride = 12
AVSFLD: # end of file

>>> Closing the docking parameter file (DPF)...
This docking finished at:			6:51 09" p.m., 11/08/2024


________________________________________________________________________________

autodock4: Successful Completion on "ThinkStation-P620"

Real= 12m 02.71s,  CPU= 12m 02.41s,  System= 0.21s
________________________________________________________________________________

