REMARK  Name = 
REMARK  8 active torsions:
REMARK  status: ('A' for Active; 'I' for Inactive)
REMARK    1  A    between atoms: C_2  and  C_10
REMARK    2  A    between atoms: N_3  and  C_4
REMARK    3  A    between atoms: C_10  and  C_11
REMARK    4  A    between atoms: C_11  and  C_12
REMARK    5  A    between atoms: C_12  and  C_13
REMARK    6  A    between atoms: C_13  and  C_14
REMARK    7  A    between atoms: C_14  and  C_15
REMARK    8  A    between atoms: C_15  and  C_16
REMARK                            x       y       z     vdW  Elec       q    Type
REMARK                         _______ _______ _______ _____ _____    ______ ____
ROOT
ATOM      1  C   UNL     1      -0.209  -1.190  -0.297  0.00  0.00    +0.000 C 
ENDROOT
BRANCH   1   3
ATOM      2  O   UNL     1      -2.390  -2.105   0.020  0.00  0.00    +0.000 OA
ATOM      3  C   UNL     1      -1.670  -1.070   0.017  0.00  0.00    +0.000 C 
ATOM      4  N   UNL     1      -2.237   0.218   0.308  0.00  0.00    +0.000 N 
ATOM      5  H   UNL     1      -1.692   1.015   0.115  0.00  0.00    +0.000 HD
BRANCH   4   6
ATOM      6  C   UNL     1      -3.547   0.419   0.864  0.00  0.00    +0.000 A 
ATOM      7  C   UNL     1      -4.268   1.576   0.526  0.00  0.00    +0.000 A 
ATOM      8  C   UNL     1      -5.534   1.807   1.073  0.00  0.00    +0.000 A 
ATOM      9  C   UNL     1      -6.085   0.893   1.974  0.00  0.00    +0.000 A 
ATOM     10  C   UNL     1      -5.368  -0.251   2.334  0.00  0.00    +0.000 A 
ATOM     11  C   UNL     1      -4.101  -0.486   1.790  0.00  0.00    +0.000 A 
ENDBRANCH   4   6
ENDBRANCH   1   3
BRANCH   1  12
ATOM     12  C   UNL     1       0.618  -1.127   0.992  0.00  0.00    +0.000 C 
BRANCH  12  13
ATOM     13  C   UNL     1       2.115  -1.394   0.756  0.00  0.00    +0.000 C 
BRANCH  13  14
ATOM     14  C   UNL     1       2.815  -0.293  -0.067  0.00  0.00    +0.000 C 
BRANCH  14  15
ATOM     15  C   UNL     1       3.056  -0.723  -1.525  0.00  0.00    +0.000 C 
BRANCH  15  16
ATOM     16  C   UNL     1       3.613   0.419  -2.385  0.00  0.00    +0.000 C 
BRANCH  16  17
ATOM     17  C   UNL     1       5.005   0.799  -1.974  0.00  0.00    +0.000 C 
ATOM     18  N   UNL     1       5.225   1.912  -1.105  0.00  0.00    +0.000 N 
ATOM     19  O   UNL     1       6.479   2.250  -0.726  0.00  0.00    +0.000 OA
ATOM     20  O   UNL     1       5.983   0.113  -2.376  0.00  0.00    +0.000 OA
ATOM     21  H   UNL     1       4.458   2.436  -0.779  0.00  0.00    +0.000 HD
ENDBRANCH  16  17
ENDBRANCH  15  16
ENDBRANCH  14  15
ENDBRANCH  13  14
ENDBRANCH  12  13
ENDBRANCH   1  12
TORSDOF 8
