          AutoDock 4.2 Release 4.2.6   
         (C) 1989-2012 The Scripps Research Institute
        AutoDock comes with ABSOLUTELY NO WARRANTY.
        AutoDock is free software, and you are welcome
        to redistribute it under certain conditions;
        for details type 'autodock4 -C'

                     main.cc  $Revision: 1.213 $

                   Compiled on Feb 20 2022 at 09:48:33


This file was created at:			6:07 09" p.m., 11/08/2024
                   on host:		"ThinkStation-P620"
Current Working Directory = "/home/antonio/Documenti/buccheri/IDROSSAMICO HDAC/HDAC 8/DP (copia)/Ligand_6"

      ________________________________________________________________

                   SETTING UP DEFAULT PARAMETER LIBRARY
      ________________________________________________________________


Random number generator was seeded with values 355273, 1731085629.
Docking parameter file (DPF) used for this docking:		ligand_dock.biased.dpf
DPF> parameter_file ad4_arom_params.dat

Using read_parameter_library() to try to open and read "ad4_arom_params.dat".

DPF> autodock_parameter_version 4.2       # used by autodock to validate parameter set

	Autodock parameter version 4.2.
DPF> outlev 1                             # diagnostic output level

Output Level = 1  ADT-COMPATIBLE OUTPUT DURING DOCKING.
DPF> intelec                              # calculate internal electrostatics

Electrostatic energies will be calculated for all non-bonds between moving atoms.
DPF> seed pid time                        # seeds for random generator

Random number generator was seeded with values 355273, 1731085629.
DPF> ligand_types A C HD OA N AC

WARNING: pairwise distance, Rij, 0.00, is not a very reasonable value for the equilibrium separation of two atoms! (0.90 Angstroms <= Rij <= 6.00 Angstroms)

Perhaps you meant to use "intnbp_coeffs" instead of "intnbp_r_eps"?

DPF> fld receptor.maps.fld                # grid_data_file

Opening Grid Map Dimensions file:		receptor.maps.fld
Grid Point Spacing =				0.375 Angstroms

Even Number of User-specified Grid Points =	70 x-points
						70 y-points
						70 z-points

Coordinates of Central Grid Point of Maps =	(36.691, 12.592, 124.207)
Macromolecule file used to create Grid Maps =	receptor.pdbqt
Grid Parameter file used to create Grid Maps =	receptor.gpf
Minimum coordinates in grid = (23.566, -0.533, 111.082)
Maximum coordinates in grid = (49.816, 25.717, 137.332)

DPF> map receptor.A.map                   # atom-specific affinity map

DPF> map receptor.C.map                   # atom-specific affinity map

DPF> map receptor.HD.map                  # atom-specific affinity map

DPF> map receptor.OA.biased.map

DPF> map receptor.N.map                   # atom-specific affinity map

DPF> map receptor.AC.biased.map

DPF> elecmap receptor.e.map               # electrostatics map

DPF> desolvmap receptor.d.map             # desolvation map

DPF> move ligand.dum.pdbqt

1,4-interactions will be _ignored_ in the non-bonded internal energy calculation.

Ligand PDBQT file = "ligand.dum.pdbqt"

INPUT LIGAND PDBQT FILE:
________________________

INPUT-LIGAND-PDBQT: REMARK  Name = 
INPUT-LIGAND-PDBQT: REMARK  8 active torsions:
INPUT-LIGAND-PDBQT: REMARK  status: ('A' for Active; 'I' for Inactive)
INPUT-LIGAND-PDBQT: REMARK    1  A    between atoms: C_2  and  C_10
INPUT-LIGAND-PDBQT: REMARK    2  A    between atoms: N_3  and  C_4
INPUT-LIGAND-PDBQT: REMARK    3  A    between atoms: C_10  and  C_11
INPUT-LIGAND-PDBQT: REMARK    4  A    between atoms: C_11  and  C_12
INPUT-LIGAND-PDBQT: REMARK    5  A    between atoms: C_12  and  C_13
INPUT-LIGAND-PDBQT: REMARK    6  A    between atoms: C_13  and  C_14
INPUT-LIGAND-PDBQT: REMARK    7  A    between atoms: C_14  and  C_15
INPUT-LIGAND-PDBQT: REMARK    8  A    between atoms: C_15  and  C_16
INPUT-LIGAND-PDBQT: REMARK                            x       y       z     vdW  Elec       q    Type
INPUT-LIGAND-PDBQT: REMARK                         _______ _______ _______ _____ _____    ______ ____
INPUT-LIGAND-PDBQT: ROOT
INPUT-LIGAND-PDBQT: ATOM      1  C   UNL     1      -0.209  -1.190  -0.297  0.00  0.00     0.000 C 
INPUT-LIGAND-PDBQT: ENDROOT
INPUT-LIGAND-PDBQT: BRANCH   1   3
INPUT-LIGAND-PDBQT: ATOM      2  O   UNL     1      -2.390  -2.105   0.020  0.00  0.00     0.000 OA
INPUT-LIGAND-PDBQT: ATOM      3  C   UNL     1      -1.670  -1.070   0.017  0.00  0.00     0.000 C 
INPUT-LIGAND-PDBQT: ATOM      4  N   UNL     1      -2.237   0.218   0.308  0.00  0.00     0.000 N 
INPUT-LIGAND-PDBQT: ATOM      5  H   UNL     1      -1.692   1.015   0.115  0.00  0.00     0.000 HD
INPUT-LIGAND-PDBQT: BRANCH   4   6
INPUT-LIGAND-PDBQT: ATOM      6  C   UNL     1      -3.547   0.419   0.864  0.00  0.00     0.000 A 
INPUT-LIGAND-PDBQT: ATOM      7  C   UNL     1      -4.268   1.576   0.526  0.00  0.00     0.000 A 
INPUT-LIGAND-PDBQT: ATOM      8  C   UNL     1      -5.534   1.807   1.073  0.00  0.00     0.000 A 
INPUT-LIGAND-PDBQT: ATOM      9  C   UNL     1      -6.085   0.893   1.974  0.00  0.00     0.000 A 
INPUT-LIGAND-PDBQT: ATOM     10  C   UNL     1      -5.368  -0.251   2.334  0.00  0.00     0.000 A 
INPUT-LIGAND-PDBQT: ATOM     11  C   UNL     1      -4.101  -0.486   1.790  0.00  0.00     0.000 A 
INPUT-LIGAND-PDBQT: ATOM     22  CM  UNL     1      -4.817   0.660   1.427  1.00  0.00     0.000 AC
INPUT-LIGAND-PDBQT: ENDBRANCH   4   6
INPUT-LIGAND-PDBQT: ENDBRANCH   1   3
INPUT-LIGAND-PDBQT: BRANCH   1  12
INPUT-LIGAND-PDBQT: ATOM     12  C   UNL     1       0.618  -1.127   0.992  0.00  0.00     0.000 C 
INPUT-LIGAND-PDBQT: BRANCH  12  13
INPUT-LIGAND-PDBQT: ATOM     13  C   UNL     1       2.115  -1.394   0.756  0.00  0.00     0.000 C 
INPUT-LIGAND-PDBQT: BRANCH  13  14
INPUT-LIGAND-PDBQT: ATOM     14  C   UNL     1       2.815  -0.293  -0.067  0.00  0.00     0.000 C 
INPUT-LIGAND-PDBQT: BRANCH  14  15
INPUT-LIGAND-PDBQT: ATOM     15  C   UNL     1       3.056  -0.723  -1.525  0.00  0.00     0.000 C 
INPUT-LIGAND-PDBQT: BRANCH  15  16
INPUT-LIGAND-PDBQT: ATOM     16  C   UNL     1       3.613   0.419  -2.385  0.00  0.00     0.000 C 
INPUT-LIGAND-PDBQT: BRANCH  16  17
INPUT-LIGAND-PDBQT: ATOM     17  C   UNL     1       5.005   0.799  -1.974  0.00  0.00     0.000 C 
INPUT-LIGAND-PDBQT: ATOM     18  N   UNL     1       5.225   1.912  -1.105  0.00  0.00     0.000 N 
INPUT-LIGAND-PDBQT: ATOM     19  O   UNL     1       6.479   2.250  -0.726  0.00  0.00     0.000 OA
INPUT-LIGAND-PDBQT: ATOM     20  O   UNL     1       5.983   0.113  -2.376  0.00  0.00     0.000 OA
INPUT-LIGAND-PDBQT: ATOM     21  H   UNL     1       4.458   2.436  -0.779  0.00  0.00     0.000 HD
INPUT-LIGAND-PDBQT: ENDBRANCH  16  17
INPUT-LIGAND-PDBQT: ENDBRANCH  15  16
INPUT-LIGAND-PDBQT: ENDBRANCH  14  15
INPUT-LIGAND-PDBQT: ENDBRANCH  13  14
INPUT-LIGAND-PDBQT: ENDBRANCH  12  13
INPUT-LIGAND-PDBQT: ENDBRANCH   1  12
INPUT-LIGAND-PDBQT: TORSDOF 8________________________________________________________________________________

Total charge on ligand                               =	+0.000 e
REMARK  Name = 
REMARK  8 active torsions:
REMARK  status: ('A' for Active; 'I' for Inactive)
REMARK    1  A    between atoms: C_2  and  C_10
REMARK    2  A    between atoms: N_3  and  C_4
REMARK    3  A    between atoms: C_10  and  C_11
REMARK    4  A    between atoms: C_11  and  C_12
REMARK    5  A    between atoms: C_12  and  C_13
REMARK    6  A    between atoms: C_13  and  C_14
REMARK    7  A    between atoms: C_14  and  C_15
REMARK    8  A    between atoms: C_15  and  C_16
REMARK                            x       y       z     vdW  Elec       q    Type
REMARK                         _______ _______ _______ _____ _____    ______ ____


Number of Rotatable Bonds in Small Molecule =	8 torsions
Number of atoms in ligand:  22

Number of non-hydrogen atoms in ligand:  20

Number of vibrational degrees of freedom of ligand:  60


Number of torsional degrees of freedom = 8
Estimated loss of torsional free energy upon binding = +2.3864 kcal/mol


DPF> about 0.108 0.248 -0.022            # small molecule center

Small molecule center of rotation =	(+0.108, +0.248, -0.022)

DPF> tran0 random                         # initial coordinates/A or random

Initial translation =			(44.897, 21.421, 136.483) Angstroms
DPF> quaternion0 random                   # initial orientation

Each run will begin with a new, random initial orientation.
Initial quaternion,  (x,y,z,w) =	( -0.566, -0.164, -0.527, 0.613 ),
DPF> dihe0 random                         # initial dihedrals (relative) or random

DPF> torsdof 8                            # torsional degrees of freedom

Number of torsional degrees of freedom = 8
Free energy coefficient for torsional degrees of freedom = 0.2983 as specified in parameter library "ad4_arom_params.dat".

Estimated loss of torsional free energy upon binding = +2.3864 kcal/mol

DPF> rmstol 2.0                           # cluster_tolerance/A

Maximum RMS tolerance for conformational cluster analysis = 2.00 Angstroms
DPF> extnrg 1000.0                        # external grid energy

External grid energy (beyond grid map walls) = 1000.00

DPF> e0max 0.0 10000                      # max initial energy; max number of retries

Using user-specified maximum number of retries for simanneal initialization, 10000 retries.
If the simanneal initial energy is greater than e0max, 0.000,
then a new, random initial state will be created.

DPF> ga_pop_size 150                      # number of individuals in population

A population of 150 individuals will be used
DPF> ga_num_evals 2500000                 # maximum number of energy evaluations

There will be at most 2500000 function evaluations used.
DPF> ga_num_generations 27000             # maximum number of generations

The GA will run for at most 27000 generations.
DPF> ga_elitism 1                         # number of top individuals to survive to next generation

The 1 best will be preserved each GA generation.
DPF> ga_mutation_rate 0.02                # rate of gene mutation

The mutation rate is 0.020000.
DPF> ga_crossover_rate 0.8                # rate of crossover

The crossover rate is 0.800000.
DPF> ga_window_size 10                    # 

The GA's selection window is 10 generations.
DPF> ga_cauchy_alpha 0.0                  # Alpha parameter of Cauchy distribution

The alpha parameter (for the Cauchy distribution) is being set to 0.000000.
DPF> ga_cauchy_beta 1.0                   # Beta parameter Cauchy distribution

The beta parameter (for the Cauchy distribution) is being set to 1.000000.
DPF> set_ga                               # set the above parameters for GA or LGA

DPF> sw_max_its 300                       # iterations of Solis & Wets local search

Solis & Wets algorithms will perform at most 300 iterations.
DPF> sw_max_succ 4                        # consecutive successes before changing rho

Solis & Wets algorithms expand rho every 4 in a row successes.
DPF> sw_max_fail 4                        # consecutive failures before changing rho

Solis & Wets algorithms contract rho every 4 in a row failures.
DPF> sw_rho 1.0                           # size of local search space to sample

rho is set to 1.000000.
DPF> sw_lb_rho 0.01                       # lower bound on rho

rho will never get smaller than 0.010000.
DPF> ls_search_freq 0.06                  # probability of performing local search on individual

Local search will be performed with frequency 0.060000.
DPF> set_psw1                             # set the above pseudo-Solis & Wets parameters

Creating a new Local Search object using the pseudo-Solis-Wets algorithm (pSW1) with the current settings.

DPF> unbound_model bound                  # state of unbound ligand

DPF> ga_run 100                           # do this many hybrid GA-LS runs

centering ligand on specified point: 0.108 0.248 -0.022
Furthest true ligand atom from "about" center is 6.715 Angstroms (maxrad).
Number of requested GA dockings = 100 runs
Unbound model to be used is 'same as bound' [AutoDock 4.2 default].

	BEGINNING GENETIC ALGORITHM DOCKING 1 of 100
Run: 1 Seed: 763424134 967584722 [ Run 1 of 100 GA/GALS ]
Beginning LAMARCKIAN GENETIC ALGORITHM (LGA), with a maximum of 2500000 energy evaluations.

Final-Value: -13.276


	FINAL GENETIC ALGORITHM DOCKED STATE
	_______________________________________________


Detailed state:  trans 38.726 15.957 122.790 quatxyzw 0.275686 -0.516023 0.093232 -0.805621 center 0.108 0.248 -0.022 ntor 8 -180.0000 86.7806 -135.2680 -10.3450 156.6362 25.0293 159.9994 -160.1209
State:	 38.726  15.957 122.790   0.465 -0.871  0.157 -72.659   -180.00   86.78 -135.27  -10.35  156.64   25.03  160.00 -160.12

DOCKED: MODEL        1
DOCKED: USER    Run = 1
DOCKED: USER    DPF = ligand_dock.biased.dpf
DOCKED: USER  
DOCKED: USER    Estimated Free Energy of Binding    =   -9.72 kcal/mol  [=(1)+(2)+(3)-(4)]
DOCKED: USER    Estimated Inhibition Constant, Ki   =   75.35 nM (nanomolar)  [Temperature = 298.15 K]
DOCKED: USER    
DOCKED: USER    (1) Final Intermolecular Energy     =  -12.10 kcal/mol
DOCKED: USER        vdW + Hbond + desolv Energy     =  -12.10 kcal/mol
DOCKED: USER        Electrostatic Energy            =   +0.00 kcal/mol
DOCKED: USER    (2) Final Total Internal Energy     =   -1.17 kcal/mol
DOCKED: USER    (3) Torsional Free Energy           =   +2.39 kcal/mol
DOCKED: USER    (4) Unbound System's Energy  [=(2)] =   -1.17 kcal/mol
DOCKED: USER    
DOCKED: USER    
DOCKED: USER    NEWDPF move ligand.dum.pdbqt
DOCKED: USER    NEWDPF about 0.108000 0.248000 -0.022000
DOCKED: USER    NEWDPF tran0 38.725993 15.956714 122.790486
DOCKED: USER    NEWDPF quaternion0 0.275686 -0.516023 0.093232 -0.805621
DOCKED: USER    NEWDPF axisangle0 0.465347 -0.871026 0.157372 -72.659418
DOCKED: USER    NEWDPF quat0 0.465347 -0.871026 0.157372 -72.659418
DOCKED: USER    NEWDPF dihe0 -180.00 86.78 -135.27 -10.35 156.64 25.03 160.00 -160.12 
DOCKED: USER  keepresnum = 1 
DOCKED: USER  
DOCKED: REMARK  Name = 
DOCKED: REMARK  8 active torsions:
DOCKED: REMARK  status: ('A' for Active; 'I' for Inactive)
DOCKED: REMARK    1  A    between atoms: C_2  and  C_10
DOCKED: REMARK    2  A    between atoms: N_3  and  C_4
DOCKED: REMARK    3  A    between atoms: C_10  and  C_11
DOCKED: REMARK    4  A    between atoms: C_11  and  C_12
DOCKED: REMARK    5  A    between atoms: C_12  and  C_13
DOCKED: REMARK    6  A    between atoms: C_13  and  C_14
DOCKED: REMARK    7  A    between atoms: C_14  and  C_15
DOCKED: REMARK    8  A    between atoms: C_15  and  C_16
DOCKED: REMARK                            x       y       z     vdW  Elec       q    Type
DOCKED: REMARK                         _______ _______ _______ _____ _____    ______ ____
DOCKED: USER                              x       y       z     vdW  Elec       q    Type
DOCKED: USER                           _______ _______ _______ _____ _____    ______ ____
DOCKED: ROOT
DOCKED: ATOM      1  C   UNL     1      39.423  14.953 121.923 -0.39 -0.00    +0.000 C 
DOCKED: ENDROOT
DOCKED: BRANCH   1   3
DOCKED: ATOM      2  O   UNL     1      37.815  16.148 120.627 -0.17 -0.00    +0.000 OA
DOCKED: ATOM      3  C   UNL     1      38.468  15.080 120.774 -0.28 -0.00    +0.000 C 
DOCKED: ATOM      4  N   UNL     1      38.304  13.987 119.856 -0.28 -0.00    +0.000 N 
DOCKED: ATOM      5  H   UNL     1      38.685  13.114 120.106 -0.12 -0.00    +0.000 HD
DOCKED: BRANCH   4   6
DOCKED: ATOM      6  C   UNL     1      37.622  14.085 118.594 -0.30 -0.00    +0.000 A 
DOCKED: ATOM      7  C   UNL     1      38.263  14.711 117.513 -0.20 -0.00    +0.000 A 
DOCKED: ATOM      8  C   UNL     1      37.612  14.842 116.282 -0.22 -0.00    +0.000 A 
DOCKED: ATOM      9  C   UNL     1      36.309  14.362 116.125 -0.27 -0.00    +0.000 A 
DOCKED: ATOM     10  C   UNL     1      35.654  13.756 117.200 -0.28 -0.00    +0.000 A 
DOCKED: ATOM     11  C   UNL     1      36.302  13.624 118.433 -0.33 -0.00    +0.000 A 
DOCKED: ATOM     12  CM  UNL     1      36.960  14.230 117.358 +0.00 -0.00    +0.000 AC
DOCKED: ENDBRANCH   4   6
DOCKED: ENDBRANCH   1   3
DOCKED: BRANCH   1  12
DOCKED: ATOM     13  C   UNL     1      38.762  14.198 123.082 -0.33 -0.00    +0.000 C 
DOCKED: BRANCH  12  13
DOCKED: ATOM     14  C   UNL     1      37.229  14.326 123.082 -0.49 -0.00    +0.000 C 
DOCKED: BRANCH  13  14
DOCKED: ATOM     15  C   UNL     1      36.516  13.193 122.316 -0.43 -0.00    +0.000 C 
DOCKED: BRANCH  14  15
DOCKED: ATOM     16  C   UNL     1      36.951  11.799 122.804 -0.64 -0.00    +0.000 C 
DOCKED: BRANCH  15  16
DOCKED: ATOM     17  C   UNL     1      35.983  10.696 122.355 -0.66 -0.00    +0.000 C 
DOCKED: BRANCH  16  17
DOCKED: ATOM     18  C   UNL     1      36.660   9.360 122.271 -0.72 -0.00    +0.000 C 
DOCKED: ATOM     19  N   UNL     1      36.838   8.564 123.444 -0.65 -0.00    +0.000 N 
DOCKED: ATOM     20  O   UNL     1      37.440   7.354 123.368 -2.28 -0.00    +0.000 OA
DOCKED: ATOM     21  O   UNL     1      37.048   8.927 121.152 -2.70 -0.00    +0.000 OA
DOCKED: ATOM     22  H   UNL     1      36.520   8.897 124.313 -0.36 -0.00    +0.000 HD
DOCKED: ENDBRANCH  16  17
DOCKED: ENDBRANCH  15  16
DOCKED: ENDBRANCH  14  15
DOCKED: ENDBRANCH  13  14
DOCKED: ENDBRANCH  12  13
DOCKED: ENDBRANCH   1  12
DOCKED: TORSDOF 8DOCKED: TER
DOCKED: ENDMDL
________________________________________________________________________________


	BEGINNING GENETIC ALGORITHM DOCKING 2 of 100
Run: 2 Seed: 1745031337 1796027984 [ Run 2 of 100 GA/GALS ]
Beginning LAMARCKIAN GENETIC ALGORITHM (LGA), with a maximum of 2500000 energy evaluations.

Final-Value: -13.969


	FINAL GENETIC ALGORITHM DOCKED STATE
	_______________________________________________


Detailed state:  trans 36.166 16.065 123.366 quatxyzw -0.014144 0.317237 -0.397843 -0.860745 center 0.108 0.248 -0.022 ntor 8 -165.4794 -175.6628 119.3221 153.4472 -40.9196 45.1920 -21.8701 -142.2284
State:	 36.166  16.065 123.366  -0.028  0.623 -0.782 -61.199   -165.48 -175.66  119.32  153.45  -40.92   45.19  -21.87 -142.23

DOCKED: MODEL        2
DOCKED: USER    Run = 2
DOCKED: USER    DPF = ligand_dock.biased.dpf
DOCKED: USER  
DOCKED: USER    Estimated Free Energy of Binding    =  -10.88 kcal/mol  [=(1)+(2)+(3)-(4)]
DOCKED: USER    Estimated Inhibition Constant, Ki   =   10.53 nM (nanomolar)  [Temperature = 298.15 K]
DOCKED: USER    
DOCKED: USER    (1) Final Intermolecular Energy     =  -13.27 kcal/mol
DOCKED: USER        vdW + Hbond + desolv Energy     =  -13.27 kcal/mol
DOCKED: USER        Electrostatic Energy            =   +0.00 kcal/mol
DOCKED: USER    (2) Final Total Internal Energy     =   -0.70 kcal/mol
DOCKED: USER    (3) Torsional Free Energy           =   +2.39 kcal/mol
DOCKED: USER    (4) Unbound System's Energy  [=(2)] =   -0.70 kcal/mol
DOCKED: USER    
DOCKED: USER    
DOCKED: USER    NEWDPF move ligand.dum.pdbqt
DOCKED: USER    NEWDPF about 0.108000 0.248000 -0.022000
DOCKED: USER    NEWDPF tran0 36.166140 16.064900 123.365508
DOCKED: USER    NEWDPF quaternion0 -0.014144 0.317237 -0.397843 -0.860745
DOCKED: USER    NEWDPF axisangle0 -0.027785 0.623210 -0.781561 -61.199307
DOCKED: USER    NEWDPF quat0 -0.027785 0.623210 -0.781561 -61.199307
DOCKED: USER    NEWDPF dihe0 -165.48 -175.66 119.32 153.45 -40.92 45.19 -21.87 -142.23 
DOCKED: USER  keepresnum = 1 
DOCKED: USER  
DOCKED: REMARK  Name = 
DOCKED: REMARK  8 active torsions:
DOCKED: REMARK  status: ('A' for Active; 'I' for Inactive)
DOCKED: REMARK    1  A    between atoms: C_2  and  C_10
DOCKED: REMARK    2  A    between atoms: N_3  and  C_4
DOCKED: REMARK    3  A    between atoms: C_10  and  C_11
DOCKED: REMARK    4  A    between atoms: C_11  and  C_12
DOCKED: REMARK    5  A    between atoms: C_12  and  C_13
DOCKED: REMARK    6  A    between atoms: C_13  and  C_14
DOCKED: REMARK    7  A    between atoms: C_14  and  C_15
DOCKED: REMARK    8  A    between atoms: C_15  and  C_16
DOCKED: REMARK                            x       y       z     vdW  Elec       q    Type
DOCKED: REMARK                         _______ _______ _______ _____ _____    ______ ____
DOCKED: USER                              x       y       z     vdW  Elec       q    Type
DOCKED: USER                           _______ _______ _______ _____ _____    ______ ____
DOCKED: ROOT
DOCKED: ATOM      1  C   UNL     1      34.888  15.365 123.714 -0.54 -0.00    +0.000 C 
DOCKED: ENDROOT
DOCKED: BRANCH   1   3
DOCKED: ATOM      2  O   UNL     1      34.567  17.615 124.443 -0.40 -0.00    +0.000 OA
DOCKED: ATOM      3  C   UNL     1      34.440  16.389 124.712 -0.53 -0.00    +0.000 C 
DOCKED: ATOM      4  N   UNL     1      33.873  15.969 125.965 -0.48 -0.00    +0.000 N 
DOCKED: ATOM      5  H   UNL     1      33.961  15.021 126.214 -0.04 -0.00    +0.000 HD
DOCKED: BRANCH   4   6
DOCKED: ATOM      6  C   UNL     1      33.185  16.842 126.876 -0.33 -0.00    +0.000 A 
DOCKED: ATOM      7  C   UNL     1      33.538  18.201 126.925 -0.27 -0.00    +0.000 A 
DOCKED: ATOM      8  C   UNL     1      32.901  19.066 127.820 -0.17 -0.00    +0.000 A 
DOCKED: ATOM      9  C   UNL     1      31.918  18.579 128.685 -0.19 -0.00    +0.000 A 
DOCKED: ATOM     10  C   UNL     1      31.574  17.225 128.659 -0.38 -0.00    +0.000 A 
DOCKED: ATOM     11  C   UNL     1      32.208  16.356 127.766 -0.35 -0.00    +0.000 A 
DOCKED: ATOM     12  CM  UNL     1      32.554  17.712 127.789 +0.00 -0.00    +0.000 AC
DOCKED: ENDBRANCH   4   6
DOCKED: ENDBRANCH   1   3
DOCKED: BRANCH   1  12
DOCKED: ATOM     13  C   UNL     1      36.048  14.541 124.283 -0.35 -0.00    +0.000 C 
DOCKED: BRANCH  12  13
DOCKED: ATOM     14  C   UNL     1      36.116  13.120 123.696 -0.61 -0.00    +0.000 C 
DOCKED: BRANCH  13  14
DOCKED: ATOM     15  C   UNL     1      37.351  12.880 122.804 -0.57 -0.00    +0.000 C 
DOCKED: BRANCH  14  15
DOCKED: ATOM     16  C   UNL     1      37.036  11.957 121.613 -0.56 -0.00    +0.000 C 
DOCKED: BRANCH  15  16
DOCKED: ATOM     17  C   UNL     1      35.973  10.905 121.956 -0.53 -0.00    +0.000 C 
DOCKED: BRANCH  16  17
DOCKED: ATOM     18  C   UNL     1      36.565   9.532 122.075 -0.68 -0.00    +0.000 C 
DOCKED: ATOM     19  N   UNL     1      36.914   9.003 123.356 -0.60 -0.00    +0.000 N 
DOCKED: ATOM     20  O   UNL     1      37.439   7.761 123.466 -2.58 -0.00    +0.000 OA
DOCKED: ATOM     21  O   UNL     1      36.727   8.831 121.041 -2.61 -0.00    +0.000 OA
DOCKED: ATOM     22  H   UNL     1      36.771   9.547 124.164 -0.50 -0.00    +0.000 HD
DOCKED: ENDBRANCH  16  17
DOCKED: ENDBRANCH  15  16
DOCKED: ENDBRANCH  14  15
DOCKED: ENDBRANCH  13  14
DOCKED: ENDBRANCH  12  13
DOCKED: ENDBRANCH   1  12
DOCKED: TORSDOF 8DOCKED: TER
DOCKED: ENDMDL
________________________________________________________________________________


	BEGINNING GENETIC ALGORITHM DOCKING 3 of 100
Run: 3 Seed: 2078062545 1514127120 [ Run 3 of 100 GA/GALS ]
Beginning LAMARCKIAN GENETIC ALGORITHM (LGA), with a maximum of 2500000 energy evaluations.

Final-Value: -13.774


	FINAL GENETIC ALGORITHM DOCKED STATE
	_______________________________________________


Detailed state:  trans 36.436 12.161 121.573 quatxyzw -0.326941 -0.423469 0.432898 -0.725522 center 0.108 0.248 -0.022 ntor 8 -161.9661 -174.4448 -105.6493 56.3076 -122.0153 -121.7096 44.9862 -94.7020
State:	 36.436  12.161 121.573  -0.475 -0.615  0.629 -86.975   -161.97 -174.44 -105.65   56.31 -122.02 -121.71   44.99  -94.70

DOCKED: MODEL        3
DOCKED: USER    Run = 3
DOCKED: USER    DPF = ligand_dock.biased.dpf
DOCKED: USER  
DOCKED: USER    Estimated Free Energy of Binding    =  -10.56 kcal/mol  [=(1)+(2)+(3)-(4)]
DOCKED: USER    Estimated Inhibition Constant, Ki   =   18.05 nM (nanomolar)  [Temperature = 298.15 K]
DOCKED: USER    
DOCKED: USER    (1) Final Intermolecular Energy     =  -12.95 kcal/mol
DOCKED: USER        vdW + Hbond + desolv Energy     =  -12.95 kcal/mol
DOCKED: USER        Electrostatic Energy            =   +0.00 kcal/mol
DOCKED: USER    (2) Final Total Internal Energy     =   -0.82 kcal/mol
DOCKED: USER    (3) Torsional Free Energy           =   +2.39 kcal/mol
DOCKED: USER    (4) Unbound System's Energy  [=(2)] =   -0.82 kcal/mol
DOCKED: USER    
DOCKED: USER    
DOCKED: USER    NEWDPF move ligand.dum.pdbqt
DOCKED: USER    NEWDPF about 0.108000 0.248000 -0.022000
DOCKED: USER    NEWDPF tran0 36.435932 12.160634 121.572780
DOCKED: USER    NEWDPF quaternion0 -0.326941 -0.423469 0.432898 -0.725522
DOCKED: USER    NEWDPF axisangle0 -0.475068 -0.615330 0.629031 -86.975379
DOCKED: USER    NEWDPF quat0 -0.475068 -0.615330 0.629031 -86.975379
DOCKED: USER    NEWDPF dihe0 -161.97 -174.44 -105.65 56.31 -122.02 -121.71 44.99 -94.70 
DOCKED: USER  keepresnum = 1 
DOCKED: USER  
DOCKED: REMARK  Name = 
DOCKED: REMARK  8 active torsions:
DOCKED: REMARK  status: ('A' for Active; 'I' for Inactive)
DOCKED: REMARK    1  A    between atoms: C_2  and  C_10
DOCKED: REMARK    2  A    between atoms: N_3  and  C_4
DOCKED: REMARK    3  A    between atoms: C_10  and  C_11
DOCKED: REMARK    4  A    between atoms: C_11  and  C_12
DOCKED: REMARK    5  A    between atoms: C_12  and  C_13
DOCKED: REMARK    6  A    between atoms: C_13  and  C_14
DOCKED: REMARK    7  A    between atoms: C_14  and  C_15
DOCKED: REMARK    8  A    between atoms: C_15  and  C_16
DOCKED: REMARK                            x       y       z     vdW  Elec       q    Type
DOCKED: REMARK                         _______ _______ _______ _____ _____    ______ ____
DOCKED: USER                              x       y       z     vdW  Elec       q    Type
DOCKED: USER                           _______ _______ _______ _____ _____    ______ ____
DOCKED: ROOT
DOCKED: ATOM      1  C   UNL     1      37.103  11.252 122.560 -0.55 -0.00    +0.000 C 
DOCKED: ENDROOT
DOCKED: BRANCH   1   3
DOCKED: ATOM      2  O   UNL     1      36.902   9.298 121.205 -2.62 -0.00    +0.000 OA
DOCKED: ATOM      3  C   UNL     1      36.390  10.013 122.109 -0.63 -0.00    +0.000 C 
DOCKED: ATOM      4  N   UNL     1      35.133   9.653 122.705 -0.60 -0.00    +0.000 N 
DOCKED: ATOM      5  H   UNL     1      34.680  10.325 123.265 -0.36 -0.00    +0.000 HD
DOCKED: BRANCH   4   6
DOCKED: ATOM      6  C   UNL     1      34.494   8.377 122.538 -0.61 -0.00    +0.000 A 
DOCKED: ATOM      7  C   UNL     1      34.508   7.457 123.600 -0.63 -0.00    +0.000 A 
DOCKED: ATOM      8  C   UNL     1      33.915   6.199 123.454 -0.62 -0.00    +0.000 A 
DOCKED: ATOM      9  C   UNL     1      33.318   5.841 122.244 -0.60 -0.00    +0.000 A 
DOCKED: ATOM     10  C   UNL     1      33.317   6.740 121.174 -0.41 -0.00    +0.000 A 
DOCKED: ATOM     11  C   UNL     1      33.909   8.000 121.314 -0.57 -0.00    +0.000 A 
DOCKED: ATOM     12  CM  UNL     1      33.910   7.102 122.387 +0.00 -0.00    +0.000 AC
DOCKED: ENDBRANCH   4   6
DOCKED: ENDBRANCH   1   3
DOCKED: BRANCH   1  12
DOCKED: ATOM     13  C   UNL     1      36.145  12.166 123.332 -0.67 -0.00    +0.000 C 
DOCKED: BRANCH  12  13
DOCKED: ATOM     14  C   UNL     1      36.360  13.658 123.022 -0.53 -0.00    +0.000 C 
DOCKED: BRANCH  13  14
DOCKED: ATOM     15  C   UNL     1      37.812  14.130 123.246 -0.44 -0.00    +0.000 C 
DOCKED: BRANCH  14  15
DOCKED: ATOM     16  C   UNL     1      38.324  15.002 122.086 -0.37 -0.00    +0.000 C 
DOCKED: BRANCH  15  16
DOCKED: ATOM     17  C   UNL     1      39.686  14.532 121.561 -0.35 -0.00    +0.000 C 
DOCKED: BRANCH  16  17
DOCKED: ATOM     18  C   UNL     1      40.792  15.459 121.971 -0.40 -0.00    +0.000 C 
DOCKED: ATOM     19  N   UNL     1      41.640  15.131 123.074 -0.56 +0.00    +0.000 N 
DOCKED: ATOM     20  O   UNL     1      42.643  15.962 123.440 -1.12 +0.00    +0.000 OA
DOCKED: ATOM     21  O   UNL     1      40.991  16.520 121.320 -0.20 -0.00    +0.000 OA
DOCKED: ATOM     22  H   UNL     1      41.493  14.294 123.571 -0.09 +0.00    +0.000 HD
DOCKED: ENDBRANCH  16  17
DOCKED: ENDBRANCH  15  16
DOCKED: ENDBRANCH  14  15
DOCKED: ENDBRANCH  13  14
DOCKED: ENDBRANCH  12  13
DOCKED: ENDBRANCH   1  12
DOCKED: TORSDOF 8DOCKED: TER
DOCKED: ENDMDL
________________________________________________________________________________


	BEGINNING GENETIC ALGORITHM DOCKING 4 of 100
Run: 4 Seed: 1402883976 1904750017 [ Run 4 of 100 GA/GALS ]
Beginning LAMARCKIAN GENETIC ALGORITHM (LGA), with a maximum of 2500000 energy evaluations.

Final-Value: -12.991


	FINAL GENETIC ALGORITHM DOCKED STATE
	_______________________________________________


Detailed state:  trans 37.779 16.023 122.474 quatxyzw 0.074500 0.242815 -0.559066 -0.789263 center 0.108 0.248 -0.022 ntor 8 135.9139 -169.9277 -49.8707 91.3813 63.9549 87.9674 -83.5837 -159.2591
State:	 37.779  16.023 122.474   0.121  0.395 -0.910 -75.767    135.91 -169.93  -49.87   91.38   63.95   87.97  -83.58 -159.26

DOCKED: MODEL        4
DOCKED: USER    Run = 4
DOCKED: USER    DPF = ligand_dock.biased.dpf
DOCKED: USER  
DOCKED: USER    Estimated Free Energy of Binding    =   -9.87 kcal/mol  [=(1)+(2)+(3)-(4)]
DOCKED: USER    Estimated Inhibition Constant, Ki   =   58.21 nM (nanomolar)  [Temperature = 298.15 K]
DOCKED: USER    
DOCKED: USER    (1) Final Intermolecular Energy     =  -12.26 kcal/mol
DOCKED: USER        vdW + Hbond + desolv Energy     =  -12.26 kcal/mol
DOCKED: USER        Electrostatic Energy            =   +0.00 kcal/mol
DOCKED: USER    (2) Final Total Internal Energy     =   -0.73 kcal/mol
DOCKED: USER    (3) Torsional Free Energy           =   +2.39 kcal/mol
DOCKED: USER    (4) Unbound System's Energy  [=(2)] =   -0.73 kcal/mol
DOCKED: USER    
DOCKED: USER    
DOCKED: USER    NEWDPF move ligand.dum.pdbqt
DOCKED: USER    NEWDPF about 0.108000 0.248000 -0.022000
DOCKED: USER    NEWDPF tran0 37.779482 16.023069 122.473915
DOCKED: USER    NEWDPF quaternion0 0.074500 0.242815 -0.559066 -0.789263
DOCKED: USER    NEWDPF axisangle0 0.121324 0.395428 -0.910449 -75.766668
DOCKED: USER    NEWDPF quat0 0.121324 0.395428 -0.910449 -75.766668
DOCKED: USER    NEWDPF dihe0 135.91 -169.93 -49.87 91.38 63.95 87.97 -83.58 -159.26 
DOCKED: USER  keepresnum = 1 
DOCKED: USER  
DOCKED: REMARK  Name = 
DOCKED: REMARK  8 active torsions:
DOCKED: REMARK  status: ('A' for Active; 'I' for Inactive)
DOCKED: REMARK    1  A    between atoms: C_2  and  C_10
DOCKED: REMARK    2  A    between atoms: N_3  and  C_4
DOCKED: REMARK    3  A    between atoms: C_10  and  C_11
DOCKED: REMARK    4  A    between atoms: C_11  and  C_12
DOCKED: REMARK    5  A    between atoms: C_12  and  C_13
DOCKED: REMARK    6  A    between atoms: C_13  and  C_14
DOCKED: REMARK    7  A    between atoms: C_14  and  C_15
DOCKED: REMARK    8  A    between atoms: C_15  and  C_16
DOCKED: REMARK                            x       y       z     vdW  Elec       q    Type
DOCKED: REMARK                         _______ _______ _______ _____ _____    ______ ____
DOCKED: USER                              x       y       z     vdW  Elec       q    Type
DOCKED: USER                           _______ _______ _______ _____ _____    ______ ____
DOCKED: ROOT
DOCKED: ATOM      1  C   UNL     1      36.294  15.875 122.604 -0.33 -0.00    +0.000 C 
DOCKED: ENDROOT
DOCKED: BRANCH   1   3
DOCKED: ATOM      2  O   UNL     1      36.963  17.973 123.523 -0.20 -0.00    +0.000 OA
DOCKED: ATOM      3  C   UNL     1      36.123  17.033 123.540 -0.32 -0.00    +0.000 C 
DOCKED: ATOM      4  N   UNL     1      35.011  17.061 124.449 -0.37 -0.00    +0.000 N 
DOCKED: ATOM      5  H   UNL     1      34.489  16.234 124.564 -0.02 -0.00    +0.000 HD
DOCKED: BRANCH   4   6
DOCKED: ATOM      6  C   UNL     1      34.608  18.219 125.201 -0.30 -0.00    +0.000 A 
DOCKED: ATOM      7  C   UNL     1      33.313  18.272 125.742 -0.28 -0.00    +0.000 A 
DOCKED: ATOM      8  C   UNL     1      32.889  19.397 126.455 -0.24 -0.00    +0.000 A 
DOCKED: ATOM      9  C   UNL     1      33.748  20.485 126.622 -0.15 -0.00    +0.000 A 
DOCKED: ATOM     10  C   UNL     1      35.031  20.453 126.070 -0.14 -0.00    +0.000 A 
DOCKED: ATOM     11  C   UNL     1      35.460  19.330 125.355 -0.19 -0.00    +0.000 A 
DOCKED: ATOM     12  CM  UNL     1      34.175  19.359 125.907 -0.04 -0.00    +0.000 AC
DOCKED: ENDBRANCH   4   6
DOCKED: ENDBRANCH   1   3
DOCKED: BRANCH   1  12
DOCKED: ATOM     13  C   UNL     1      36.952  14.697 123.331 -0.46 -0.00    +0.000 C 
DOCKED: BRANCH  12  13
DOCKED: ATOM     14  C   UNL     1      35.928  13.746 123.976 -0.52 -0.00    +0.000 C 
DOCKED: BRANCH  13  14
DOCKED: ATOM     15  C   UNL     1      36.455  12.308 124.164 -0.51 -0.00    +0.000 C 
DOCKED: BRANCH  14  15
DOCKED: ATOM     16  C   UNL     1      37.306  11.842 122.969 -0.52 -0.00    +0.000 C 
DOCKED: BRANCH  15  16
DOCKED: ATOM     17  C   UNL     1      36.484  11.053 121.941 -0.60 -0.00    +0.000 C 
DOCKED: BRANCH  16  17
DOCKED: ATOM     18  C   UNL     1      36.716   9.575 122.057 -0.68 -0.00    +0.000 C 
DOCKED: ATOM     19  N   UNL     1      36.869   8.965 123.341 -0.61 -0.00    +0.000 N 
DOCKED: ATOM     20  O   UNL     1      37.068   7.632 123.448 -2.63 -0.00    +0.000 OA
DOCKED: ATOM     21  O   UNL     1      36.745   8.865 121.017 -2.63 -0.00    +0.000 OA
DOCKED: ATOM     22  H   UNL     1      36.829   9.520 124.153 -0.51 -0.00    +0.000 HD
DOCKED: ENDBRANCH  16  17
DOCKED: ENDBRANCH  15  16
DOCKED: ENDBRANCH  14  15
DOCKED: ENDBRANCH  13  14
DOCKED: ENDBRANCH  12  13
DOCKED: ENDBRANCH   1  12
DOCKED: TORSDOF 8DOCKED: TER
DOCKED: ENDMDL
________________________________________________________________________________


	BEGINNING GENETIC ALGORITHM DOCKING 5 of 100
Run: 5 Seed: 896080469 563761008 [ Run 5 of 100 GA/GALS ]
Beginning LAMARCKIAN GENETIC ALGORITHM (LGA), with a maximum of 2500000 energy evaluations.

Final-Value: -13.493


	FINAL GENETIC ALGORITHM DOCKED STATE
	_______________________________________________


Detailed state:  trans 37.105 11.856 121.625 quatxyzw -0.470035 -0.485396 0.303911 -0.671637 center 0.108 0.248 -0.022 ntor 8 -20.5764 97.4421 -92.6581 -154.2064 6.6466 -167.0845 78.2409 -119.1825
State:	 37.105  11.856 121.625  -0.634 -0.655  0.410 -95.613    -20.58   97.44  -92.66 -154.21    6.65 -167.08   78.24 -119.18

DOCKED: MODEL        5
DOCKED: USER    Run = 5
DOCKED: USER    DPF = ligand_dock.biased.dpf
DOCKED: USER  
DOCKED: USER    Estimated Free Energy of Binding    =  -10.29 kcal/mol  [=(1)+(2)+(3)-(4)]
DOCKED: USER    Estimated Inhibition Constant, Ki   =   28.52 nM (nanomolar)  [Temperature = 298.15 K]
DOCKED: USER    
DOCKED: USER    (1) Final Intermolecular Energy     =  -12.68 kcal/mol
DOCKED: USER        vdW + Hbond + desolv Energy     =  -12.68 kcal/mol
DOCKED: USER        Electrostatic Energy            =   +0.00 kcal/mol
DOCKED: USER    (2) Final Total Internal Energy     =   -0.81 kcal/mol
DOCKED: USER    (3) Torsional Free Energy           =   +2.39 kcal/mol
DOCKED: USER    (4) Unbound System's Energy  [=(2)] =   -0.81 kcal/mol
DOCKED: USER    
DOCKED: USER    
DOCKED: USER    NEWDPF move ligand.dum.pdbqt
DOCKED: USER    NEWDPF about 0.108000 0.248000 -0.022000
DOCKED: USER    NEWDPF tran0 37.105292 11.856366 121.624875
DOCKED: USER    NEWDPF quaternion0 -0.470035 -0.485396 0.303911 -0.671637
DOCKED: USER    NEWDPF axisangle0 -0.634427 -0.655161 0.410203 -95.612976
DOCKED: USER    NEWDPF quat0 -0.634427 -0.655161 0.410203 -95.612976
DOCKED: USER    NEWDPF dihe0 -20.58 97.44 -92.66 -154.21 6.65 -167.08 78.24 -119.18 
DOCKED: USER  keepresnum = 1 
DOCKED: USER  
DOCKED: REMARK  Name = 
DOCKED: REMARK  8 active torsions:
DOCKED: REMARK  status: ('A' for Active; 'I' for Inactive)
DOCKED: REMARK    1  A    between atoms: C_2  and  C_10
DOCKED: REMARK    2  A    between atoms: N_3  and  C_4
DOCKED: REMARK    3  A    between atoms: C_10  and  C_11
DOCKED: REMARK    4  A    between atoms: C_11  and  C_12
DOCKED: REMARK    5  A    between atoms: C_12  and  C_13
DOCKED: REMARK    6  A    between atoms: C_13  and  C_14
DOCKED: REMARK    7  A    between atoms: C_14  and  C_15
DOCKED: REMARK    8  A    between atoms: C_15  and  C_16
DOCKED: REMARK                            x       y       z     vdW  Elec       q    Type
DOCKED: REMARK                         _______ _______ _______ _____ _____    ______ ____
DOCKED: USER                              x       y       z     vdW  Elec       q    Type
DOCKED: USER                           _______ _______ _______ _____ _____    ______ ____
DOCKED: ROOT
DOCKED: ATOM      1  C   UNL     1      37.185  10.953 122.817 -0.46 -0.00    +0.000 C 
DOCKED: ENDROOT
DOCKED: BRANCH   1   3
DOCKED: ATOM      2  O   UNL     1      36.868   9.219 121.208 -2.68 -0.00    +0.000 OA
DOCKED: ATOM      3  C   UNL     1      36.394   9.840 122.198 -0.66 -0.00    +0.000 C 
DOCKED: ATOM      4  N   UNL     1      35.106   9.493 122.732 -0.60 -0.00    +0.000 N 
DOCKED: ATOM      5  H   UNL     1      34.692  10.113 123.376 -0.41 -0.00    +0.000 HD
DOCKED: BRANCH   4   6
DOCKED: ATOM      6  C   UNL     1      34.382   8.300 122.391 -0.61 -0.00    +0.000 A 
DOCKED: ATOM      7  C   UNL     1      34.078   7.367 123.396 -0.65 -0.00    +0.000 A 
DOCKED: ATOM      8  C   UNL     1      33.397   6.186 123.085 -0.61 -0.00    +0.000 A 
DOCKED: ATOM      9  C   UNL     1      33.026   5.919 121.765 -0.34 -0.00    +0.000 A 
DOCKED: ATOM     10  C   UNL     1      33.342   6.829 120.753 -0.36 -0.00    +0.000 A 
DOCKED: ATOM     11  C   UNL     1      34.023   8.011 121.059 -0.54 -0.00    +0.000 A 
DOCKED: ATOM     12  CM  UNL     1      33.708   7.102 122.075 +0.00 -0.00    +0.000 AC
DOCKED: ENDBRANCH   4   6
DOCKED: ENDBRANCH   1   3
DOCKED: BRANCH   1  12
DOCKED: ATOM     13  C   UNL     1      36.264  12.125 123.174 -0.67 -0.00    +0.000 C 
DOCKED: BRANCH  12  13
DOCKED: ATOM     14  C   UNL     1      36.451  13.337 122.245 -0.33 -0.00    +0.000 C 
DOCKED: BRANCH  13  14
DOCKED: ATOM     15  C   UNL     1      37.327  14.451 122.855 -0.47 -0.00    +0.000 C 
DOCKED: BRANCH  14  15
DOCKED: ATOM     16  C   UNL     1      36.483  15.564 123.502 -0.41 -0.00    +0.000 C 
DOCKED: BRANCH  15  16
DOCKED: ATOM     17  C   UNL     1      35.055  15.102 123.820 -0.57 -0.00    +0.000 C 
DOCKED: BRANCH  16  17
DOCKED: ATOM     18  C   UNL     1      34.360  16.046 124.757 -0.55 -0.00    +0.000 C 
DOCKED: ATOM     19  N   UNL     1      33.921  15.598 126.041 -0.32 -0.00    +0.000 N 
DOCKED: ATOM     20  O   UNL     1      33.302  16.450 126.890 -1.01 -0.00    +0.000 OA
DOCKED: ATOM     21  O   UNL     1      34.189  17.248 124.418 -0.47 -0.00    +0.000 OA
DOCKED: ATOM     22  H   UNL     1      34.071  14.663 126.310 +0.04 -0.00    +0.000 HD
DOCKED: ENDBRANCH  16  17
DOCKED: ENDBRANCH  15  16
DOCKED: ENDBRANCH  14  15
DOCKED: ENDBRANCH  13  14
DOCKED: ENDBRANCH  12  13
DOCKED: ENDBRANCH   1  12
DOCKED: TORSDOF 8DOCKED: TER
DOCKED: ENDMDL
________________________________________________________________________________


	BEGINNING GENETIC ALGORITHM DOCKING 6 of 100
Run: 6 Seed: 256247559 526086078 [ Run 6 of 100 GA/GALS ]
Beginning LAMARCKIAN GENETIC ALGORITHM (LGA), with a maximum of 2500000 energy evaluations.

Final-Value: -12.755


	FINAL GENETIC ALGORITHM DOCKED STATE
	_______________________________________________


Detailed state:  trans 37.875 14.230 117.930 quatxyzw 0.344678 0.394871 0.278419 0.804833 center 0.108 0.248 -0.022 ntor 8 -81.7601 -169.3561 -1.6388 43.5149 71.7178 -133.2321 32.6742 -145.4655
State:	 37.875  14.230 117.930   0.581  0.665  0.469 72.812    -81.76 -169.36   -1.64   43.51   71.72 -133.23   32.67 -145.47

DOCKED: MODEL        6
DOCKED: USER    Run = 6
DOCKED: USER    DPF = ligand_dock.biased.dpf
DOCKED: USER  
DOCKED: USER    Estimated Free Energy of Binding    =   -9.58 kcal/mol  [=(1)+(2)+(3)-(4)]
DOCKED: USER    Estimated Inhibition Constant, Ki   =   94.29 nM (nanomolar)  [Temperature = 298.15 K]
DOCKED: USER    
DOCKED: USER    (1) Final Intermolecular Energy     =  -11.97 kcal/mol
DOCKED: USER        vdW + Hbond + desolv Energy     =  -11.97 kcal/mol
DOCKED: USER        Electrostatic Energy            =   +0.00 kcal/mol
DOCKED: USER    (2) Final Total Internal Energy     =   -0.78 kcal/mol
DOCKED: USER    (3) Torsional Free Energy           =   +2.39 kcal/mol
DOCKED: USER    (4) Unbound System's Energy  [=(2)] =   -0.78 kcal/mol
DOCKED: USER    
DOCKED: USER    
DOCKED: USER    NEWDPF move ligand.dum.pdbqt
DOCKED: USER    NEWDPF about 0.108000 0.248000 -0.022000
DOCKED: USER    NEWDPF tran0 37.875008 14.229519 117.929993
DOCKED: USER    NEWDPF quaternion0 0.344678 0.394871 0.278419 0.804833
DOCKED: USER    NEWDPF axisangle0 0.580754 0.665326 0.469113 72.811700
DOCKED: USER    NEWDPF quat0 0.580754 0.665326 0.469113 72.811700
DOCKED: USER    NEWDPF dihe0 -81.76 -169.36 -1.64 43.51 71.72 -133.23 32.67 -145.47 
DOCKED: USER  keepresnum = 1 
DOCKED: USER  
DOCKED: REMARK  Name = 
DOCKED: REMARK  8 active torsions:
DOCKED: REMARK  status: ('A' for Active; 'I' for Inactive)
DOCKED: REMARK    1  A    between atoms: C_2  and  C_10
DOCKED: REMARK    2  A    between atoms: N_3  and  C_4
DOCKED: REMARK    3  A    between atoms: C_10  and  C_11
DOCKED: REMARK    4  A    between atoms: C_11  and  C_12
DOCKED: REMARK    5  A    between atoms: C_12  and  C_13
DOCKED: REMARK    6  A    between atoms: C_13  and  C_14
DOCKED: REMARK    7  A    between atoms: C_14  and  C_15
DOCKED: REMARK    8  A    between atoms: C_15  and  C_16
DOCKED: REMARK                            x       y       z     vdW  Elec       q    Type
DOCKED: REMARK                         _______ _______ _______ _____ _____    ______ ____
DOCKED: USER                              x       y       z     vdW  Elec       q    Type
DOCKED: USER                           _______ _______ _______ _____ _____    ______ ____
DOCKED: ROOT
DOCKED: ATOM      1  C   UNL     1      36.792  13.199 118.025 -0.30 -0.00    +0.000 C 
DOCKED: ENDROOT
DOCKED: BRANCH   1   3
DOCKED: ATOM      2  O   UNL     1      36.528  14.220 115.885 -0.31 -0.00    +0.000 OA
DOCKED: ATOM      3  C   UNL     1      35.960  13.772 116.918 -0.35 -0.00    +0.000 C 
DOCKED: ATOM      4  N   UNL     1      34.529  13.809 117.042 -0.34 -0.00    +0.000 N 
DOCKED: ATOM      5  H   UNL     1      34.139  13.626 117.927 -0.05 -0.00    +0.000 HD
DOCKED: BRANCH   4   6
DOCKED: ATOM      6  C   UNL     1      33.630  14.095 115.958 -0.32 -0.00    +0.000 A 
DOCKED: ATOM      7  C   UNL     1      32.397  14.710 116.230 -0.30 -0.00    +0.000 A 
DOCKED: ATOM      8  C   UNL     1      31.493  14.975 115.196 -0.25 -0.00    +0.000 A 
DOCKED: ATOM      9  C   UNL     1      31.806  14.616 113.884 -0.19 -0.00    +0.000 A 
DOCKED: ATOM     10  C   UNL     1      33.021  13.985 113.603 -0.23 -0.00    +0.000 A 
DOCKED: ATOM     11  C   UNL     1      33.927  13.716 114.634 -0.26 -0.00    +0.000 A 
DOCKED: ATOM     12  CM  UNL     1      32.712  14.349 114.918 +0.00 -0.00    +0.000 AC
DOCKED: ENDBRANCH   4   6
DOCKED: ENDBRANCH   1   3
DOCKED: BRANCH   1  12
DOCKED: ATOM     13  C   UNL     1      36.706  14.090 119.269 -0.30 -0.00    +0.000 C 
DOCKED: BRANCH  12  13
DOCKED: ATOM     14  C   UNL     1      37.949  13.981 120.170 -0.37 -0.00    +0.000 C 
DOCKED: BRANCH  13  14
DOCKED: ATOM     15  C   UNL     1      38.117  12.594 120.823 -0.41 -0.00    +0.000 C 
DOCKED: BRANCH  14  15
DOCKED: ATOM     16  C   UNL     1      36.764  11.917 121.103 -0.49 -0.00    +0.000 C 
DOCKED: BRANCH  15  16
DOCKED: ATOM     17  C   UNL     1      36.767  11.132 122.421 -0.64 -0.00    +0.000 C 
DOCKED: BRANCH  16  17
DOCKED: ATOM     18  C   UNL     1      36.919   9.657 122.192 -0.63 -0.00    +0.000 C 
DOCKED: ATOM     19  N   UNL     1      36.932   8.750 123.296 -0.65 -0.00    +0.000 N 
DOCKED: ATOM     20  O   UNL     1      37.061   7.419 123.090 -2.36 -0.00    +0.000 OA
DOCKED: ATOM     21  O   UNL     1      37.008   9.215 121.015 -2.72 -0.00    +0.000 OA
DOCKED: ATOM     22  H   UNL     1      36.846   9.096 124.214 -0.51 -0.00    +0.000 HD
DOCKED: ENDBRANCH  16  17
DOCKED: ENDBRANCH  15  16
DOCKED: ENDBRANCH  14  15
DOCKED: ENDBRANCH  13  14
DOCKED: ENDBRANCH  12  13
DOCKED: ENDBRANCH   1  12
DOCKED: TORSDOF 8DOCKED: TER
DOCKED: ENDMDL
________________________________________________________________________________


	BEGINNING GENETIC ALGORITHM DOCKING 7 of 100
Run: 7 Seed: 1557051131 806463440 [ Run 7 of 100 GA/GALS ]
Beginning LAMARCKIAN GENETIC ALGORITHM (LGA), with a maximum of 2500000 energy evaluations.

Final-Value: -13.484


	FINAL GENETIC ALGORITHM DOCKED STATE
	_______________________________________________


Detailed state:  trans 39.498 16.044 120.942 quatxyzw -0.078128 0.849085 -0.502730 -0.142170 center 0.108 0.248 -0.022 ntor 8 -147.5305 105.4810 -82.4997 -1.7302 60.2005 174.0818 44.5538 -16.1175
State:	 39.498  16.044 120.942  -0.079  0.858 -0.508 -163.653   -147.53  105.48  -82.50   -1.73   60.20  174.08   44.55  -16.12

DOCKED: MODEL        7
DOCKED: USER    Run = 7
DOCKED: USER    DPF = ligand_dock.biased.dpf
DOCKED: USER  
DOCKED: USER    Estimated Free Energy of Binding    =  -10.36 kcal/mol  [=(1)+(2)+(3)-(4)]
DOCKED: USER    Estimated Inhibition Constant, Ki   =   25.67 nM (nanomolar)  [Temperature = 298.15 K]
DOCKED: USER    
DOCKED: USER    (1) Final Intermolecular Energy     =  -12.74 kcal/mol
DOCKED: USER        vdW + Hbond + desolv Energy     =  -12.74 kcal/mol
DOCKED: USER        Electrostatic Energy            =   +0.00 kcal/mol
DOCKED: USER    (2) Final Total Internal Energy     =   -0.74 kcal/mol
DOCKED: USER    (3) Torsional Free Energy           =   +2.39 kcal/mol
DOCKED: USER    (4) Unbound System's Energy  [=(2)] =   -0.74 kcal/mol
DOCKED: USER    
DOCKED: USER    
DOCKED: USER    NEWDPF move ligand.dum.pdbqt
DOCKED: USER    NEWDPF about 0.108000 0.248000 -0.022000
DOCKED: USER    NEWDPF tran0 39.497575 16.043740 120.942255
DOCKED: USER    NEWDPF quaternion0 -0.078128 0.849085 -0.502730 -0.142170
DOCKED: USER    NEWDPF axisangle0 -0.078930 0.857799 -0.507889 -163.653085
DOCKED: USER    NEWDPF quat0 -0.078930 0.857799 -0.507889 -163.653085
DOCKED: USER    NEWDPF dihe0 -147.53 105.48 -82.50 -1.73 60.20 174.08 44.55 -16.12 
DOCKED: USER  keepresnum = 1 
DOCKED: USER  
DOCKED: REMARK  Name = 
DOCKED: REMARK  8 active torsions:
DOCKED: REMARK  status: ('A' for Active; 'I' for Inactive)
DOCKED: REMARK    1  A    between atoms: C_2  and  C_10
DOCKED: REMARK    2  A    between atoms: N_3  and  C_4
DOCKED: REMARK    3  A    between atoms: C_10  and  C_11
DOCKED: REMARK    4  A    between atoms: C_11  and  C_12
DOCKED: REMARK    5  A    between atoms: C_12  and  C_13
DOCKED: REMARK    6  A    between atoms: C_13  and  C_14
DOCKED: REMARK    7  A    between atoms: C_14  and  C_15
DOCKED: REMARK    8  A    between atoms: C_15  and  C_16
DOCKED: REMARK                            x       y       z     vdW  Elec       q    Type
DOCKED: REMARK                         _______ _______ _______ _____ _____    ______ ____
DOCKED: USER                              x       y       z     vdW  Elec       q    Type
DOCKED: USER                           _______ _______ _______ _____ _____    ______ ____
DOCKED: ROOT
DOCKED: ATOM      1  C   UNL     1      39.695  15.666 122.378 -0.35 -0.00    +0.000 C 
DOCKED: ENDROOT
DOCKED: BRANCH   1   3
DOCKED: ATOM      2  O   UNL     1      41.814  15.860 123.459 -1.10 +0.00    +0.000 OA
DOCKED: ATOM      3  C   UNL     1      41.181  15.866 122.369 -0.42 -0.00    +0.000 C 
DOCKED: ATOM      4  N   UNL     1      41.869  16.064 121.123 -0.24 -0.00    +0.000 N 
DOCKED: ATOM      5  H   UNL     1      41.327  16.247 120.322 -0.00 -0.00    +0.000 HD
DOCKED: BRANCH   4   6
DOCKED: ATOM      6  C   UNL     1      43.297  16.010 120.969 -0.26 -0.00    +0.000 A 
DOCKED: ATOM      7  C   UNL     1      43.852  15.195 119.969 -0.17 -0.00    +0.000 A 
DOCKED: ATOM      8  C   UNL     1      45.239  15.106 119.816 -0.34 +0.00    +0.000 A 
DOCKED: ATOM      9  C   UNL     1      46.085  15.819 120.669 -0.26 +0.00    +0.000 A 
DOCKED: ATOM     10  C   UNL     1      45.545  16.617 121.681 -0.24 +0.00    +0.000 A 
DOCKED: ATOM     11  C   UNL     1      44.158  16.708 121.839 -0.28 -0.00    +0.000 A 
DOCKED: ATOM     12  CM  UNL     1      44.696  15.909 120.824 +0.00 +0.00    +0.000 AC
DOCKED: ENDBRANCH   4   6
DOCKED: ENDBRANCH   1   3
DOCKED: BRANCH   1  12
DOCKED: ATOM     13  C   UNL     1      39.325  14.397 121.603 -0.36 -0.00    +0.000 C 
DOCKED: BRANCH  12  13
DOCKED: ATOM     14  C   UNL     1      38.038  14.556 120.775 -0.33 -0.00    +0.000 C 
DOCKED: BRANCH  13  14
DOCKED: ATOM     15  C   UNL     1      36.915  13.582 121.187 -0.30 -0.00    +0.000 C 
DOCKED: BRANCH  14  15
DOCKED: ATOM     16  C   UNL     1      37.444  12.158 121.434 -0.50 -0.00    +0.000 C 
DOCKED: BRANCH  15  16
DOCKED: ATOM     17  C   UNL     1      36.373  11.234 122.029 -0.62 -0.00    +0.000 C 
DOCKED: BRANCH  16  17
DOCKED: ATOM     18  C   UNL     1      36.847   9.812 122.111 -0.63 -0.00    +0.000 C 
DOCKED: ATOM     19  N   UNL     1      37.023   9.181 123.381 -0.58 -0.00    +0.000 N 
DOCKED: ATOM     20  O   UNL     1      37.441   7.896 123.457 -2.52 -0.00    +0.000 OA
DOCKED: ATOM     21  O   UNL     1      37.062   9.164 121.052 -2.73 -0.00    +0.000 OA
DOCKED: ATOM     22  H   UNL     1      36.839   9.684 124.207 -0.52 -0.00    +0.000 HD
DOCKED: ENDBRANCH  16  17
DOCKED: ENDBRANCH  15  16
DOCKED: ENDBRANCH  14  15
DOCKED: ENDBRANCH  13  14
DOCKED: ENDBRANCH  12  13
DOCKED: ENDBRANCH   1  12
DOCKED: TORSDOF 8DOCKED: TER
DOCKED: ENDMDL
________________________________________________________________________________


	BEGINNING GENETIC ALGORITHM DOCKING 8 of 100
Run: 8 Seed: 2053125599 1943322974 [ Run 8 of 100 GA/GALS ]
Beginning LAMARCKIAN GENETIC ALGORITHM (LGA), with a maximum of 2500000 energy evaluations.

Final-Value: -13.818


	FINAL GENETIC ALGORITHM DOCKED STATE
	_______________________________________________


Detailed state:  trans 37.542 11.725 121.291 quatxyzw -0.646651 -0.507706 0.268949 -0.501740 center 0.108 0.248 -0.022 ntor 8 136.3924 -179.2042 87.2867 -29.3850 -143.4319 53.2102 -60.1610 -151.3977
State:	 37.542  11.725 121.291  -0.748 -0.587  0.311 -119.770    136.39 -179.20   87.29  -29.38 -143.43   53.21  -60.16 -151.40

DOCKED: MODEL        8
DOCKED: USER    Run = 8
DOCKED: USER    DPF = ligand_dock.biased.dpf
DOCKED: USER  
DOCKED: USER    Estimated Free Energy of Binding    =  -10.63 kcal/mol  [=(1)+(2)+(3)-(4)]
DOCKED: USER    Estimated Inhibition Constant, Ki   =   16.03 nM (nanomolar)  [Temperature = 298.15 K]
DOCKED: USER    
DOCKED: USER    (1) Final Intermolecular Energy     =  -13.02 kcal/mol
DOCKED: USER        vdW + Hbond + desolv Energy     =  -13.02 kcal/mol
DOCKED: USER        Electrostatic Energy            =   +0.00 kcal/mol
DOCKED: USER    (2) Final Total Internal Energy     =   -0.80 kcal/mol
DOCKED: USER    (3) Torsional Free Energy           =   +2.39 kcal/mol
DOCKED: USER    (4) Unbound System's Energy  [=(2)] =   -0.80 kcal/mol
DOCKED: USER    
DOCKED: USER    
DOCKED: USER    NEWDPF move ligand.dum.pdbqt
DOCKED: USER    NEWDPF about 0.108000 0.248000 -0.022000
DOCKED: USER    NEWDPF tran0 37.542193 11.725076 121.290902
DOCKED: USER    NEWDPF quaternion0 -0.646651 -0.507706 0.268949 -0.501740
DOCKED: USER    NEWDPF axisangle0 -0.747557 -0.586931 0.310918 -119.769573
DOCKED: USER    NEWDPF quat0 -0.747557 -0.586931 0.310918 -119.769573
DOCKED: USER    NEWDPF dihe0 136.39 -179.20 87.29 -29.38 -143.43 53.21 -60.16 -151.40 
DOCKED: USER  keepresnum = 1 
DOCKED: USER  
DOCKED: REMARK  Name = 
DOCKED: REMARK  8 active torsions:
DOCKED: REMARK  status: ('A' for Active; 'I' for Inactive)
DOCKED: REMARK    1  A    between atoms: C_2  and  C_10
DOCKED: REMARK    2  A    between atoms: N_3  and  C_4
DOCKED: REMARK    3  A    between atoms: C_10  and  C_11
DOCKED: REMARK    4  A    between atoms: C_11  and  C_12
DOCKED: REMARK    5  A    between atoms: C_12  and  C_13
DOCKED: REMARK    6  A    between atoms: C_13  and  C_14
DOCKED: REMARK    7  A    between atoms: C_14  and  C_15
DOCKED: REMARK    8  A    between atoms: C_15  and  C_16
DOCKED: REMARK                            x       y       z     vdW  Elec       q    Type
DOCKED: REMARK                         _______ _______ _______ _____ _____    ______ ____
DOCKED: USER                              x       y       z     vdW  Elec       q    Type
DOCKED: USER                           _______ _______ _______ _____ _____    ______ ____
DOCKED: ROOT
DOCKED: ATOM      1  C   UNL     1      37.114  11.301 122.662 -0.56 -0.00    +0.000 C 
DOCKED: ENDROOT
DOCKED: BRANCH   1   3
DOCKED: ATOM      2  O   UNL     1      36.835   9.426 121.213 -2.49 -0.00    +0.000 OA
DOCKED: ATOM      3  C   UNL     1      36.395  10.067 122.205 -0.65 -0.00    +0.000 C 
DOCKED: ATOM      4  N   UNL     1      35.213   9.629 122.896 -0.60 -0.00    +0.000 N 
DOCKED: ATOM      5  H   UNL     1      34.799  10.250 123.538 -0.43 -0.00    +0.000 HD
DOCKED: BRANCH   4   6
DOCKED: ATOM      6  C   UNL     1      34.597   8.344 122.711 -0.61 -0.00    +0.000 A 
DOCKED: ATOM      7  C   UNL     1      34.102   7.993 121.444 -0.57 -0.00    +0.000 A 
DOCKED: ATOM      8  C   UNL     1      33.477   6.759 121.245 -0.42 -0.00    +0.000 A 
DOCKED: ATOM      9  C   UNL     1      33.326   5.870 122.312 -0.62 -0.00    +0.000 A 
DOCKED: ATOM     10  C   UNL     1      33.795   6.217 123.581 -0.58 -0.00    +0.000 A 
DOCKED: ATOM     11  C   UNL     1      34.421   7.451 123.786 -0.59 -0.00    +0.000 A 
DOCKED: ATOM     12  CM  UNL     1      33.953   7.106 122.513 +0.00 -0.00    +0.000 AC
DOCKED: ENDBRANCH   4   6
DOCKED: ENDBRANCH   1   3
DOCKED: BRANCH   1  12
DOCKED: ATOM     13  C   UNL     1      36.314  12.553 122.284 -0.49 -0.00    +0.000 C 
DOCKED: BRANCH  12  13
DOCKED: ATOM     14  C   UNL     1      35.779  13.313 123.510 -0.54 -0.00    +0.000 C 
DOCKED: BRANCH  13  14
DOCKED: ATOM     15  C   UNL     1      36.290  14.765 123.606 -0.49 -0.00    +0.000 C 
DOCKED: BRANCH  14  15
DOCKED: ATOM     16  C   UNL     1      35.160  15.792 123.414 -0.47 -0.00    +0.000 C 
DOCKED: BRANCH  15  16
DOCKED: ATOM     17  C   UNL     1      35.349  17.037 124.291 -0.39 -0.00    +0.000 C 
DOCKED: BRANCH  16  17
DOCKED: ATOM     18  C   UNL     1      34.310  17.123 125.370 -0.44 -0.00    +0.000 C 
DOCKED: ATOM     19  N   UNL     1      33.873  15.944 126.049 -0.46 -0.00    +0.000 N 
DOCKED: ATOM     20  O   UNL     1      32.944  16.020 127.029 -1.18 -0.00    +0.000 OA
DOCKED: ATOM     21  O   UNL     1      33.843  18.246 125.698 -0.39 -0.00    +0.000 OA
DOCKED: ATOM     22  H   UNL     1      34.252  15.069 125.802 -0.05 -0.00    +0.000 HD
DOCKED: ENDBRANCH  16  17
DOCKED: ENDBRANCH  15  16
DOCKED: ENDBRANCH  14  15
DOCKED: ENDBRANCH  13  14
DOCKED: ENDBRANCH  12  13
DOCKED: ENDBRANCH   1  12
DOCKED: TORSDOF 8DOCKED: TER
DOCKED: ENDMDL
________________________________________________________________________________


	BEGINNING GENETIC ALGORITHM DOCKING 9 of 100
Run: 9 Seed: 850227406 1140940463 [ Run 9 of 100 GA/GALS ]
Beginning LAMARCKIAN GENETIC ALGORITHM (LGA), with a maximum of 2500000 energy evaluations.

Final-Value: -13.570


	FINAL GENETIC ALGORITHM DOCKED STATE
	_______________________________________________


Detailed state:  trans 36.735 16.135 120.631 quatxyzw 0.076847 -0.595959 0.379643 -0.703419 center 0.108 0.248 -0.022 ntor 8 37.5768 113.7562 14.1840 -174.3581 -129.9986 129.4856 -78.9055 88.3898
State:	 36.735  16.135 120.631   0.108 -0.838  0.534 -90.596     37.58  113.76   14.18 -174.36 -130.00  129.49  -78.91   88.39

DOCKED: MODEL        9
DOCKED: USER    Run = 9
DOCKED: USER    DPF = ligand_dock.biased.dpf
DOCKED: USER  
DOCKED: USER    Estimated Free Energy of Binding    =  -10.21 kcal/mol  [=(1)+(2)+(3)-(4)]
DOCKED: USER    Estimated Inhibition Constant, Ki   =   32.64 nM (nanomolar)  [Temperature = 298.15 K]
DOCKED: USER    
DOCKED: USER    (1) Final Intermolecular Energy     =  -12.60 kcal/mol
DOCKED: USER        vdW + Hbond + desolv Energy     =  -12.60 kcal/mol
DOCKED: USER        Electrostatic Energy            =   +0.00 kcal/mol
DOCKED: USER    (2) Final Total Internal Energy     =   -0.97 kcal/mol
DOCKED: USER    (3) Torsional Free Energy           =   +2.39 kcal/mol
DOCKED: USER    (4) Unbound System's Energy  [=(2)] =   -0.97 kcal/mol
DOCKED: USER    
DOCKED: USER    
DOCKED: USER    NEWDPF move ligand.dum.pdbqt
DOCKED: USER    NEWDPF about 0.108000 0.248000 -0.022000
DOCKED: USER    NEWDPF tran0 36.735186 16.135164 120.630663
DOCKED: USER    NEWDPF quaternion0 0.076847 -0.595959 0.379643 -0.703419
DOCKED: USER    NEWDPF axisangle0 0.108117 -0.838464 0.534125 -90.596078
DOCKED: USER    NEWDPF quat0 0.108117 -0.838464 0.534125 -90.596078
DOCKED: USER    NEWDPF dihe0 37.58 113.76 14.18 -174.36 -130.00 129.49 -78.91 88.39 
DOCKED: USER  keepresnum = 1 
DOCKED: USER  
DOCKED: REMARK  Name = 
DOCKED: REMARK  8 active torsions:
DOCKED: REMARK  status: ('A' for Active; 'I' for Inactive)
DOCKED: REMARK    1  A    between atoms: C_2  and  C_10
DOCKED: REMARK    2  A    between atoms: N_3  and  C_4
DOCKED: REMARK    3  A    between atoms: C_10  and  C_11
DOCKED: REMARK    4  A    between atoms: C_11  and  C_12
DOCKED: REMARK    5  A    between atoms: C_12  and  C_13
DOCKED: REMARK    6  A    between atoms: C_13  and  C_14
DOCKED: REMARK    7  A    between atoms: C_14  and  C_15
DOCKED: REMARK    8  A    between atoms: C_15  and  C_16
DOCKED: REMARK                            x       y       z     vdW  Elec       q    Type
DOCKED: REMARK                         _______ _______ _______ _____ _____    ______ ____
DOCKED: USER                              x       y       z     vdW  Elec       q    Type
DOCKED: USER                           _______ _______ _______ _____ _____    ______ ____
DOCKED: ROOT
DOCKED: ATOM      1  C   UNL     1      37.849  15.143 120.765 -0.27 -0.00    +0.000 C 
DOCKED: ENDROOT
DOCKED: BRANCH   1   3
DOCKED: ATOM      2  O   UNL     1      36.677  13.473 119.527 -0.43 -0.00    +0.000 OA
DOCKED: ATOM      3  C   UNL     1      37.527  14.404 119.501 -0.32 -0.00    +0.000 C 
DOCKED: ATOM      4  N   UNL     1      38.188  14.759 118.275 -0.21 -0.00    +0.000 N 
DOCKED: ATOM      5  H   UNL     1      38.970  15.355 118.330 -0.04 -0.00    +0.000 HD
DOCKED: BRANCH   4   6
DOCKED: ATOM      6  C   UNL     1      37.782  14.302 116.975 -0.29 -0.00    +0.000 A 
DOCKED: ATOM      7  C   UNL     1      38.753  13.833 116.075 -0.35 -0.00    +0.000 A 
DOCKED: ATOM      8  C   UNL     1      38.387  13.407 114.795 -0.38 -0.00    +0.000 A 
DOCKED: ATOM      9  C   UNL     1      37.050  13.459 114.396 -0.33 -0.00    +0.000 A 
DOCKED: ATOM     10  C   UNL     1      36.077  13.944 115.274 -0.27 -0.00    +0.000 A 
DOCKED: ATOM     11  C   UNL     1      36.439  14.372 116.556 -0.29 -0.00    +0.000 A 
DOCKED: ATOM     12  CM  UNL     1      37.415  13.887 115.678 +0.00 -0.00    +0.000 AC
DOCKED: ENDBRANCH   4   6
DOCKED: ENDBRANCH   1   3
DOCKED: BRANCH   1  12
DOCKED: ATOM     13  C   UNL     1      36.805  14.830 121.843 -0.27 -0.00    +0.000 C 
DOCKED: BRANCH  12  13
DOCKED: ATOM     14  C   UNL     1      37.238  13.690 122.782 -0.53 -0.00    +0.000 C 
DOCKED: BRANCH  13  14
DOCKED: ATOM     15  C   UNL     1      36.075  13.090 123.599 -0.61 -0.00    +0.000 C 
DOCKED: BRANCH  14  15
DOCKED: ATOM     16  C   UNL     1      35.985  11.561 123.444 -0.70 -0.00    +0.000 C 
DOCKED: BRANCH  15  16
DOCKED: ATOM     17  C   UNL     1      37.064  11.006 122.505 -0.58 -0.00    +0.000 C 
DOCKED: BRANCH  16  17
DOCKED: ATOM     18  C   UNL     1      36.945   9.520 122.335 -0.64 -0.00    +0.000 C 
DOCKED: ATOM     19  N   UNL     1      37.051   8.651 123.465 -0.64 -0.00    +0.000 N 
DOCKED: ATOM     20  O   UNL     1      36.935   7.312 123.314 -2.29 -0.00    +0.000 OA
DOCKED: ATOM     21  O   UNL     1      36.721   9.039 121.192 -2.63 -0.00    +0.000 OA
DOCKED: ATOM     22  H   UNL     1      37.210   9.030 124.359 -0.56 -0.00    +0.000 HD
DOCKED: ENDBRANCH  16  17
DOCKED: ENDBRANCH  15  16
DOCKED: ENDBRANCH  14  15
DOCKED: ENDBRANCH  13  14
DOCKED: ENDBRANCH  12  13
DOCKED: ENDBRANCH   1  12
DOCKED: TORSDOF 8DOCKED: TER
DOCKED: ENDMDL
________________________________________________________________________________


	BEGINNING GENETIC ALGORITHM DOCKING 10 of 100
Run: 10 Seed: 1255918523 613643960 [ Run 10 of 100 GA/GALS ]
Beginning LAMARCKIAN GENETIC ALGORITHM (LGA), with a maximum of 2500000 energy evaluations.

Final-Value: -13.224


	FINAL GENETIC ALGORITHM DOCKED STATE
	_______________________________________________


Detailed state:  trans 38.210 11.227 121.579 quatxyzw 0.794257 0.514193 -0.119412 0.300836 center 0.108 0.248 -0.022 ntor 8 -180.0000 155.6615 -107.0556 36.8802 9.4485 52.9438 -23.0515 -177.5927
State:	 38.210  11.227 121.579   0.833  0.539 -0.125 144.984   -180.00  155.66 -107.06   36.88    9.45   52.94  -23.05 -177.59

DOCKED: MODEL       10
DOCKED: USER    Run = 10
DOCKED: USER    DPF = ligand_dock.biased.dpf
DOCKED: USER  
DOCKED: USER    Estimated Free Energy of Binding    =  -10.12 kcal/mol  [=(1)+(2)+(3)-(4)]
DOCKED: USER    Estimated Inhibition Constant, Ki   =   37.89 nM (nanomolar)  [Temperature = 298.15 K]
DOCKED: USER    
DOCKED: USER    (1) Final Intermolecular Energy     =  -12.51 kcal/mol
DOCKED: USER        vdW + Hbond + desolv Energy     =  -12.51 kcal/mol
DOCKED: USER        Electrostatic Energy            =   +0.00 kcal/mol
DOCKED: USER    (2) Final Total Internal Energy     =   -0.71 kcal/mol
DOCKED: USER    (3) Torsional Free Energy           =   +2.39 kcal/mol
DOCKED: USER    (4) Unbound System's Energy  [=(2)] =   -0.71 kcal/mol
DOCKED: USER    
DOCKED: USER    
DOCKED: USER    NEWDPF move ligand.dum.pdbqt
DOCKED: USER    NEWDPF about 0.108000 0.248000 -0.022000
DOCKED: USER    NEWDPF tran0 38.209799 11.227196 121.579024
DOCKED: USER    NEWDPF quaternion0 0.794257 0.514193 -0.119412 0.300836
DOCKED: USER    NEWDPF axisangle0 0.832837 0.539169 -0.125213 144.984340
DOCKED: USER    NEWDPF quat0 0.832837 0.539169 -0.125213 144.984340
DOCKED: USER    NEWDPF dihe0 -180.00 155.66 -107.06 36.88 9.45 52.94 -23.05 -177.59 
DOCKED: USER  keepresnum = 1 
DOCKED: USER  
DOCKED: REMARK  Name = 
DOCKED: REMARK  8 active torsions:
DOCKED: REMARK  status: ('A' for Active; 'I' for Inactive)
DOCKED: REMARK    1  A    between atoms: C_2  and  C_10
DOCKED: REMARK    2  A    between atoms: N_3  and  C_4
DOCKED: REMARK    3  A    between atoms: C_10  and  C_11
DOCKED: REMARK    4  A    between atoms: C_11  and  C_12
DOCKED: REMARK    5  A    between atoms: C_12  and  C_13
DOCKED: REMARK    6  A    between atoms: C_13  and  C_14
DOCKED: REMARK    7  A    between atoms: C_14  and  C_15
DOCKED: REMARK    8  A    between atoms: C_15  and  C_16
DOCKED: REMARK                            x       y       z     vdW  Elec       q    Type
DOCKED: REMARK                         _______ _______ _______ _____ _____    ______ ____
DOCKED: USER                              x       y       z     vdW  Elec       q    Type
DOCKED: USER                           _______ _______ _______ _____ _____    ______ ____
DOCKED: ROOT
DOCKED: ATOM      1  C   UNL     1      37.135  11.265 122.622 -0.53 -0.00    +0.000 C 
DOCKED: ENDROOT
DOCKED: BRANCH   1   3
DOCKED: ATOM      2  O   UNL     1      36.945   9.347 121.216 -2.58 -0.00    +0.000 OA
DOCKED: ATOM      3  C   UNL     1      36.421  10.044 122.127 -0.64 -0.00    +0.000 C 
DOCKED: ATOM      4  N   UNL     1      35.150   9.679 122.690 -0.60 -0.00    +0.000 N 
DOCKED: ATOM      5  H   UNL     1      34.692  10.340 123.258 -0.36 -0.00    +0.000 HD
DOCKED: BRANCH   4   6
DOCKED: ATOM      6  C   UNL     1      34.505   8.412 122.479 -0.61 -0.00    +0.000 A 
DOCKED: ATOM      7  C   UNL     1      34.517   7.455 123.507 -0.65 -0.00    +0.000 A 
DOCKED: ATOM      8  C   UNL     1      33.918   6.205 123.318 -0.64 -0.00    +0.000 A 
DOCKED: ATOM      9  C   UNL     1      33.316   5.895 122.097 -0.57 -0.00    +0.000 A 
DOCKED: ATOM     10  C   UNL     1      33.316   6.831 121.060 -0.40 -0.00    +0.000 A 
DOCKED: ATOM     11  C   UNL     1      33.915   8.082 121.244 -0.57 -0.00    +0.000 A 
DOCKED: ATOM     12  CM  UNL     1      33.915   7.147 122.284 +0.00 -0.00    +0.000 AC
DOCKED: ENDBRANCH   4   6
DOCKED: ENDBRANCH   1   3
DOCKED: BRANCH   1  12
DOCKED: ATOM     13  C   UNL     1      36.905  12.439 121.664 -0.53 -0.00    +0.000 C 
DOCKED: BRANCH  12  13
DOCKED: ATOM     14  C   UNL     1      36.951  13.806 122.371 -0.47 -0.00    +0.000 C 
DOCKED: BRANCH  13  14
DOCKED: ATOM     15  C   UNL     1      38.051  14.742 121.830 -0.38 -0.00    +0.000 C 
DOCKED: BRANCH  14  15
DOCKED: ATOM     16  C   UNL     1      39.354  14.638 122.643 -0.40 -0.00    +0.000 C 
DOCKED: BRANCH  15  16
DOCKED: ATOM     17  C   UNL     1      40.134  15.959 122.667 -0.35 -0.00    +0.000 C 
DOCKED: BRANCH  16  17
DOCKED: ATOM     18  C   UNL     1      41.604  15.743 122.459 -0.47 -0.00    +0.000 C 
DOCKED: ATOM     19  N   UNL     1      42.134  15.590 121.141 -0.28 -0.00    +0.000 N 
DOCKED: ATOM     20  O   UNL     1      43.461  15.404 120.952 -0.34 -0.00    +0.000 OA
DOCKED: ATOM     21  O   UNL     1      42.378  15.725 123.454 -1.13 +0.00    +0.000 OA
DOCKED: ATOM     22  H   UNL     1      41.529  15.621 120.365 -0.01 -0.00    +0.000 HD
DOCKED: ENDBRANCH  16  17
DOCKED: ENDBRANCH  15  16
DOCKED: ENDBRANCH  14  15
DOCKED: ENDBRANCH  13  14
DOCKED: ENDBRANCH  12  13
DOCKED: ENDBRANCH   1  12
DOCKED: TORSDOF 8DOCKED: TER
DOCKED: ENDMDL
________________________________________________________________________________


	BEGINNING GENETIC ALGORITHM DOCKING 11 of 100
Run: 11 Seed: 1744169230 1960748948 [ Run 11 of 100 GA/GALS ]
Beginning LAMARCKIAN GENETIC ALGORITHM (LGA), with a maximum of 2500000 energy evaluations.

Final-Value: -12.875


	FINAL GENETIC ALGORITHM DOCKED STATE
	_______________________________________________


Detailed state:  trans 35.040 10.395 123.603 quatxyzw -0.411913 0.705547 0.502140 0.283525 center 0.108 0.248 -0.022 ntor 8 -170.9735 -155.8796 -8.5976 -170.9103 -110.7467 -175.0563 23.8894 -163.7539
State:	 35.040  10.395 123.603  -0.430  0.736  0.524 147.059   -170.97 -155.88   -8.60 -170.91 -110.75 -175.06   23.89 -163.75

DOCKED: MODEL       11
DOCKED: USER    Run = 11
DOCKED: USER    DPF = ligand_dock.biased.dpf
DOCKED: USER  
DOCKED: USER    Estimated Free Energy of Binding    =   -9.57 kcal/mol  [=(1)+(2)+(3)-(4)]
DOCKED: USER    Estimated Inhibition Constant, Ki   =   97.01 nM (nanomolar)  [Temperature = 298.15 K]
DOCKED: USER    
DOCKED: USER    (1) Final Intermolecular Energy     =  -11.95 kcal/mol
DOCKED: USER        vdW + Hbond + desolv Energy     =  -11.95 kcal/mol
DOCKED: USER        Electrostatic Energy            =   +0.00 kcal/mol
DOCKED: USER    (2) Final Total Internal Energy     =   -0.92 kcal/mol
DOCKED: USER    (3) Torsional Free Energy           =   +2.39 kcal/mol
DOCKED: USER    (4) Unbound System's Energy  [=(2)] =   -0.92 kcal/mol
DOCKED: USER    
DOCKED: USER    
DOCKED: USER    NEWDPF move ligand.dum.pdbqt
DOCKED: USER    NEWDPF about 0.108000 0.248000 -0.022000
DOCKED: USER    NEWDPF tran0 35.040094 10.395060 123.603104
DOCKED: USER    NEWDPF quaternion0 -0.411913 0.705547 0.502140 0.283525
DOCKED: USER    NEWDPF axisangle0 -0.429539 0.735738 0.523628 147.058553
DOCKED: USER    NEWDPF quat0 -0.429539 0.735738 0.523628 147.058553
DOCKED: USER    NEWDPF dihe0 -170.97 -155.88 -8.60 -170.91 -110.75 -175.06 23.89 -163.75 
DOCKED: USER  keepresnum = 1 
DOCKED: USER  
DOCKED: REMARK  Name = 
DOCKED: REMARK  8 active torsions:
DOCKED: REMARK  status: ('A' for Active; 'I' for Inactive)
DOCKED: REMARK    1  A    between atoms: C_2  and  C_10
DOCKED: REMARK    2  A    between atoms: N_3  and  C_4
DOCKED: REMARK    3  A    between atoms: C_10  and  C_11
DOCKED: REMARK    4  A    between atoms: C_11  and  C_12
DOCKED: REMARK    5  A    between atoms: C_12  and  C_13
DOCKED: REMARK    6  A    between atoms: C_13  and  C_14
DOCKED: REMARK    7  A    between atoms: C_14  and  C_15
DOCKED: REMARK    8  A    between atoms: C_15  and  C_16
DOCKED: REMARK                            x       y       z     vdW  Elec       q    Type
DOCKED: REMARK                         _______ _______ _______ _____ _____    ______ ____
DOCKED: USER                              x       y       z     vdW  Elec       q    Type
DOCKED: USER                           _______ _______ _______ _____ _____    ______ ____
DOCKED: ROOT
DOCKED: ATOM      1  C   UNL     1      35.849  10.314 122.345 -0.66 -0.00    +0.000 C 
DOCKED: ENDROOT
DOCKED: BRANCH   1   3
DOCKED: ATOM      2  O   UNL     1      36.267  12.381 123.462 -0.68 -0.00    +0.000 OA
DOCKED: ATOM      3  C   UNL     1      36.288  11.747 122.372 -0.62 -0.00    +0.000 C 
DOCKED: ATOM      4  N   UNL     1      36.725  12.386 121.162 -0.47 -0.00    +0.000 N 
DOCKED: ATOM      5  H   UNL     1      36.553  11.924 120.310 -0.13 -0.00    +0.000 HD
DOCKED: BRANCH   4   6
DOCKED: ATOM      6  C   UNL     1      37.399  13.655 121.114 -0.38 -0.00    +0.000 A 
DOCKED: ATOM      7  C   UNL     1      37.362  14.410 119.930 -0.28 -0.00    +0.000 A 
DOCKED: ATOM      8  C   UNL     1      38.030  15.635 119.850 -0.17 -0.00    +0.000 A 
DOCKED: ATOM      9  C   UNL     1      38.755  16.111 120.945 -0.16 -0.00    +0.000 A 
DOCKED: ATOM     10  C   UNL     1      38.816  15.359 122.121 -0.30 -0.00    +0.000 A 
DOCKED: ATOM     11  C   UNL     1      38.150  14.132 122.206 -0.41 -0.00    +0.000 A 
DOCKED: ATOM     12  CM  UNL     1      38.086  14.883 121.027 +0.00 -0.00    +0.000 AC
DOCKED: ENDBRANCH   4   6
DOCKED: ENDBRANCH   1   3
DOCKED: BRANCH   1  12
DOCKED: ATOM     13  C   UNL     1      34.368  10.220 121.961 -0.28 -0.00    +0.000 C 
DOCKED: BRANCH  12  13
DOCKED: ATOM     14  C   UNL     1      33.740   8.864 122.328 -0.64 -0.00    +0.000 C 
DOCKED: BRANCH  13  14
DOCKED: ATOM     15  C   UNL     1      33.448   7.970 121.105 -0.61 -0.00    +0.000 C 
DOCKED: BRANCH  14  15
DOCKED: ATOM     16  C   UNL     1      33.638   6.475 121.420 -0.45 -0.00    +0.000 C 
DOCKED: BRANCH  15  16
DOCKED: ATOM     17  C   UNL     1      34.002   6.232 122.891 -0.77 -0.00    +0.000 C 
DOCKED: BRANCH  16  17
DOCKED: ATOM     18  C   UNL     1      35.484   6.291 123.116 -0.76 -0.00    +0.000 C 
DOCKED: ATOM     19  N   UNL     1      36.113   7.523 123.475 -0.69 -0.00    +0.000 N 
DOCKED: ATOM     20  O   UNL     1      37.448   7.576 123.688 -2.34 -0.00    +0.000 OA
DOCKED: ATOM     21  O   UNL     1      36.172   5.240 123.016 -1.12 -0.00    +0.000 OA
DOCKED: ATOM     22  H   UNL     1      35.570   8.339 123.569 -0.03 -0.00    +0.000 HD
DOCKED: ENDBRANCH  16  17
DOCKED: ENDBRANCH  15  16
DOCKED: ENDBRANCH  14  15
DOCKED: ENDBRANCH  13  14
DOCKED: ENDBRANCH  12  13
DOCKED: ENDBRANCH   1  12
DOCKED: TORSDOF 8DOCKED: TER
DOCKED: ENDMDL
________________________________________________________________________________


	BEGINNING GENETIC ALGORITHM DOCKING 12 of 100
Run: 12 Seed: 626486216 1069209993 [ Run 12 of 100 GA/GALS ]
Beginning LAMARCKIAN GENETIC ALGORITHM (LGA), with a maximum of 2500000 energy evaluations.

Final-Value: -12.827


	FINAL GENETIC ALGORITHM DOCKED STATE
	_______________________________________________


Detailed state:  trans 35.670 11.957 123.249 quatxyzw -0.371552 -0.148090 -0.607785 0.686014 center 0.108 0.248 -0.022 ntor 8 88.6673 -155.6275 178.6579 -81.2985 -146.9392 -168.2963 41.8320 12.0426
State:	 35.670  11.957 123.249  -0.511 -0.204 -0.835 93.369     88.67 -155.63  178.66  -81.30 -146.94 -168.30   41.83   12.04

DOCKED: MODEL       12
DOCKED: USER    Run = 12
DOCKED: USER    DPF = ligand_dock.biased.dpf
DOCKED: USER  
DOCKED: USER    Estimated Free Energy of Binding    =   -9.48 kcal/mol  [=(1)+(2)+(3)-(4)]
DOCKED: USER    Estimated Inhibition Constant, Ki   =  111.81 nM (nanomolar)  [Temperature = 298.15 K]
DOCKED: USER    
DOCKED: USER    (1) Final Intermolecular Energy     =  -11.87 kcal/mol
DOCKED: USER        vdW + Hbond + desolv Energy     =  -11.87 kcal/mol
DOCKED: USER        Electrostatic Energy            =   +0.00 kcal/mol
DOCKED: USER    (2) Final Total Internal Energy     =   -0.96 kcal/mol
DOCKED: USER    (3) Torsional Free Energy           =   +2.39 kcal/mol
DOCKED: USER    (4) Unbound System's Energy  [=(2)] =   -0.96 kcal/mol
DOCKED: USER    
DOCKED: USER    
DOCKED: USER    NEWDPF move ligand.dum.pdbqt
DOCKED: USER    NEWDPF about 0.108000 0.248000 -0.022000
DOCKED: USER    NEWDPF tran0 35.669600 11.957081 123.248700
DOCKED: USER    NEWDPF quaternion0 -0.371552 -0.148090 -0.607785 0.686014
DOCKED: USER    NEWDPF axisangle0 -0.510663 -0.203535 -0.835342 93.369121
DOCKED: USER    NEWDPF quat0 -0.510663 -0.203535 -0.835342 93.369121
DOCKED: USER    NEWDPF dihe0 88.67 -155.63 178.66 -81.30 -146.94 -168.30 41.83 12.04 
DOCKED: USER  keepresnum = 1 
DOCKED: USER  
DOCKED: REMARK  Name = 
DOCKED: REMARK  8 active torsions:
DOCKED: REMARK  status: ('A' for Active; 'I' for Inactive)
DOCKED: REMARK    1  A    between atoms: C_2  and  C_10
DOCKED: REMARK    2  A    between atoms: N_3  and  C_4
DOCKED: REMARK    3  A    between atoms: C_10  and  C_11
DOCKED: REMARK    4  A    between atoms: C_11  and  C_12
DOCKED: REMARK    5  A    between atoms: C_12  and  C_13
DOCKED: REMARK    6  A    between atoms: C_13  and  C_14
DOCKED: REMARK    7  A    between atoms: C_14  and  C_15
DOCKED: REMARK    8  A    between atoms: C_15  and  C_16
DOCKED: REMARK                            x       y       z     vdW  Elec       q    Type
DOCKED: REMARK                         _______ _______ _______ _____ _____    ______ ____
DOCKED: USER                              x       y       z     vdW  Elec       q    Type
DOCKED: USER                           _______ _______ _______ _____ _____    ______ ____
DOCKED: ROOT
DOCKED: ATOM      1  C   UNL     1      36.462  11.770 121.991 -0.59 -0.00    +0.000 C 
DOCKED: ENDROOT
DOCKED: BRANCH   1   3
DOCKED: ATOM      2  O   UNL     1      37.020   9.591 121.194 -2.40 -0.00    +0.000 OA
DOCKED: ATOM      3  C   UNL     1      36.263  10.286 121.924 -0.48 -0.00    +0.000 C 
DOCKED: ATOM      4  N   UNL     1      35.213   9.668 122.688 -0.60 -0.00    +0.000 N 
DOCKED: ATOM      5  H   UNL     1      34.534  10.254 123.093 -0.35 -0.00    +0.000 HD
DOCKED: BRANCH   4   6
DOCKED: ATOM      6  C   UNL     1      35.092   8.252 122.899 -0.61 -0.00    +0.000 A 
DOCKED: ATOM      7  C   UNL     1      36.250   7.458 122.928 -0.69 -0.00    +0.000 A 
DOCKED: ATOM      8  C   UNL     1      36.157   6.075 123.107 -0.57 -0.00    +0.000 A 
DOCKED: ATOM      9  C   UNL     1      34.906   5.469 123.243 -0.44 -0.00    +0.000 A 
DOCKED: ATOM     10  C   UNL     1      33.746   6.245 123.195 -0.66 -0.00    +0.000 A 
DOCKED: ATOM     11  C   UNL     1      33.834   7.629 123.015 -0.63 -0.00    +0.000 A 
DOCKED: ATOM     12  CM  UNL     1      34.998   6.855 123.064 +0.00 -0.00    +0.000 AC
DOCKED: ENDBRANCH   4   6
DOCKED: ENDBRANCH   1   3
DOCKED: BRANCH   1  12
DOCKED: ATOM     13  C   UNL     1      37.440  12.125 123.117 -0.53 -0.00    +0.000 C 
DOCKED: BRANCH  12  13
DOCKED: ATOM     14  C   UNL     1      37.080  13.440 123.829 -0.34 -0.00    +0.000 C 
DOCKED: BRANCH  13  14
DOCKED: ATOM     15  C   UNL     1      37.939  14.640 123.378 -0.30 -0.00    +0.000 C 
DOCKED: BRANCH  14  15
DOCKED: ATOM     16  C   UNL     1      37.130  15.654 122.550 -0.33 -0.00    +0.000 C 
DOCKED: BRANCH  15  16
DOCKED: ATOM     17  C   UNL     1      36.530  16.768 123.419 -0.31 -0.00    +0.000 C 
DOCKED: BRANCH  16  17
DOCKED: ATOM     18  C   UNL     1      35.184  16.389 123.961 -0.47 -0.00    +0.000 C 
DOCKED: ATOM     19  N   UNL     1      34.525  15.206 123.502 -0.51 -0.00    +0.000 N 
DOCKED: ATOM     20  O   UNL     1      33.316  14.858 123.997 -0.61 -0.00    +0.000 OA
DOCKED: ATOM     21  O   UNL     1      34.645  17.103 124.848 -0.43 -0.00    +0.000 OA
DOCKED: ATOM     22  H   UNL     1      34.956  14.641 122.821 -0.01 -0.00    +0.000 HD
DOCKED: ENDBRANCH  16  17
DOCKED: ENDBRANCH  15  16
DOCKED: ENDBRANCH  14  15
DOCKED: ENDBRANCH  13  14
DOCKED: ENDBRANCH  12  13
DOCKED: ENDBRANCH   1  12
DOCKED: TORSDOF 8DOCKED: TER
DOCKED: ENDMDL
________________________________________________________________________________


	BEGINNING GENETIC ALGORITHM DOCKING 13 of 100
Run: 13 Seed: 622759643 1317261229 [ Run 13 of 100 GA/GALS ]
Beginning LAMARCKIAN GENETIC ALGORITHM (LGA), with a maximum of 2500000 energy evaluations.

Final-Value: -13.047


	FINAL GENETIC ALGORITHM DOCKED STATE
	_______________________________________________


Detailed state:  trans 37.674 14.679 121.387 quatxyzw 0.197228 -0.224497 0.933827 0.196646 center 0.108 0.248 -0.022 ntor 8 121.0588 102.0470 54.5787 138.4880 -57.4967 142.6114 77.3302 -34.4259
State:	 37.674  14.679 121.387   0.201 -0.229  0.952 157.318    121.06  102.05   54.58  138.49  -57.50  142.61   77.33  -34.43

DOCKED: MODEL       13
DOCKED: USER    Run = 13
DOCKED: USER    DPF = ligand_dock.biased.dpf
DOCKED: USER  
DOCKED: USER    Estimated Free Energy of Binding    =   -9.82 kcal/mol  [=(1)+(2)+(3)-(4)]
DOCKED: USER    Estimated Inhibition Constant, Ki   =   63.02 nM (nanomolar)  [Temperature = 298.15 K]
DOCKED: USER    
DOCKED: USER    (1) Final Intermolecular Energy     =  -12.21 kcal/mol
DOCKED: USER        vdW + Hbond + desolv Energy     =  -12.21 kcal/mol
DOCKED: USER        Electrostatic Energy            =   +0.00 kcal/mol
DOCKED: USER    (2) Final Total Internal Energy     =   -0.84 kcal/mol
DOCKED: USER    (3) Torsional Free Energy           =   +2.39 kcal/mol
DOCKED: USER    (4) Unbound System's Energy  [=(2)] =   -0.84 kcal/mol
DOCKED: USER    
DOCKED: USER    
DOCKED: USER    NEWDPF move ligand.dum.pdbqt
DOCKED: USER    NEWDPF about 0.108000 0.248000 -0.022000
DOCKED: USER    NEWDPF tran0 37.674366 14.679422 121.386922
DOCKED: USER    NEWDPF quaternion0 0.197228 -0.224497 0.933827 0.196646
DOCKED: USER    NEWDPF axisangle0 0.201156 -0.228967 0.952423 157.318162
DOCKED: USER    NEWDPF quat0 0.201156 -0.228967 0.952423 157.318162
DOCKED: USER    NEWDPF dihe0 121.06 102.05 54.58 138.49 -57.50 142.61 77.33 -34.43 
DOCKED: USER  keepresnum = 1 
DOCKED: USER  
DOCKED: REMARK  Name = 
DOCKED: REMARK  8 active torsions:
DOCKED: REMARK  status: ('A' for Active; 'I' for Inactive)
DOCKED: REMARK    1  A    between atoms: C_2  and  C_10
DOCKED: REMARK    2  A    between atoms: N_3  and  C_4
DOCKED: REMARK    3  A    between atoms: C_10  and  C_11
DOCKED: REMARK    4  A    between atoms: C_11  and  C_12
DOCKED: REMARK    5  A    between atoms: C_12  and  C_13
DOCKED: REMARK    6  A    between atoms: C_13  and  C_14
DOCKED: REMARK    7  A    between atoms: C_14  and  C_15
DOCKED: REMARK    8  A    between atoms: C_15  and  C_16
DOCKED: REMARK                            x       y       z     vdW  Elec       q    Type
DOCKED: REMARK                         _______ _______ _______ _____ _____    ______ ____
DOCKED: USER                              x       y       z     vdW  Elec       q    Type
DOCKED: USER                           _______ _______ _______ _____ _____    ______ ____
DOCKED: ROOT
DOCKED: ATOM      1  C   UNL     1      37.416  16.100 121.787 -0.24 -0.00    +0.000 C 
DOCKED: ENDROOT
DOCKED: BRANCH   1   3
DOCKED: ATOM      2  O   UNL     1      39.046  17.758 121.249 -0.08 -0.00    +0.000 OA
DOCKED: ATOM      3  C   UNL     1      38.827  16.560 121.576 -0.18 -0.00    +0.000 C 
DOCKED: ATOM      4  N   UNL     1      39.915  15.636 121.744 -0.27 -0.00    +0.000 N 
DOCKED: ATOM      5  H   UNL     1      39.698  14.678 121.814 -0.02 -0.00    +0.000 HD
DOCKED: BRANCH   4   6
DOCKED: ATOM      6  C   UNL     1      41.298  16.018 121.818 -0.30 -0.00    +0.000 A 
DOCKED: ATOM      7  C   UNL     1      42.079  16.006 120.650 -0.19 -0.00    +0.000 A 
DOCKED: ATOM      8  C   UNL     1      43.433  16.350 120.700 -0.21 -0.00    +0.000 A 
DOCKED: ATOM      9  C   UNL     1      44.024  16.694 121.918 -0.28 -0.00    +0.000 A 
DOCKED: ATOM     10  C   UNL     1      43.262  16.689 123.089 -0.34 -0.00    +0.000 A 
DOCKED: ATOM     11  C   UNL     1      41.907  16.345 123.045 -0.39 -0.00    +0.000 A 
DOCKED: ATOM     12  CM  UNL     1      42.667  16.350 121.870 +0.00 -0.00    +0.000 AC
DOCKED: ENDBRANCH   4   6
DOCKED: ENDBRANCH   1   3
DOCKED: BRANCH   1  12
DOCKED: ATOM     13  C   UNL     1      37.323  15.231 123.046 -0.40 -0.00    +0.000 C 
DOCKED: BRANCH  12  13
DOCKED: ATOM     14  C   UNL     1      37.086  13.743 122.730 -0.52 -0.00    +0.000 C 
DOCKED: BRANCH  13  14
DOCKED: ATOM     15  C   UNL     1      36.300  12.998 123.828 -0.61 -0.00    +0.000 C 
DOCKED: BRANCH  14  15
DOCKED: ATOM     16  C   UNL     1      36.479  11.472 123.736 -0.69 -0.00    +0.000 C 
DOCKED: BRANCH  15  16
DOCKED: ATOM     17  C   UNL     1      36.286  10.948 122.307 -0.66 -0.00    +0.000 C 
DOCKED: BRANCH  16  17
DOCKED: ATOM     18  C   UNL     1      36.701   9.512 122.179 -0.70 -0.00    +0.000 C 
DOCKED: ATOM     19  N   UNL     1      36.726   8.660 123.326 -0.65 -0.00    +0.000 N 
DOCKED: ATOM     20  O   UNL     1      37.091   7.363 123.210 -2.36 -0.00    +0.000 OA
DOCKED: ATOM     21  O   UNL     1      37.003   9.049 121.046 -2.70 -0.00    +0.000 OA
DOCKED: ATOM     22  H   UNL     1      36.474   9.020 124.207 -0.40 -0.00    +0.000 HD
DOCKED: ENDBRANCH  16  17
DOCKED: ENDBRANCH  15  16
DOCKED: ENDBRANCH  14  15
DOCKED: ENDBRANCH  13  14
DOCKED: ENDBRANCH  12  13
DOCKED: ENDBRANCH   1  12
DOCKED: TORSDOF 8DOCKED: TER
DOCKED: ENDMDL
________________________________________________________________________________


	BEGINNING GENETIC ALGORITHM DOCKING 14 of 100
Run: 14 Seed: 2069291024 866257624 [ Run 14 of 100 GA/GALS ]
Beginning LAMARCKIAN GENETIC ALGORITHM (LGA), with a maximum of 2500000 energy evaluations.

Final-Value: -13.319


	FINAL GENETIC ALGORITHM DOCKED STATE
	_______________________________________________


Detailed state:  trans 34.370 14.583 123.972 quatxyzw -0.724424 0.561450 -0.399736 0.013991 center 0.108 0.248 -0.022 ntor 8 -132.5786 175.2378 -18.0816 116.6710 -140.2067 93.1855 179.1437 33.7758
State:	 34.370  14.583 123.972  -0.724  0.562 -0.400 178.397   -132.58  175.24  -18.08  116.67 -140.21   93.19  179.14   33.78

DOCKED: MODEL       14
DOCKED: USER    Run = 14
DOCKED: USER    DPF = ligand_dock.biased.dpf
DOCKED: USER  
DOCKED: USER    Estimated Free Energy of Binding    =  -10.09 kcal/mol  [=(1)+(2)+(3)-(4)]
DOCKED: USER    Estimated Inhibition Constant, Ki   =   39.97 nM (nanomolar)  [Temperature = 298.15 K]
DOCKED: USER    
DOCKED: USER    (1) Final Intermolecular Energy     =  -12.48 kcal/mol
DOCKED: USER        vdW + Hbond + desolv Energy     =  -12.48 kcal/mol
DOCKED: USER        Electrostatic Energy            =   +0.00 kcal/mol
DOCKED: USER    (2) Final Total Internal Energy     =   -0.84 kcal/mol
DOCKED: USER    (3) Torsional Free Energy           =   +2.39 kcal/mol
DOCKED: USER    (4) Unbound System's Energy  [=(2)] =   -0.84 kcal/mol
DOCKED: USER    
DOCKED: USER    
DOCKED: USER    NEWDPF move ligand.dum.pdbqt
DOCKED: USER    NEWDPF about 0.108000 0.248000 -0.022000
DOCKED: USER    NEWDPF tran0 34.369763 14.582635 123.972152
DOCKED: USER    NEWDPF quaternion0 -0.724424 0.561450 -0.399736 0.013991
DOCKED: USER    NEWDPF axisangle0 -0.724495 0.561505 -0.399775 178.396746
DOCKED: USER    NEWDPF quat0 -0.724495 0.561505 -0.399775 178.396746
DOCKED: USER    NEWDPF dihe0 -132.58 175.24 -18.08 116.67 -140.21 93.19 179.14 33.78 
DOCKED: USER  keepresnum = 1 
DOCKED: USER  
DOCKED: REMARK  Name = 
DOCKED: REMARK  8 active torsions:
DOCKED: REMARK  status: ('A' for Active; 'I' for Inactive)
DOCKED: REMARK    1  A    between atoms: C_2  and  C_10
DOCKED: REMARK    2  A    between atoms: N_3  and  C_4
DOCKED: REMARK    3  A    between atoms: C_10  and  C_11
DOCKED: REMARK    4  A    between atoms: C_11  and  C_12
DOCKED: REMARK    5  A    between atoms: C_12  and  C_13
DOCKED: REMARK    6  A    between atoms: C_13  and  C_14
DOCKED: REMARK    7  A    between atoms: C_14  and  C_15
DOCKED: REMARK    8  A    between atoms: C_15  and  C_16
DOCKED: REMARK                            x       y       z     vdW  Elec       q    Type
DOCKED: REMARK                         _______ _______ _______ _____ _____    ______ ____
DOCKED: USER                              x       y       z     vdW  Elec       q    Type
DOCKED: USER                           _______ _______ _______ _____ _____    ______ ____
DOCKED: ROOT
DOCKED: ATOM      1  C   UNL     1      35.385  15.497 124.587 -0.41 -0.00    +0.000 C 
DOCKED: ENDROOT
DOCKED: BRANCH   1   3
DOCKED: ATOM      2  O   UNL     1      36.479  16.998 123.089 -0.26 -0.00    +0.000 OA
DOCKED: ATOM      3  C   UNL     1      35.390  16.477 123.453 -0.42 -0.00    +0.000 C 
DOCKED: ATOM      4  N   UNL     1      34.159  16.817 122.794 -0.41 -0.00    +0.000 N 
DOCKED: ATOM      5  H   UNL     1      33.316  16.539 123.221 -0.01 -0.00    +0.000 HD
DOCKED: BRANCH   4   6
DOCKED: ATOM      6  C   UNL     1      34.077  17.536 121.552 -0.26 -0.00    +0.000 A 
DOCKED: ATOM      7  C   UNL     1      32.839  18.055 121.138 -0.18 -0.00    +0.000 A 
DOCKED: ATOM      8  C   UNL     1      32.728  18.736 119.922 -0.36 -0.00    +0.000 A 
DOCKED: ATOM      9  C   UNL     1      33.847  18.892 119.101 -0.24 -0.00    +0.000 A 
DOCKED: ATOM     10  C   UNL     1      35.079  18.361 119.493 -0.19 -0.00    +0.000 A 
DOCKED: ATOM     11  C   UNL     1      35.195  17.678 120.708 -0.22 -0.00    +0.000 A 
DOCKED: ATOM     12  CM  UNL     1      33.961  18.209 120.319 +0.00 -0.00    +0.000 AC
DOCKED: ENDBRANCH   4   6
DOCKED: ENDBRANCH   1   3
DOCKED: BRANCH   1  12
DOCKED: ATOM     13  C   UNL     1      36.100  14.205 124.175 -0.43 -0.00    +0.000 C 
DOCKED: BRANCH  12  13
DOCKED: ATOM     14  C   UNL     1      36.478  14.180 122.684 -0.43 -0.00    +0.000 C 
DOCKED: BRANCH  13  14
DOCKED: ATOM     15  C   UNL     1      37.588  13.163 122.347 -0.51 -0.00    +0.000 C 
DOCKED: BRANCH  14  15
DOCKED: ATOM     16  C   UNL     1      37.093  12.056 121.399 -0.55 -0.00    +0.000 C 
DOCKED: BRANCH  15  16
DOCKED: ATOM     17  C   UNL     1      36.097  11.108 122.081 -0.60 -0.00    +0.000 C 
DOCKED: BRANCH  16  17
DOCKED: ATOM     18  C   UNL     1      36.621   9.704 122.150 -0.68 -0.00    +0.000 C 
DOCKED: ATOM     19  N   UNL     1      36.608   8.987 123.386 -0.58 -0.00    +0.000 N 
DOCKED: ATOM     20  O   UNL     1      37.071   7.717 123.448 -2.69 -0.00    +0.000 OA
DOCKED: ATOM     21  O   UNL     1      37.050   9.146 121.104 -2.72 -0.00    +0.000 OA
DOCKED: ATOM     22  H   UNL     1      36.257   9.419 124.198 -0.33 -0.00    +0.000 HD
DOCKED: ENDBRANCH  16  17
DOCKED: ENDBRANCH  15  16
DOCKED: ENDBRANCH  14  15
DOCKED: ENDBRANCH  13  14
DOCKED: ENDBRANCH  12  13
DOCKED: ENDBRANCH   1  12
DOCKED: TORSDOF 8DOCKED: TER
DOCKED: ENDMDL
________________________________________________________________________________


	BEGINNING GENETIC ALGORITHM DOCKING 15 of 100
Run: 15 Seed: 1847576051 1006197220 [ Run 15 of 100 GA/GALS ]
Beginning LAMARCKIAN GENETIC ALGORITHM (LGA), with a maximum of 2500000 energy evaluations.

Final-Value: -13.466


	FINAL GENETIC ALGORITHM DOCKED STATE
	_______________________________________________


Detailed state:  trans 38.369 11.445 121.166 quatxyzw -0.807998 -0.539003 0.181171 -0.154249 center 0.108 0.248 -0.022 ntor 8 39.3208 -177.7440 -165.0049 163.7481 -165.9904 175.1356 26.8814 168.8115
State:	 38.369  11.445 121.166  -0.818 -0.546  0.183 -162.253     39.32 -177.74 -165.00  163.75 -165.99  175.14   26.88  168.81

DOCKED: MODEL       15
DOCKED: USER    Run = 15
DOCKED: USER    DPF = ligand_dock.biased.dpf
DOCKED: USER  
DOCKED: USER    Estimated Free Energy of Binding    =   -9.89 kcal/mol  [=(1)+(2)+(3)-(4)]
DOCKED: USER    Estimated Inhibition Constant, Ki   =   56.50 nM (nanomolar)  [Temperature = 298.15 K]
DOCKED: USER    
DOCKED: USER    (1) Final Intermolecular Energy     =  -12.27 kcal/mol
DOCKED: USER        vdW + Hbond + desolv Energy     =  -12.27 kcal/mol
DOCKED: USER        Electrostatic Energy            =   +0.00 kcal/mol
DOCKED: USER    (2) Final Total Internal Energy     =   -1.19 kcal/mol
DOCKED: USER    (3) Torsional Free Energy           =   +2.39 kcal/mol
DOCKED: USER    (4) Unbound System's Energy  [=(2)] =   -1.19 kcal/mol
DOCKED: USER    
DOCKED: USER    
DOCKED: USER    NEWDPF move ligand.dum.pdbqt
DOCKED: USER    NEWDPF about 0.108000 0.248000 -0.022000
DOCKED: USER    NEWDPF tran0 38.369483 11.444573 121.165980
DOCKED: USER    NEWDPF quaternion0 -0.807998 -0.539003 0.181171 -0.154249
DOCKED: USER    NEWDPF axisangle0 -0.817785 -0.545531 0.183366 -162.253483
DOCKED: USER    NEWDPF quat0 -0.817785 -0.545531 0.183366 -162.253483
DOCKED: USER    NEWDPF dihe0 39.32 -177.74 -165.00 163.75 -165.99 175.14 26.88 168.81 
DOCKED: USER  keepresnum = 1 
DOCKED: USER  
DOCKED: REMARK  Name = 
DOCKED: REMARK  8 active torsions:
DOCKED: REMARK  status: ('A' for Active; 'I' for Inactive)
DOCKED: REMARK    1  A    between atoms: C_2  and  C_10
DOCKED: REMARK    2  A    between atoms: N_3  and  C_4
DOCKED: REMARK    3  A    between atoms: C_10  and  C_11
DOCKED: REMARK    4  A    between atoms: C_11  and  C_12
DOCKED: REMARK    5  A    between atoms: C_12  and  C_13
DOCKED: REMARK    6  A    between atoms: C_13  and  C_14
DOCKED: REMARK    7  A    between atoms: C_14  and  C_15
DOCKED: REMARK    8  A    between atoms: C_15  and  C_16
DOCKED: REMARK                            x       y       z     vdW  Elec       q    Type
DOCKED: REMARK                         _______ _______ _______ _____ _____    ______ ____
DOCKED: USER                              x       y       z     vdW  Elec       q    Type
DOCKED: USER                           _______ _______ _______ _____ _____    ______ ____
DOCKED: ROOT
DOCKED: ATOM      1  C   UNL     1      37.212  11.670 122.089 -0.48 -0.00    +0.000 C 
DOCKED: ENDROOT
DOCKED: BRANCH   1   3
DOCKED: ATOM      2  O   UNL     1      37.164   9.495 121.108 -2.42 -0.00    +0.000 OA
DOCKED: ATOM      3  C   UNL     1      36.649  10.288 121.942 -0.61 -0.00    +0.000 C 
DOCKED: ATOM      4  N   UNL     1      35.531   9.880 122.748 -0.60 -0.00    +0.000 N 
DOCKED: ATOM      5  H   UNL     1      35.044  10.576 123.246 -0.23 -0.00    +0.000 HD
DOCKED: BRANCH   4   6
DOCKED: ATOM      6  C   UNL     1      35.078   8.522 122.875 -0.60 -0.00    +0.000 A 
DOCKED: ATOM      7  C   UNL     1      36.016   7.502 123.103 -0.68 -0.00    +0.000 A 
DOCKED: ATOM      8  C   UNL     1      35.603   6.170 123.206 -0.63 -0.00    +0.000 A 
DOCKED: ATOM      9  C   UNL     1      34.253   5.843 123.067 -0.57 -0.00    +0.000 A 
DOCKED: ATOM     10  C   UNL     1      33.313   6.846 122.819 -0.62 -0.00    +0.000 A 
DOCKED: ATOM     11  C   UNL     1      33.721   8.180 122.715 -0.61 -0.00    +0.000 A 
DOCKED: ATOM     12  CM  UNL     1      34.664   7.177 122.964 +0.00 -0.00    +0.000 AC
DOCKED: ENDBRANCH   4   6
DOCKED: ENDBRANCH   1   3
DOCKED: BRANCH   1  12
DOCKED: ATOM     13  C   UNL     1      36.963  12.483 120.814 -0.50 -0.00    +0.000 C 
DOCKED: BRANCH  12  13
DOCKED: ATOM     14  C   UNL     1      37.915  13.684 120.675 -0.41 -0.00    +0.000 C 
DOCKED: BRANCH  13  14
DOCKED: ATOM     15  C   UNL     1      37.191  15.046 120.664 -0.26 -0.00    +0.000 C 
DOCKED: BRANCH  14  15
DOCKED: ATOM     16  C   UNL     1      37.049  15.639 122.078 -0.30 -0.00    +0.000 C 
DOCKED: BRANCH  15  16
DOCKED: ATOM     17  C   UNL     1      37.136  14.566 123.171 -0.46 -0.00    +0.000 C 
DOCKED: BRANCH  16  17
DOCKED: ATOM     18  C   UNL     1      35.813  14.346 123.843 -0.55 -0.00    +0.000 C 
DOCKED: ATOM     19  N   UNL     1      35.142  15.427 124.493 -0.52 -0.00    +0.000 N 
DOCKED: ATOM     20  O   UNL     1      33.944  15.232 125.091 -0.65 -0.00    +0.000 OA
DOCKED: ATOM     21  O   UNL     1      35.278  13.205 123.808 -0.55 -0.00    +0.000 OA
DOCKED: ATOM     22  H   UNL     1      35.554  16.321 124.504 -0.02 -0.00    +0.000 HD
DOCKED: ENDBRANCH  16  17
DOCKED: ENDBRANCH  15  16
DOCKED: ENDBRANCH  14  15
DOCKED: ENDBRANCH  13  14
DOCKED: ENDBRANCH  12  13
DOCKED: ENDBRANCH   1  12
DOCKED: TORSDOF 8DOCKED: TER
DOCKED: ENDMDL
________________________________________________________________________________


	BEGINNING GENETIC ALGORITHM DOCKING 16 of 100
Run: 16 Seed: 1765867132 1858998952 [ Run 16 of 100 GA/GALS ]
Beginning LAMARCKIAN GENETIC ALGORITHM (LGA), with a maximum of 2500000 energy evaluations.

Final-Value: -13.738


	FINAL GENETIC ALGORITHM DOCKED STATE
	_______________________________________________


Detailed state:  trans 38.831 14.251 121.676 quatxyzw 0.048005 -0.162245 0.985435 0.017001 center 0.108 0.248 -0.022 ntor 8 86.1597 93.7421 -151.8017 96.3410 -68.8097 -166.6354 99.4533 171.7516
State:	 38.831  14.251 121.676   0.048 -0.162  0.986 178.052     86.16   93.74 -151.80   96.34  -68.81 -166.64   99.45  171.75

DOCKED: MODEL       16
DOCKED: USER    Run = 16
DOCKED: USER    DPF = ligand_dock.biased.dpf
DOCKED: USER  
DOCKED: USER    Estimated Free Energy of Binding    =  -10.57 kcal/mol  [=(1)+(2)+(3)-(4)]
DOCKED: USER    Estimated Inhibition Constant, Ki   =   17.99 nM (nanomolar)  [Temperature = 298.15 K]
DOCKED: USER    
DOCKED: USER    (1) Final Intermolecular Energy     =  -12.95 kcal/mol
DOCKED: USER        vdW + Hbond + desolv Energy     =  -12.95 kcal/mol
DOCKED: USER        Electrostatic Energy            =   +0.00 kcal/mol
DOCKED: USER    (2) Final Total Internal Energy     =   -0.79 kcal/mol
DOCKED: USER    (3) Torsional Free Energy           =   +2.39 kcal/mol
DOCKED: USER    (4) Unbound System's Energy  [=(2)] =   -0.79 kcal/mol
DOCKED: USER    
DOCKED: USER    
DOCKED: USER    NEWDPF move ligand.dum.pdbqt
DOCKED: USER    NEWDPF about 0.108000 0.248000 -0.022000
DOCKED: USER    NEWDPF tran0 38.830683 14.251162 121.675698
DOCKED: USER    NEWDPF quaternion0 0.048005 -0.162245 0.985435 0.017001
DOCKED: USER    NEWDPF axisangle0 0.048012 -0.162269 0.985578 178.051787
DOCKED: USER    NEWDPF quat0 0.048012 -0.162269 0.985578 178.051787
DOCKED: USER    NEWDPF dihe0 86.16 93.74 -151.80 96.34 -68.81 -166.64 99.45 171.75 
DOCKED: USER  keepresnum = 1 
DOCKED: USER  
DOCKED: REMARK  Name = 
DOCKED: REMARK  8 active torsions:
DOCKED: REMARK  status: ('A' for Active; 'I' for Inactive)
DOCKED: REMARK    1  A    between atoms: C_2  and  C_10
DOCKED: REMARK    2  A    between atoms: N_3  and  C_4
DOCKED: REMARK    3  A    between atoms: C_10  and  C_11
DOCKED: REMARK    4  A    between atoms: C_11  and  C_12
DOCKED: REMARK    5  A    between atoms: C_12  and  C_13
DOCKED: REMARK    6  A    between atoms: C_13  and  C_14
DOCKED: REMARK    7  A    between atoms: C_14  and  C_15
DOCKED: REMARK    8  A    between atoms: C_15  and  C_16
DOCKED: REMARK                            x       y       z     vdW  Elec       q    Type
DOCKED: REMARK                         _______ _______ _______ _____ _____    ______ ____
DOCKED: USER                              x       y       z     vdW  Elec       q    Type
DOCKED: USER                           _______ _______ _______ _____ _____    ______ ____
DOCKED: ROOT
DOCKED: ATOM      1  C   UNL     1      39.093  15.716 121.850 -0.29 -0.00    +0.000 C 
DOCKED: ENDROOT
DOCKED: BRANCH   1   3
DOCKED: ATOM      2  O   UNL     1      41.095  14.423 121.968 -1.03 -0.00    +0.000 OA
DOCKED: ATOM      3  C   UNL     1      40.580  15.574 121.978 -0.38 -0.00    +0.000 C 
DOCKED: ATOM      4  N   UNL     1      41.402  16.744 122.113 -0.24 -0.00    +0.000 N 
DOCKED: ATOM      5  H   UNL     1      40.956  17.601 122.302 +0.00 -0.00    +0.000 HD
DOCKED: BRANCH   4   6
DOCKED: ATOM      6  C   UNL     1      42.834  16.747 121.987 -0.30 -0.00    +0.000 A 
DOCKED: ATOM      7  C   UNL     1      43.420  16.317 120.785 -0.22 -0.00    +0.000 A 
DOCKED: ATOM      8  C   UNL     1      44.811  16.287 120.646 -0.22 +0.00    +0.000 A 
DOCKED: ATOM      9  C   UNL     1      45.630  16.670 121.711 -0.25 +0.00    +0.000 A 
DOCKED: ATOM     10  C   UNL     1      45.058  17.079 122.918 -0.26 -0.00    +0.000 A 
DOCKED: ATOM     11  C   UNL     1      43.667  17.110 123.062 -0.28 -0.00    +0.000 A 
DOCKED: ATOM     12  CM  UNL     1      44.237  16.701 121.851 +0.00 -0.00    +0.000 AC
DOCKED: ENDBRANCH   4   6
DOCKED: ENDBRANCH   1   3
DOCKED: BRANCH   1  12
DOCKED: ATOM     13  C   UNL     1      38.400  15.205 123.119 -0.30 -0.00    +0.000 C 
DOCKED: BRANCH  12  13
DOCKED: ATOM     14  C   UNL     1      38.128  13.691 123.084 -0.49 -0.00    +0.000 C 
DOCKED: BRANCH  13  14
DOCKED: ATOM     15  C   UNL     1      36.677  13.334 122.701 -0.55 -0.00    +0.000 C 
DOCKED: BRANCH  14  15
DOCKED: ATOM     16  C   UNL     1      36.387  11.832 122.864 -0.67 -0.00    +0.000 C 
DOCKED: BRANCH  15  16
DOCKED: ATOM     17  C   UNL     1      36.690  11.038 121.586 -0.52 -0.00    +0.000 C 
DOCKED: BRANCH  16  17
DOCKED: ATOM     18  C   UNL     1      36.840   9.571 121.863 -0.62 -0.00    +0.000 C 
DOCKED: ATOM     19  N   UNL     1      36.944   9.095 123.207 -0.64 -0.00    +0.000 N 
DOCKED: ATOM     20  O   UNL     1      37.070   7.772 123.458 -2.68 -0.00    +0.000 OA
DOCKED: ATOM     21  O   UNL     1      36.845   8.753 120.904 -2.57 -0.00    +0.000 OA
DOCKED: ATOM     22  H   UNL     1      36.923   9.735 123.954 -0.47 -0.00    +0.000 HD
DOCKED: ENDBRANCH  16  17
DOCKED: ENDBRANCH  15  16
DOCKED: ENDBRANCH  14  15
DOCKED: ENDBRANCH  13  14
DOCKED: ENDBRANCH  12  13
DOCKED: ENDBRANCH   1  12
DOCKED: TORSDOF 8DOCKED: TER
DOCKED: ENDMDL
________________________________________________________________________________


	BEGINNING GENETIC ALGORITHM DOCKING 17 of 100
Run: 17 Seed: 1311817605 856529456 [ Run 17 of 100 GA/GALS ]
Beginning LAMARCKIAN GENETIC ALGORITHM (LGA), with a maximum of 2500000 energy evaluations.

Final-Value: -12.949


	FINAL GENETIC ALGORITHM DOCKED STATE
	_______________________________________________


Detailed state:  trans 38.378 13.136 118.717 quatxyzw -0.287435 -0.603135 -0.658383 -0.346613 center 0.108 0.248 -0.022 ntor 8 -74.1173 177.1481 -161.4721 55.6754 23.7262 -92.3356 77.8134 -55.5748
State:	 38.378  13.136 118.717  -0.306 -0.643 -0.702 -139.439    -74.12  177.15 -161.47   55.68   23.73  -92.34   77.81  -55.57

DOCKED: MODEL       17
DOCKED: USER    Run = 17
DOCKED: USER    DPF = ligand_dock.biased.dpf
DOCKED: USER  
DOCKED: USER    Estimated Free Energy of Binding    =   -9.68 kcal/mol  [=(1)+(2)+(3)-(4)]
DOCKED: USER    Estimated Inhibition Constant, Ki   =   80.51 nM (nanomolar)  [Temperature = 298.15 K]
DOCKED: USER    
DOCKED: USER    (1) Final Intermolecular Energy     =  -12.06 kcal/mol
DOCKED: USER        vdW + Hbond + desolv Energy     =  -12.06 kcal/mol
DOCKED: USER        Electrostatic Energy            =   +0.00 kcal/mol
DOCKED: USER    (2) Final Total Internal Energy     =   -0.88 kcal/mol
DOCKED: USER    (3) Torsional Free Energy           =   +2.39 kcal/mol
DOCKED: USER    (4) Unbound System's Energy  [=(2)] =   -0.88 kcal/mol
DOCKED: USER    
DOCKED: USER    
DOCKED: USER    NEWDPF move ligand.dum.pdbqt
DOCKED: USER    NEWDPF about 0.108000 0.248000 -0.022000
DOCKED: USER    NEWDPF tran0 38.377897 13.136487 118.716743
DOCKED: USER    NEWDPF quaternion0 -0.287435 -0.603135 -0.658383 -0.346613
DOCKED: USER    NEWDPF axisangle0 -0.306432 -0.642996 -0.701895 -139.439365
DOCKED: USER    NEWDPF quat0 -0.306432 -0.642996 -0.701895 -139.439365
DOCKED: USER    NEWDPF dihe0 -74.12 177.15 -161.47 55.68 23.73 -92.34 77.81 -55.57 
DOCKED: USER  keepresnum = 1 
DOCKED: USER  
DOCKED: REMARK  Name = 
DOCKED: REMARK  8 active torsions:
DOCKED: REMARK  status: ('A' for Active; 'I' for Inactive)
DOCKED: REMARK    1  A    between atoms: C_2  and  C_10
DOCKED: REMARK    2  A    between atoms: N_3  and  C_4
DOCKED: REMARK    3  A    between atoms: C_10  and  C_11
DOCKED: REMARK    4  A    between atoms: C_11  and  C_12
DOCKED: REMARK    5  A    between atoms: C_12  and  C_13
DOCKED: REMARK    6  A    between atoms: C_13  and  C_14
DOCKED: REMARK    7  A    between atoms: C_14  and  C_15
DOCKED: REMARK    8  A    between atoms: C_15  and  C_16
DOCKED: REMARK                            x       y       z     vdW  Elec       q    Type
DOCKED: REMARK                         _______ _______ _______ _____ _____    ______ ____
DOCKED: USER                              x       y       z     vdW  Elec       q    Type
DOCKED: USER                           _______ _______ _______ _____ _____    ______ ____
DOCKED: ROOT
DOCKED: ATOM      1  C   UNL     1      37.422  12.944 117.579 -0.31 -0.00    +0.000 C 
DOCKED: ENDROOT
DOCKED: BRANCH   1   3
DOCKED: ATOM      2  O   UNL     1      38.557  12.704 115.494 -0.63 -0.00    +0.000 OA
DOCKED: ATOM      3  C   UNL     1      38.375  13.413 116.520 -0.34 -0.00    +0.000 C 
DOCKED: ATOM      4  N   UNL     1      39.072  14.659 116.684 -0.24 -0.00    +0.000 N 
DOCKED: ATOM      5  H   UNL     1      39.047  15.087 117.570 -0.06 -0.00    +0.000 HD
DOCKED: BRANCH   4   6
DOCKED: ATOM      6  C   UNL     1      39.801  15.322 115.638 -0.27 -0.00    +0.000 A 
DOCKED: ATOM      7  C   UNL     1      39.187  15.522 114.391 -0.21 -0.00    +0.000 A 
DOCKED: ATOM      8  C   UNL     1      39.883  16.142 113.349 -0.16 -0.00    +0.000 A 
DOCKED: ATOM      9  C   UNL     1      41.205  16.554 113.538 -0.16 -0.00    +0.000 A 
DOCKED: ATOM     10  C   UNL     1      41.833  16.341 114.768 -0.16 -0.00    +0.000 A 
DOCKED: ATOM     11  C   UNL     1      41.141  15.720 115.812 -0.26 -0.00    +0.000 A 
DOCKED: ATOM     12  CM  UNL     1      40.508  15.933 114.583 +0.00 -0.00    +0.000 AC
DOCKED: ENDBRANCH   4   6
DOCKED: ENDBRANCH   1   3
DOCKED: BRANCH   1  12
DOCKED: ATOM     13  C   UNL     1      36.930  14.132 118.414 -0.37 -0.00    +0.000 C 
DOCKED: BRANCH  12  13
DOCKED: ATOM     14  C   UNL     1      37.519  14.149 119.835 -0.35 -0.00    +0.000 C 
DOCKED: BRANCH  13  14
DOCKED: ATOM     15  C   UNL     1      37.940  12.756 120.345 -0.47 -0.00    +0.000 C 
DOCKED: BRANCH  14  15
DOCKED: ATOM     16  C   UNL     1      36.740  11.934 120.847 -0.40 -0.00    +0.000 C 
DOCKED: BRANCH  15  16
DOCKED: ATOM     17  C   UNL     1      36.988  11.328 122.234 -0.58 -0.00    +0.000 C 
DOCKED: BRANCH  16  17
DOCKED: ATOM     18  C   UNL     1      37.022   9.828 122.190 -0.59 -0.00    +0.000 C 
DOCKED: ATOM     19  N   UNL     1      37.065   9.069 123.401 -0.59 -0.00    +0.000 N 
DOCKED: ATOM     20  O   UNL     1      37.086   7.717 123.363 -2.65 -0.00    +0.000 OA
DOCKED: ATOM     21  O   UNL     1      36.983   9.236 121.079 -2.69 -0.00    +0.000 OA
DOCKED: ATOM     22  H   UNL     1      37.079   9.534 124.268 -0.56 -0.00    +0.000 HD
DOCKED: ENDBRANCH  16  17
DOCKED: ENDBRANCH  15  16
DOCKED: ENDBRANCH  14  15
DOCKED: ENDBRANCH  13  14
DOCKED: ENDBRANCH  12  13
DOCKED: ENDBRANCH   1  12
DOCKED: TORSDOF 8DOCKED: TER
DOCKED: ENDMDL
________________________________________________________________________________


	BEGINNING GENETIC ALGORITHM DOCKING 18 of 100
Run: 18 Seed: 1854921812 182022090 [ Run 18 of 100 GA/GALS ]
Beginning LAMARCKIAN GENETIC ALGORITHM (LGA), with a maximum of 2500000 energy evaluations.

Final-Value: -12.650


	FINAL GENETIC ALGORITHM DOCKED STATE
	_______________________________________________


Detailed state:  trans 35.221 16.136 122.593 quatxyzw 0.063778 -0.613026 0.295692 0.729862 center 0.108 0.248 -0.022 ntor 8 -174.1323 179.5505 -5.6443 118.9427 72.2997 102.0857 -132.8119 146.7801
State:	 35.221  16.136 122.593   0.093 -0.897  0.433 86.250   -174.13  179.55   -5.64  118.94   72.30  102.09 -132.81  146.78

DOCKED: MODEL       18
DOCKED: USER    Run = 18
DOCKED: USER    DPF = ligand_dock.biased.dpf
DOCKED: USER  
DOCKED: USER    Estimated Free Energy of Binding    =   -9.43 kcal/mol  [=(1)+(2)+(3)-(4)]
DOCKED: USER    Estimated Inhibition Constant, Ki   =  122.69 nM (nanomolar)  [Temperature = 298.15 K]
DOCKED: USER    
DOCKED: USER    (1) Final Intermolecular Energy     =  -11.81 kcal/mol
DOCKED: USER        vdW + Hbond + desolv Energy     =  -11.81 kcal/mol
DOCKED: USER        Electrostatic Energy            =   +0.00 kcal/mol
DOCKED: USER    (2) Final Total Internal Energy     =   -0.84 kcal/mol
DOCKED: USER    (3) Torsional Free Energy           =   +2.39 kcal/mol
DOCKED: USER    (4) Unbound System's Energy  [=(2)] =   -0.84 kcal/mol
DOCKED: USER    
DOCKED: USER    
DOCKED: USER    NEWDPF move ligand.dum.pdbqt
DOCKED: USER    NEWDPF about 0.108000 0.248000 -0.022000
DOCKED: USER    NEWDPF tran0 35.221195 16.135826 122.592635
DOCKED: USER    NEWDPF quaternion0 0.063778 -0.613026 0.295692 0.729862
DOCKED: USER    NEWDPF axisangle0 0.093299 -0.896768 0.432554 86.250407
DOCKED: USER    NEWDPF quat0 0.093299 -0.896768 0.432554 86.250407
DOCKED: USER    NEWDPF dihe0 -174.13 179.55 -5.64 118.94 72.30 102.09 -132.81 146.78 
DOCKED: USER  keepresnum = 1 
DOCKED: USER  
DOCKED: REMARK  Name = 
DOCKED: REMARK  8 active torsions:
DOCKED: REMARK  status: ('A' for Active; 'I' for Inactive)
DOCKED: REMARK    1  A    between atoms: C_2  and  C_10
DOCKED: REMARK    2  A    between atoms: N_3  and  C_4
DOCKED: REMARK    3  A    between atoms: C_10  and  C_11
DOCKED: REMARK    4  A    between atoms: C_11  and  C_12
DOCKED: REMARK    5  A    between atoms: C_12  and  C_13
DOCKED: REMARK    6  A    between atoms: C_13  and  C_14
DOCKED: REMARK    7  A    between atoms: C_14  and  C_15
DOCKED: REMARK    8  A    between atoms: C_15  and  C_16
DOCKED: REMARK                            x       y       z     vdW  Elec       q    Type
DOCKED: REMARK                         _______ _______ _______ _____ _____    ______ ____
DOCKED: USER                              x       y       z     vdW  Elec       q    Type
DOCKED: USER                           _______ _______ _______ _____ _____    ______ ____
DOCKED: ROOT
DOCKED: ATOM      1  C   UNL     1      34.433  15.197 123.453 -0.36 -0.00    +0.000 C 
DOCKED: ENDROOT
DOCKED: BRANCH   1   3
DOCKED: ATOM      2  O   UNL     1      35.707  16.647 124.857 -0.36 -0.00    +0.000 OA
DOCKED: ATOM      3  C   UNL     1      34.661  15.955 124.727 -0.53 -0.00    +0.000 C 
DOCKED: ATOM      4  N   UNL     1      33.692  15.885 125.785 -0.47 -0.00    +0.000 N 
DOCKED: ATOM      5  H   UNL     1      32.991  15.197 125.723 -0.16 -0.00    +0.000 HD
DOCKED: BRANCH   4   6
DOCKED: ATOM      6  C   UNL     1      33.678  16.756 126.929 -0.37 -0.00    +0.000 A 
DOCKED: ATOM      7  C   UNL     1      33.087  16.314 128.124 -0.37 -0.00    +0.000 A 
DOCKED: ATOM      8  C   UNL     1      33.038  17.151 129.242 -0.27 -0.00    +0.000 A 
DOCKED: ATOM      9  C   UNL     1      33.565  18.443 129.174 -0.12 -0.00    +0.000 A 
DOCKED: ATOM     10  C   UNL     1      34.137  18.901 127.984 -0.14 -0.00    +0.000 A 
DOCKED: ATOM     11  C   UNL     1      34.187  18.068 126.862 -0.26 -0.00    +0.000 A 
DOCKED: ATOM     12  CM  UNL     1      33.615  17.605 128.052 +0.00 -0.00    +0.000 AC
DOCKED: ENDBRANCH   4   6
DOCKED: ENDBRANCH   1   3
DOCKED: BRANCH   1  12
DOCKED: ATOM     13  C   UNL     1      35.718  14.479 123.026 -0.21 -0.00    +0.000 C 
DOCKED: BRANCH  12  13
DOCKED: ATOM     14  C   UNL     1      36.469  13.841 124.208 -0.16 -0.00    +0.000 C 
DOCKED: BRANCH  13  14
DOCKED: ATOM     15  C   UNL     1      37.610  12.897 123.776 -0.23 -0.00    +0.000 C 
DOCKED: BRANCH  14  15
DOCKED: ATOM     16  C   UNL     1      37.313  12.204 122.434 -0.53 -0.00    +0.000 C 
DOCKED: BRANCH  15  16
DOCKED: ATOM     17  C   UNL     1      36.142  11.217 122.535 -0.66 -0.00    +0.000 C 
DOCKED: BRANCH  16  17
DOCKED: ATOM     18  C   UNL     1      36.593   9.797 122.354 -0.70 -0.00    +0.000 C 
DOCKED: ATOM     19  N   UNL     1      37.032   9.028 123.475 -0.54 -0.00    +0.000 N 
DOCKED: ATOM     20  O   UNL     1      37.429   7.744 123.314 -2.48 -0.00    +0.000 OA
DOCKED: ATOM     21  O   UNL     1      36.555   9.273 121.208 -2.40 -0.00    +0.000 OA
DOCKED: ATOM     22  H   UNL     1      37.044   9.434 124.371 -0.50 -0.00    +0.000 HD
DOCKED: ENDBRANCH  16  17
DOCKED: ENDBRANCH  15  16
DOCKED: ENDBRANCH  14  15
DOCKED: ENDBRANCH  13  14
DOCKED: ENDBRANCH  12  13
DOCKED: ENDBRANCH   1  12
DOCKED: TORSDOF 8DOCKED: TER
DOCKED: ENDMDL
________________________________________________________________________________


	BEGINNING GENETIC ALGORITHM DOCKING 19 of 100
Run: 19 Seed: 484785389 1778522804 [ Run 19 of 100 GA/GALS ]
Beginning LAMARCKIAN GENETIC ALGORITHM (LGA), with a maximum of 2500000 energy evaluations.

Final-Value: -12.920


	FINAL GENETIC ALGORITHM DOCKED STATE
	_______________________________________________


Detailed state:  trans 39.093 15.418 122.000 quatxyzw 0.511762 -0.301253 -0.151544 -0.790177 center 0.108 0.248 -0.022 ntor 8 -151.0763 -174.7129 -98.8184 -3.3932 102.8682 66.9846 119.4674 23.1754
State:	 39.093  15.418 122.000   0.835 -0.492 -0.247 -75.596   -151.08 -174.71  -98.82   -3.39  102.87   66.98  119.47   23.18

DOCKED: MODEL       19
DOCKED: USER    Run = 19
DOCKED: USER    DPF = ligand_dock.biased.dpf
DOCKED: USER  
DOCKED: USER    Estimated Free Energy of Binding    =   -9.40 kcal/mol  [=(1)+(2)+(3)-(4)]
DOCKED: USER    Estimated Inhibition Constant, Ki   =  129.39 nM (nanomolar)  [Temperature = 298.15 K]
DOCKED: USER    
DOCKED: USER    (1) Final Intermolecular Energy     =  -11.78 kcal/mol
DOCKED: USER        vdW + Hbond + desolv Energy     =  -11.78 kcal/mol
DOCKED: USER        Electrostatic Energy            =   +0.00 kcal/mol
DOCKED: USER    (2) Final Total Internal Energy     =   -1.14 kcal/mol
DOCKED: USER    (3) Torsional Free Energy           =   +2.39 kcal/mol
DOCKED: USER    (4) Unbound System's Energy  [=(2)] =   -1.14 kcal/mol
DOCKED: USER    
DOCKED: USER    
DOCKED: USER    NEWDPF move ligand.dum.pdbqt
DOCKED: USER    NEWDPF about 0.108000 0.248000 -0.022000
DOCKED: USER    NEWDPF tran0 39.093356 15.418150 121.999667
DOCKED: USER    NEWDPF quaternion0 0.511762 -0.301253 -0.151544 -0.790177
DOCKED: USER    NEWDPF axisangle0 0.835015 -0.491538 -0.247266 -75.595812
DOCKED: USER    NEWDPF quat0 0.835015 -0.491538 -0.247266 -75.595812
DOCKED: USER    NEWDPF dihe0 -151.08 -174.71 -98.82 -3.39 102.87 66.98 119.47 23.18 
DOCKED: USER  keepresnum = 1 
DOCKED: USER  
DOCKED: REMARK  Name = 
DOCKED: REMARK  8 active torsions:
DOCKED: REMARK  status: ('A' for Active; 'I' for Inactive)
DOCKED: REMARK    1  A    between atoms: C_2  and  C_10
DOCKED: REMARK    2  A    between atoms: N_3  and  C_4
DOCKED: REMARK    3  A    between atoms: C_10  and  C_11
DOCKED: REMARK    4  A    between atoms: C_11  and  C_12
DOCKED: REMARK    5  A    between atoms: C_12  and  C_13
DOCKED: REMARK    6  A    between atoms: C_13  and  C_14
DOCKED: REMARK    7  A    between atoms: C_14  and  C_15
DOCKED: REMARK    8  A    between atoms: C_15  and  C_16
DOCKED: REMARK                            x       y       z     vdW  Elec       q    Type
DOCKED: REMARK                         _______ _______ _______ _____ _____    ______ ____
DOCKED: USER                              x       y       z     vdW  Elec       q    Type
DOCKED: USER                           _______ _______ _______ _____ _____    ______ ____
DOCKED: ROOT
DOCKED: ATOM      1  C   UNL     1      39.121  15.170 120.523 -0.26 -0.00    +0.000 C 
DOCKED: ENDROOT
DOCKED: BRANCH   1   3
DOCKED: ATOM      2  O   UNL     1      37.099  15.396 119.276 -0.22 -0.00    +0.000 OA
DOCKED: ATOM      3  C   UNL     1      37.786  15.797 120.254 -0.20 -0.00    +0.000 C 
DOCKED: ATOM      4  N   UNL     1      37.302  16.847 121.108 -0.14 -0.00    +0.000 N 
DOCKED: ATOM      5  H   UNL     1      37.938  17.256 121.739 +0.01 -0.00    +0.000 HD
DOCKED: BRANCH   4   6
DOCKED: ATOM      6  C   UNL     1      35.951  17.338 121.103 -0.19 -0.00    +0.000 A 
DOCKED: ATOM      7  C   UNL     1      35.132  17.109 122.220 -0.29 -0.00    +0.000 A 
DOCKED: ATOM      8  C   UNL     1      33.806  17.554 122.229 -0.26 -0.00    +0.000 A 
DOCKED: ATOM      9  C   UNL     1      33.283  18.218 121.117 -0.26 -0.00    +0.000 A 
DOCKED: ATOM     10  C   UNL     1      34.082  18.432 119.992 -0.27 -0.00    +0.000 A 
DOCKED: ATOM     11  C   UNL     1      35.409  17.988 119.978 -0.19 -0.00    +0.000 A 
DOCKED: ATOM     12  CM  UNL     1      34.610  17.773 121.106 +0.00 -0.00    +0.000 AC
DOCKED: ENDBRANCH   4   6
DOCKED: ENDBRANCH   1   3
DOCKED: BRANCH   1  12
DOCKED: ATOM     13  C   UNL     1      38.942  13.820 121.225 -0.33 -0.00    +0.000 C 
DOCKED: BRANCH  12  13
DOCKED: ATOM     14  C   UNL     1      38.361  13.955 122.643 -0.45 -0.00    +0.000 C 
DOCKED: BRANCH  13  14
DOCKED: ATOM     15  C   UNL     1      37.219  12.961 122.938 -0.59 -0.00    +0.000 C 
DOCKED: BRANCH  14  15
DOCKED: ATOM     16  C   UNL     1      36.909  12.057 121.732 -0.56 -0.00    +0.000 C 
DOCKED: BRANCH  15  16
DOCKED: ATOM     17  C   UNL     1      35.945  10.919 122.088 -0.57 -0.00    +0.000 C 
DOCKED: BRANCH  16  17
DOCKED: ATOM     18  C   UNL     1      36.645   9.593 122.149 -0.69 -0.00    +0.000 C 
DOCKED: ATOM     19  N   UNL     1      36.814   8.920 123.399 -0.60 -0.00    +0.000 N 
DOCKED: ATOM     20  O   UNL     1      37.437   7.720 123.454 -2.60 -0.00    +0.000 OA
DOCKED: ATOM     21  O   UNL     1      37.062   9.058 121.087 -2.72 -0.00    +0.000 OA
DOCKED: ATOM     22  H   UNL     1      36.473   9.332 124.225 -0.39 -0.00    +0.000 HD
DOCKED: ENDBRANCH  16  17
DOCKED: ENDBRANCH  15  16
DOCKED: ENDBRANCH  14  15
DOCKED: ENDBRANCH  13  14
DOCKED: ENDBRANCH  12  13
DOCKED: ENDBRANCH   1  12
DOCKED: TORSDOF 8DOCKED: TER
DOCKED: ENDMDL
________________________________________________________________________________


	BEGINNING GENETIC ALGORITHM DOCKING 20 of 100
Run: 20 Seed: 89697434 799463969 [ Run 20 of 100 GA/GALS ]
Beginning LAMARCKIAN GENETIC ALGORITHM (LGA), with a maximum of 2500000 energy evaluations.

Final-Value: -13.286


	FINAL GENETIC ALGORITHM DOCKED STATE
	_______________________________________________


Detailed state:  trans 38.161 11.452 121.607 quatxyzw 0.802110 0.590699 -0.087666 0.003071 center 0.108 0.248 -0.022 ntor 8 -104.5671 -131.2991 -176.6456 109.8247 -162.7828 -154.0032 54.0146 155.0971
State:	 38.161  11.452 121.607   0.802  0.591 -0.088 179.648   -104.57 -131.30 -176.65  109.82 -162.78 -154.00   54.01  155.10

DOCKED: MODEL       20
DOCKED: USER    Run = 20
DOCKED: USER    DPF = ligand_dock.biased.dpf
DOCKED: USER  
DOCKED: USER    Estimated Free Energy of Binding    =   -9.94 kcal/mol  [=(1)+(2)+(3)-(4)]
DOCKED: USER    Estimated Inhibition Constant, Ki   =   52.17 nM (nanomolar)  [Temperature = 298.15 K]
DOCKED: USER    
DOCKED: USER    (1) Final Intermolecular Energy     =  -12.32 kcal/mol
DOCKED: USER        vdW + Hbond + desolv Energy     =  -12.32 kcal/mol
DOCKED: USER        Electrostatic Energy            =   +0.00 kcal/mol
DOCKED: USER    (2) Final Total Internal Energy     =   -0.96 kcal/mol
DOCKED: USER    (3) Torsional Free Energy           =   +2.39 kcal/mol
DOCKED: USER    (4) Unbound System's Energy  [=(2)] =   -0.96 kcal/mol
DOCKED: USER    
DOCKED: USER    
DOCKED: USER    NEWDPF move ligand.dum.pdbqt
DOCKED: USER    NEWDPF about 0.108000 0.248000 -0.022000
DOCKED: USER    NEWDPF tran0 38.161215 11.451593 121.606872
DOCKED: USER    NEWDPF quaternion0 0.802110 0.590699 -0.087666 0.003071
DOCKED: USER    NEWDPF axisangle0 0.802114 0.590702 -0.087666 179.648101
DOCKED: USER    NEWDPF quat0 0.802114 0.590702 -0.087666 179.648101
DOCKED: USER    NEWDPF dihe0 -104.57 -131.30 -176.65 109.82 -162.78 -154.00 54.01 155.10 
DOCKED: USER  keepresnum = 1 
DOCKED: USER  
DOCKED: REMARK  Name = 
DOCKED: REMARK  8 active torsions:
DOCKED: REMARK  status: ('A' for Active; 'I' for Inactive)
DOCKED: REMARK    1  A    between atoms: C_2  and  C_10
DOCKED: REMARK    2  A    between atoms: N_3  and  C_4
DOCKED: REMARK    3  A    between atoms: C_10  and  C_11
DOCKED: REMARK    4  A    between atoms: C_11  and  C_12
DOCKED: REMARK    5  A    between atoms: C_12  and  C_13
DOCKED: REMARK    6  A    between atoms: C_13  and  C_14
DOCKED: REMARK    7  A    between atoms: C_14  and  C_15
DOCKED: REMARK    8  A    between atoms: C_15  and  C_16
DOCKED: REMARK                            x       y       z     vdW  Elec       q    Type
DOCKED: REMARK                         _______ _______ _______ _____ _____    ______ ____
DOCKED: USER                              x       y       z     vdW  Elec       q    Type
DOCKED: USER                           _______ _______ _______ _____ _____    ______ ____
DOCKED: ROOT
DOCKED: ATOM      1  C   UNL     1      36.748  11.613 122.077 -0.61 -0.00    +0.000 C 
DOCKED: ENDROOT
DOCKED: BRANCH   1   3
DOCKED: ATOM      2  O   UNL     1      37.100   9.413 121.222 -2.52 -0.00    +0.000 OA
DOCKED: ATOM      3  C   UNL     1      36.397  10.160 121.955 -0.59 -0.00    +0.000 C 
DOCKED: ATOM      4  N   UNL     1      35.266   9.634 122.668 -0.60 -0.00    +0.000 N 
DOCKED: ATOM      5  H   UNL     1      34.640  10.275 123.075 -0.33 -0.00    +0.000 HD
DOCKED: BRANCH   4   6
DOCKED: ATOM      6  C   UNL     1      34.991   8.232 122.828 -0.61 -0.00    +0.000 A 
DOCKED: ATOM      7  C   UNL     1      36.061   7.332 122.962 -0.69 -0.00    +0.000 A 
DOCKED: ATOM      8  C   UNL     1      35.820   5.960 123.094 -0.62 -0.00    +0.000 A 
DOCKED: ATOM      9  C   UNL     1      34.511   5.474 123.079 -0.28 -0.00    +0.000 A 
DOCKED: ATOM     10  C   UNL     1      33.440   6.359 122.925 -0.66 -0.00    +0.000 A 
DOCKED: ATOM     11  C   UNL     1      33.676   7.731 122.792 -0.63 -0.00    +0.000 A 
DOCKED: ATOM     12  CM  UNL     1      34.750   6.848 122.946 +0.00 -0.00    +0.000 AC
DOCKED: ENDBRANCH   4   6
DOCKED: ENDBRANCH   1   3
DOCKED: BRANCH   1  12
DOCKED: ATOM     13  C   UNL     1      36.859  12.251 120.688 -0.46 -0.00    +0.000 C 
DOCKED: BRANCH  12  13
DOCKED: ATOM     14  C   UNL     1      38.137  13.091 120.515 -0.44 -0.00    +0.000 C 
DOCKED: BRANCH  13  14
DOCKED: ATOM     15  C   UNL     1      37.981  14.552 120.985 -0.34 -0.00    +0.000 C 
DOCKED: BRANCH  14  15
DOCKED: ATOM     16  C   UNL     1      38.438  14.744 122.442 -0.42 -0.00    +0.000 C 
DOCKED: BRANCH  15  16
DOCKED: ATOM     17  C   UNL     1      37.409  14.215 123.450 -0.45 -0.00    +0.000 C 
DOCKED: BRANCH  16  17
DOCKED: ATOM     18  C   UNL     1      36.115  14.971 123.375 -0.48 -0.00    +0.000 C 
DOCKED: ATOM     19  N   UNL     1      34.903  14.380 123.850 -0.54 -0.00    +0.000 N 
DOCKED: ATOM     20  O   UNL     1      33.737  15.064 123.791 -0.69 -0.00    +0.000 OA
DOCKED: ATOM     21  O   UNL     1      36.104  16.144 122.916 -0.34 -0.00    +0.000 OA
DOCKED: ATOM     22  H   UNL     1      34.917  13.470 124.224 -0.02 -0.00    +0.000 HD
DOCKED: ENDBRANCH  16  17
DOCKED: ENDBRANCH  15  16
DOCKED: ENDBRANCH  14  15
DOCKED: ENDBRANCH  13  14
DOCKED: ENDBRANCH  12  13
DOCKED: ENDBRANCH   1  12
DOCKED: TORSDOF 8DOCKED: TER
DOCKED: ENDMDL
________________________________________________________________________________


	BEGINNING GENETIC ALGORITHM DOCKING 21 of 100
Run: 21 Seed: 1764369208 467854272 [ Run 21 of 100 GA/GALS ]
Beginning LAMARCKIAN GENETIC ALGORITHM (LGA), with a maximum of 2500000 energy evaluations.

Final-Value: -13.561


	FINAL GENETIC ALGORITHM DOCKED STATE
	_______________________________________________


Detailed state:  trans 38.426 15.661 120.592 quatxyzw -0.104906 -0.408792 0.427716 0.799339 center 0.108 0.248 -0.022 ntor 8 -179.9407 48.9471 -7.7035 128.4190 -62.0353 -121.0289 -85.1545 172.2386
State:	 38.426  15.661 120.592  -0.175 -0.680  0.712 73.866   -179.94   48.95   -7.70  128.42  -62.04 -121.03  -85.15  172.24

DOCKED: MODEL       21
DOCKED: USER    Run = 21
DOCKED: USER    DPF = ligand_dock.biased.dpf
DOCKED: USER  
DOCKED: USER    Estimated Free Energy of Binding    =  -10.20 kcal/mol  [=(1)+(2)+(3)-(4)]
DOCKED: USER    Estimated Inhibition Constant, Ki   =   33.36 nM (nanomolar)  [Temperature = 298.15 K]
DOCKED: USER    
DOCKED: USER    (1) Final Intermolecular Energy     =  -12.59 kcal/mol
DOCKED: USER        vdW + Hbond + desolv Energy     =  -12.59 kcal/mol
DOCKED: USER        Electrostatic Energy            =   +0.00 kcal/mol
DOCKED: USER    (2) Final Total Internal Energy     =   -0.97 kcal/mol
DOCKED: USER    (3) Torsional Free Energy           =   +2.39 kcal/mol
DOCKED: USER    (4) Unbound System's Energy  [=(2)] =   -0.97 kcal/mol
DOCKED: USER    
DOCKED: USER    
DOCKED: USER    NEWDPF move ligand.dum.pdbqt
DOCKED: USER    NEWDPF about 0.108000 0.248000 -0.022000
DOCKED: USER    NEWDPF tran0 38.426324 15.661466 120.592337
DOCKED: USER    NEWDPF quaternion0 -0.104906 -0.408792 0.427716 0.799339
DOCKED: USER    NEWDPF axisangle0 -0.174587 -0.680322 0.711816 73.865982
DOCKED: USER    NEWDPF quat0 -0.174587 -0.680322 0.711816 73.865982
DOCKED: USER    NEWDPF dihe0 -179.94 48.95 -7.70 128.42 -62.04 -121.03 -85.15 172.24 
DOCKED: USER  keepresnum = 1 
DOCKED: USER  
DOCKED: REMARK  Name = 
DOCKED: REMARK  8 active torsions:
DOCKED: REMARK  status: ('A' for Active; 'I' for Inactive)
DOCKED: REMARK    1  A    between atoms: C_2  and  C_10
DOCKED: REMARK    2  A    between atoms: N_3  and  C_4
DOCKED: REMARK    3  A    between atoms: C_10  and  C_11
DOCKED: REMARK    4  A    between atoms: C_11  and  C_12
DOCKED: REMARK    5  A    between atoms: C_12  and  C_13
DOCKED: REMARK    6  A    between atoms: C_13  and  C_14
DOCKED: REMARK    7  A    between atoms: C_14  and  C_15
DOCKED: REMARK    8  A    between atoms: C_15  and  C_16
DOCKED: REMARK                            x       y       z     vdW  Elec       q    Type
DOCKED: REMARK                         _______ _______ _______ _____ _____    ______ ____
DOCKED: USER                              x       y       z     vdW  Elec       q    Type
DOCKED: USER                           _______ _______ _______ _____ _____    ______ ____
DOCKED: ROOT
DOCKED: ATOM      1  C   UNL     1      37.070  15.113 120.913 -0.25 -0.00    +0.000 C 
DOCKED: ENDROOT
DOCKED: BRANCH   1   3
DOCKED: ATOM      2  O   UNL     1      37.838  16.642 122.576 -0.22 -0.00    +0.000 OA
DOCKED: ATOM      3  C   UNL     1      36.901  15.898 122.179 -0.29 -0.00    +0.000 C 
DOCKED: ATOM      4  N   UNL     1      35.679  15.795 122.928 -0.35 -0.00    +0.000 N 
DOCKED: ATOM      5  H   UNL     1      35.054  15.072 122.692 -0.01 -0.00    +0.000 HD
DOCKED: BRANCH   4   6
DOCKED: ATOM      6  C   UNL     1      35.310  16.678 124.000 -0.38 -0.00    +0.000 A 
DOCKED: ATOM      7  C   UNL     1      34.395  16.238 124.971 -0.46 -0.00    +0.000 A 
DOCKED: ATOM      8  C   UNL     1      34.000  17.087 126.009 -0.37 -0.00    +0.000 A 
DOCKED: ATOM      9  C   UNL     1      34.503  18.388 126.079 -0.27 -0.00    +0.000 A 
DOCKED: ATOM     10  C   UNL     1      35.397  18.844 125.107 -0.22 -0.00    +0.000 A 
DOCKED: ATOM     11  C   UNL     1      35.794  17.999 124.066 -0.25 -0.00    +0.000 A 
DOCKED: ATOM     12  CM  UNL     1      34.900  17.539 125.039 -0.46 -0.00    +0.000 AC
DOCKED: ENDBRANCH   4   6
DOCKED: ENDBRANCH   1   3
DOCKED: BRANCH   1  12
DOCKED: ATOM     13  C   UNL     1      38.093  13.990 121.116 -0.40 -0.00    +0.000 C 
DOCKED: BRANCH  12  13
DOCKED: ATOM     14  C   UNL     1      37.456  12.686 121.629 -0.51 -0.00    +0.000 C 
DOCKED: BRANCH  13  14
DOCKED: ATOM     15  C   UNL     1      36.617  12.872 122.910 -0.60 -0.00    +0.000 C 
DOCKED: BRANCH  14  15
DOCKED: ATOM     16  C   UNL     1      36.298  11.531 123.595 -0.70 -0.00    +0.000 C 
DOCKED: BRANCH  15  16
DOCKED: ATOM     17  C   UNL     1      35.552  10.565 122.665 -0.65 -0.00    +0.000 C 
DOCKED: BRANCH  16  17
DOCKED: ATOM     18  C   UNL     1      36.352   9.327 122.388 -0.72 -0.00    +0.000 C 
DOCKED: ATOM     19  N   UNL     1      36.355   8.243 123.318 -0.68 -0.00    +0.000 N 
DOCKED: ATOM     20  O   UNL     1      37.069   7.122 123.064 -2.07 -0.00    +0.000 OA
DOCKED: ATOM     21  O   UNL     1      37.004   9.234 121.312 -2.59 -0.00    +0.000 OA
DOCKED: ATOM     22  H   UNL     1      35.832   8.311 124.149 -0.13 -0.00    +0.000 HD
DOCKED: ENDBRANCH  16  17
DOCKED: ENDBRANCH  15  16
DOCKED: ENDBRANCH  14  15
DOCKED: ENDBRANCH  13  14
DOCKED: ENDBRANCH  12  13
DOCKED: ENDBRANCH   1  12
DOCKED: TORSDOF 8DOCKED: TER
DOCKED: ENDMDL
________________________________________________________________________________


	BEGINNING GENETIC ALGORITHM DOCKING 22 of 100
Run: 22 Seed: 139065186 2000117371 [ Run 22 of 100 GA/GALS ]
Beginning LAMARCKIAN GENETIC ALGORITHM (LGA), with a maximum of 2500000 energy evaluations.

Final-Value: -12.313


	FINAL GENETIC ALGORITHM DOCKED STATE
	_______________________________________________


Detailed state:  trans 35.981 12.762 122.274 quatxyzw -0.046327 0.031993 0.498700 -0.864945 center 0.108 0.248 -0.022 ntor 8 -57.0096 8.3191 -165.7737 38.3201 161.2358 -180.0000 89.1866 154.4133
State:	 35.981  12.762 122.274  -0.092  0.064  0.994 -60.247    -57.01    8.32 -165.77   38.32  161.24 -180.00   89.19  154.41

DOCKED: MODEL       22
DOCKED: USER    Run = 22
DOCKED: USER    DPF = ligand_dock.biased.dpf
DOCKED: USER  
DOCKED: USER    Estimated Free Energy of Binding    =   -8.97 kcal/mol  [=(1)+(2)+(3)-(4)]
DOCKED: USER    Estimated Inhibition Constant, Ki   =  266.36 nM (nanomolar)  [Temperature = 298.15 K]
DOCKED: USER    
DOCKED: USER    (1) Final Intermolecular Energy     =  -11.36 kcal/mol
DOCKED: USER        vdW + Hbond + desolv Energy     =  -11.36 kcal/mol
DOCKED: USER        Electrostatic Energy            =   +0.00 kcal/mol
DOCKED: USER    (2) Final Total Internal Energy     =   -0.96 kcal/mol
DOCKED: USER    (3) Torsional Free Energy           =   +2.39 kcal/mol
DOCKED: USER    (4) Unbound System's Energy  [=(2)] =   -0.96 kcal/mol
DOCKED: USER    
DOCKED: USER    
DOCKED: USER    NEWDPF move ligand.dum.pdbqt
DOCKED: USER    NEWDPF about 0.108000 0.248000 -0.022000
DOCKED: USER    NEWDPF tran0 35.981390 12.762143 122.274419
DOCKED: USER    NEWDPF quaternion0 -0.046327 0.031993 0.498700 -0.864945
DOCKED: USER    NEWDPF axisangle0 -0.092310 0.063748 0.993688 -60.247258
DOCKED: USER    NEWDPF quat0 -0.092310 0.063748 0.993688 -60.247258
DOCKED: USER    NEWDPF dihe0 -57.01 8.32 -165.77 38.32 161.24 -180.00 89.19 154.41 
DOCKED: USER  keepresnum = 1 
DOCKED: USER  
DOCKED: REMARK  Name = 
DOCKED: REMARK  8 active torsions:
DOCKED: REMARK  status: ('A' for Active; 'I' for Inactive)
DOCKED: REMARK    1  A    between atoms: C_2  and  C_10
DOCKED: REMARK    2  A    between atoms: N_3  and  C_4
DOCKED: REMARK    3  A    between atoms: C_10  and  C_11
DOCKED: REMARK    4  A    between atoms: C_11  and  C_12
DOCKED: REMARK    5  A    between atoms: C_12  and  C_13
DOCKED: REMARK    6  A    between atoms: C_13  and  C_14
DOCKED: REMARK    7  A    between atoms: C_14  and  C_15
DOCKED: REMARK    8  A    between atoms: C_15  and  C_16
DOCKED: REMARK                            x       y       z     vdW  Elec       q    Type
DOCKED: REMARK                         _______ _______ _______ _____ _____    ______ ____
DOCKED: USER                              x       y       z     vdW  Elec       q    Type
DOCKED: USER                           _______ _______ _______ _____ _____    ______ ____
DOCKED: ROOT
DOCKED: ATOM      1  C   UNL     1      37.065  11.742 122.103 -0.58 -0.00    +0.000 C 
DOCKED: ENDROOT
DOCKED: BRANCH   1   3
DOCKED: ATOM      2  O   UNL     1      35.202  10.792 123.252 -0.62 -0.00    +0.000 OA
DOCKED: ATOM      3  C   UNL     1      36.233  10.581 122.557 -0.68 -0.00    +0.000 C 
DOCKED: ATOM      4  N   UNL     1      36.616   9.242 122.202 -0.65 -0.00    +0.000 N 
DOCKED: ATOM      5  H   UNL     1      37.514   9.106 121.824 -0.05 -0.00    +0.000 HD
DOCKED: BRANCH   4   6
DOCKED: ATOM      6  C   UNL     1      35.771   8.090 122.360 -0.65 -0.00    +0.000 A 
DOCKED: ATOM      7  C   UNL     1      34.429   8.159 121.955 -0.59 -0.00    +0.000 A 
DOCKED: ATOM      8  C   UNL     1      33.580   7.060 122.121 -0.59 -0.00    +0.000 A 
DOCKED: ATOM      9  C   UNL     1      34.061   5.887 122.708 -0.61 -0.00    +0.000 A 
DOCKED: ATOM     10  C   UNL     1      35.389   5.814 123.135 -0.64 -0.00    +0.000 A 
DOCKED: ATOM     11  C   UNL     1      36.241   6.911 122.971 -0.68 -0.00    +0.000 A 
DOCKED: ATOM     12  CM  UNL     1      34.912   6.987 122.542 +0.00 -0.00    +0.000 AC
DOCKED: ENDBRANCH   4   6
DOCKED: ENDBRANCH   1   3
DOCKED: BRANCH   1  12
DOCKED: ATOM     13  C   UNL     1      37.436  12.629 123.297 -0.58 -0.00    +0.000 C 
DOCKED: BRANCH  12  13
DOCKED: ATOM     14  C   UNL     1      36.499  13.839 123.458 -0.56 -0.00    +0.000 C 
DOCKED: BRANCH  13  14
DOCKED: ATOM     15  C   UNL     1      37.190  15.193 123.197 -0.41 -0.00    +0.000 C 
DOCKED: BRANCH  14  15
DOCKED: ATOM     16  C   UNL     1      37.805  15.269 121.789 -0.31 -0.00    +0.000 C 
DOCKED: BRANCH  15  16
DOCKED: ATOM     17  C   UNL     1      39.072  16.133 121.752 -0.23 -0.00    +0.000 C 
DOCKED: BRANCH  16  17
DOCKED: ATOM     18  C   UNL     1      40.253  15.417 122.338 -0.41 -0.00    +0.000 C 
DOCKED: ATOM     19  N   UNL     1      41.344  16.153 122.894 -0.39 -0.00    +0.000 N 
DOCKED: ATOM     20  O   UNL     1      42.405  15.508 123.431 -1.10 +0.00    +0.000 OA
DOCKED: ATOM     21  O   UNL     1      40.267  14.157 122.365 -1.01 +0.00    +0.000 OA
DOCKED: ATOM     22  H   UNL     1      41.323  17.137 122.887 -0.01 -0.00    +0.000 HD
DOCKED: ENDBRANCH  16  17
DOCKED: ENDBRANCH  15  16
DOCKED: ENDBRANCH  14  15
DOCKED: ENDBRANCH  13  14
DOCKED: ENDBRANCH  12  13
DOCKED: ENDBRANCH   1  12
DOCKED: TORSDOF 8DOCKED: TER
DOCKED: ENDMDL
________________________________________________________________________________


	BEGINNING GENETIC ALGORITHM DOCKING 23 of 100
Run: 23 Seed: 345501801 31419767 [ Run 23 of 100 GA/GALS ]
Beginning LAMARCKIAN GENETIC ALGORITHM (LGA), with a maximum of 2500000 energy evaluations.

Final-Value: -14.185


	FINAL GENETIC ALGORITHM DOCKED STATE
	_______________________________________________


Detailed state:  trans 39.337 15.235 121.452 quatxyzw 0.226404 0.602782 0.229830 0.729776 center 0.108 0.248 -0.022 ntor 8 116.4561 39.1957 38.9960 -111.1452 -44.5964 6.1129 -78.9900 179.6253
State:	 39.337  15.235 121.452   0.331  0.882  0.336 86.265    116.46   39.20   39.00 -111.15  -44.60    6.11  -78.99  179.63

DOCKED: MODEL       23
DOCKED: USER    Run = 23
DOCKED: USER    DPF = ligand_dock.biased.dpf
DOCKED: USER  
DOCKED: USER    Estimated Free Energy of Binding    =  -10.65 kcal/mol  [=(1)+(2)+(3)-(4)]
DOCKED: USER    Estimated Inhibition Constant, Ki   =   15.61 nM (nanomolar)  [Temperature = 298.15 K]
DOCKED: USER    
DOCKED: USER    (1) Final Intermolecular Energy     =  -13.04 kcal/mol
DOCKED: USER        vdW + Hbond + desolv Energy     =  -13.04 kcal/mol
DOCKED: USER        Electrostatic Energy            =   +0.00 kcal/mol
DOCKED: USER    (2) Final Total Internal Energy     =   -1.15 kcal/mol
DOCKED: USER    (3) Torsional Free Energy           =   +2.39 kcal/mol
DOCKED: USER    (4) Unbound System's Energy  [=(2)] =   -1.15 kcal/mol
DOCKED: USER    
DOCKED: USER    
DOCKED: USER    NEWDPF move ligand.dum.pdbqt
DOCKED: USER    NEWDPF about 0.108000 0.248000 -0.022000
DOCKED: USER    NEWDPF tran0 39.337450 15.234587 121.452028
DOCKED: USER    NEWDPF quaternion0 0.226404 0.602782 0.229830 0.729776
DOCKED: USER    NEWDPF axisangle0 0.331151 0.881665 0.336163 86.264757
DOCKED: USER    NEWDPF quat0 0.331151 0.881665 0.336163 86.264757
DOCKED: USER    NEWDPF dihe0 116.46 39.20 39.00 -111.15 -44.60 6.11 -78.99 179.63 
DOCKED: USER  keepresnum = 1 
DOCKED: USER  
DOCKED: REMARK  Name = 
DOCKED: REMARK  8 active torsions:
DOCKED: REMARK  status: ('A' for Active; 'I' for Inactive)
DOCKED: REMARK    1  A    between atoms: C_2  and  C_10
DOCKED: REMARK    2  A    between atoms: N_3  and  C_4
DOCKED: REMARK    3  A    between atoms: C_10  and  C_11
DOCKED: REMARK    4  A    between atoms: C_11  and  C_12
DOCKED: REMARK    5  A    between atoms: C_12  and  C_13
DOCKED: REMARK    6  A    between atoms: C_13  and  C_14
DOCKED: REMARK    7  A    between atoms: C_14  and  C_15
DOCKED: REMARK    8  A    between atoms: C_15  and  C_16
DOCKED: REMARK                            x       y       z     vdW  Elec       q    Type
DOCKED: REMARK                         _______ _______ _______ _____ _____    ______ ____
DOCKED: USER                              x       y       z     vdW  Elec       q    Type
DOCKED: USER                           _______ _______ _______ _____ _____    ______ ____
DOCKED: ROOT
DOCKED: ATOM      1  C   UNL     1      38.623  13.949 121.170 -0.39 -0.00    +0.000 C 
DOCKED: ENDROOT
DOCKED: BRANCH   1   3
DOCKED: ATOM      2  O   UNL     1      38.611  15.413 119.286 -0.20 -0.00    +0.000 OA
DOCKED: ATOM      3  C   UNL     1      38.207  14.326 119.780 -0.29 -0.00    +0.000 C 
DOCKED: ATOM      4  N   UNL     1      37.354  13.450 119.025 -0.39 -0.00    +0.000 N 
DOCKED: ATOM      5  H   UNL     1      36.913  12.712 119.504 -0.05 -0.00    +0.000 HD
DOCKED: BRANCH   4   6
DOCKED: ATOM      6  C   UNL     1      37.103  13.581 117.616 -0.36 -0.00    +0.000 A 
DOCKED: ATOM      7  C   UNL     1      35.834  13.996 117.178 -0.32 -0.00    +0.000 A 
DOCKED: ATOM      8  C   UNL     1      35.557  14.108 115.812 -0.28 -0.00    +0.000 A 
DOCKED: ATOM      9  C   UNL     1      36.539  13.791 114.870 -0.30 -0.00    +0.000 A 
DOCKED: ATOM     10  C   UNL     1      37.798  13.357 115.293 -0.42 -0.00    +0.000 A 
DOCKED: ATOM     11  C   UNL     1      38.079  13.243 116.659 -0.35 -0.00    +0.000 A 
DOCKED: ATOM     12  CM  UNL     1      36.818  13.679 116.238 +0.00 -0.00    +0.000 AC
DOCKED: ENDBRANCH   4   6
DOCKED: ENDBRANCH   1   3
DOCKED: BRANCH   1  12
DOCKED: ATOM     13  C   UNL     1      37.800  14.730 122.200 -0.40 -0.00    +0.000 C 
DOCKED: BRANCH  12  13
DOCKED: ATOM     14  C   UNL     1      36.572  13.949 122.702 -0.47 -0.00    +0.000 C 
DOCKED: BRANCH  13  14
DOCKED: ATOM     15  C   UNL     1      36.926  12.791 123.657 -0.57 -0.00    +0.000 C 
DOCKED: BRANCH  14  15
DOCKED: ATOM     16  C   UNL     1      35.945  11.612 123.528 -0.68 -0.00    +0.000 C 
DOCKED: BRANCH  15  16
DOCKED: ATOM     17  C   UNL     1      35.974  10.979 122.131 -0.59 -0.00    +0.000 C 
DOCKED: BRANCH  16  17
DOCKED: ATOM     18  C   UNL     1      36.659   9.644 122.137 -0.69 -0.00    +0.000 C 
DOCKED: ATOM     19  N   UNL     1      36.830   8.924 123.360 -0.61 -0.00    +0.000 N 
DOCKED: ATOM     20  O   UNL     1      37.439   7.716 123.366 -2.53 -0.00    +0.000 OA
DOCKED: ATOM     21  O   UNL     1      37.058   9.143 121.052 -2.73 -0.00    +0.000 OA
DOCKED: ATOM     22  H   UNL     1      36.502   9.311 124.204 -0.42 -0.00    +0.000 HD
DOCKED: ENDBRANCH  16  17
DOCKED: ENDBRANCH  15  16
DOCKED: ENDBRANCH  14  15
DOCKED: ENDBRANCH  13  14
DOCKED: ENDBRANCH  12  13
DOCKED: ENDBRANCH   1  12
DOCKED: TORSDOF 8DOCKED: TER
DOCKED: ENDMDL
________________________________________________________________________________


	BEGINNING GENETIC ALGORITHM DOCKING 24 of 100
Run: 24 Seed: 1983927288 1239483380 [ Run 24 of 100 GA/GALS ]
Beginning LAMARCKIAN GENETIC ALGORITHM (LGA), with a maximum of 2500000 energy evaluations.

Final-Value: -13.885


	FINAL GENETIC ALGORITHM DOCKED STATE
	_______________________________________________


Detailed state:  trans 39.311 15.296 122.503 quatxyzw 0.563087 -0.023691 -0.323952 -0.759886 center 0.108 0.248 -0.022 ntor 8 -140.7437 -180.0000 -164.0995 -42.0893 153.8381 25.2156 155.1732 10.0664
State:	 39.311  15.296 122.503   0.866 -0.036 -0.498 -81.092   -140.74 -180.00 -164.10  -42.09  153.84   25.22  155.17   10.07

DOCKED: MODEL       24
DOCKED: USER    Run = 24
DOCKED: USER    DPF = ligand_dock.biased.dpf
DOCKED: USER  
DOCKED: USER    Estimated Free Energy of Binding    =  -10.35 kcal/mol  [=(1)+(2)+(3)-(4)]
DOCKED: USER    Estimated Inhibition Constant, Ki   =   25.88 nM (nanomolar)  [Temperature = 298.15 K]
DOCKED: USER    
DOCKED: USER    (1) Final Intermolecular Energy     =  -12.74 kcal/mol
DOCKED: USER        vdW + Hbond + desolv Energy     =  -12.74 kcal/mol
DOCKED: USER        Electrostatic Energy            =   +0.00 kcal/mol
DOCKED: USER    (2) Final Total Internal Energy     =   -1.15 kcal/mol
DOCKED: USER    (3) Torsional Free Energy           =   +2.39 kcal/mol
DOCKED: USER    (4) Unbound System's Energy  [=(2)] =   -1.15 kcal/mol
DOCKED: USER    
DOCKED: USER    
DOCKED: USER    NEWDPF move ligand.dum.pdbqt
DOCKED: USER    NEWDPF about 0.108000 0.248000 -0.022000
DOCKED: USER    NEWDPF tran0 39.311332 15.295638 122.503115
DOCKED: USER    NEWDPF quaternion0 0.563087 -0.023691 -0.323952 -0.759886
DOCKED: USER    NEWDPF axisangle0 0.866213 -0.036444 -0.498344 -81.091700
DOCKED: USER    NEWDPF quat0 0.866213 -0.036444 -0.498344 -81.091700
DOCKED: USER    NEWDPF dihe0 -140.74 -180.00 -164.10 -42.09 153.84 25.22 155.17 10.07 
DOCKED: USER  keepresnum = 1 
DOCKED: USER  
DOCKED: REMARK  Name = 
DOCKED: REMARK  8 active torsions:
DOCKED: REMARK  status: ('A' for Active; 'I' for Inactive)
DOCKED: REMARK    1  A    between atoms: C_2  and  C_10
DOCKED: REMARK    2  A    between atoms: N_3  and  C_4
DOCKED: REMARK    3  A    between atoms: C_10  and  C_11
DOCKED: REMARK    4  A    between atoms: C_11  and  C_12
DOCKED: REMARK    5  A    between atoms: C_12  and  C_13
DOCKED: REMARK    6  A    between atoms: C_13  and  C_14
DOCKED: REMARK    7  A    between atoms: C_14  and  C_15
DOCKED: REMARK    8  A    between atoms: C_15  and  C_16
DOCKED: REMARK                            x       y       z     vdW  Elec       q    Type
DOCKED: REMARK                         _______ _______ _______ _____ _____    ______ ____
DOCKED: USER                              x       y       z     vdW  Elec       q    Type
DOCKED: USER                           _______ _______ _______ _____ _____    ______ ____
DOCKED: ROOT
DOCKED: ATOM      1  C   UNL     1      38.502  15.467 121.254 -0.27 -0.00    +0.000 C 
DOCKED: ENDROOT
DOCKED: BRANCH   1   3
DOCKED: ATOM      2  O   UNL     1      36.180  16.010 121.338 -0.23 -0.00    +0.000 OA
DOCKED: ATOM      3  C   UNL     1      37.279  15.980 121.954 -0.26 -0.00    +0.000 C 
DOCKED: ATOM      4  N   UNL     1      37.370  16.435 123.314 -0.27 -0.00    +0.000 N 
DOCKED: ATOM      5  H   UNL     1      38.267  16.571 123.695 -0.02 -0.00    +0.000 HD
DOCKED: BRANCH   4   6
DOCKED: ATOM      6  C   UNL     1      36.235  16.703 124.155 -0.27 -0.00    +0.000 A 
DOCKED: ATOM      7  C   UNL     1      35.190  15.768 124.220 -0.47 -0.00    +0.000 A 
DOCKED: ATOM      8  C   UNL     1      34.064  16.016 125.011 -0.47 -0.00    +0.000 A 
DOCKED: ATOM      9  C   UNL     1      33.965  17.208 125.733 -0.37 -0.00    +0.000 A 
DOCKED: ATOM     10  C   UNL     1      34.989  18.156 125.660 -0.26 -0.00    +0.000 A 
DOCKED: ATOM     11  C   UNL     1      36.117  17.912 124.869 -0.22 -0.00    +0.000 A 
DOCKED: ATOM     12  CM  UNL     1      35.093  16.960 124.941 -0.30 -0.00    +0.000 AC
DOCKED: ENDBRANCH   4   6
DOCKED: ENDBRANCH   1   3
DOCKED: BRANCH   1  12
DOCKED: ATOM     13  C   UNL     1      38.667  13.964 121.507 -0.38 -0.00    +0.000 C 
DOCKED: BRANCH  12  13
DOCKED: ATOM     14  C   UNL     1      38.122  13.525 122.878 -0.45 -0.00    +0.000 C 
DOCKED: BRANCH  13  14
DOCKED: ATOM     15  C   UNL     1      36.652  13.060 122.836 -0.58 -0.00    +0.000 C 
DOCKED: BRANCH  14  15
DOCKED: ATOM     16  C   UNL     1      36.404  12.018 121.730 -0.51 -0.00    +0.000 C 
DOCKED: BRANCH  15  16
DOCKED: ATOM     17  C   UNL     1      35.625  10.799 122.243 -0.58 -0.00    +0.000 C 
DOCKED: BRANCH  16  17
DOCKED: ATOM     18  C   UNL     1      36.470   9.559 122.245 -0.69 -0.00    +0.000 C 
DOCKED: ATOM     19  N   UNL     1      36.689   8.835 123.458 -0.58 -0.00    +0.000 N 
DOCKED: ATOM     20  O   UNL     1      37.443   7.712 123.460 -2.60 -0.00    +0.000 OA
DOCKED: ATOM     21  O   UNL     1      36.965   9.139 121.165 -2.70 -0.00    +0.000 OA
DOCKED: ATOM     22  H   UNL     1      36.288   9.156 124.298 -0.26 -0.00    +0.000 HD
DOCKED: ENDBRANCH  16  17
DOCKED: ENDBRANCH  15  16
DOCKED: ENDBRANCH  14  15
DOCKED: ENDBRANCH  13  14
DOCKED: ENDBRANCH  12  13
DOCKED: ENDBRANCH   1  12
DOCKED: TORSDOF 8DOCKED: TER
DOCKED: ENDMDL
________________________________________________________________________________


	BEGINNING GENETIC ALGORITHM DOCKING 25 of 100
Run: 25 Seed: 232297781 73210829 [ Run 25 of 100 GA/GALS ]
Beginning LAMARCKIAN GENETIC ALGORITHM (LGA), with a maximum of 2500000 energy evaluations.

Final-Value: -12.842


	FINAL GENETIC ALGORITHM DOCKED STATE
	_______________________________________________


Detailed state:  trans 39.415 12.912 120.774 quatxyzw 0.342436 0.002734 -0.884120 -0.317901 center 0.108 0.248 -0.022 ntor 8 -105.4455 168.9603 -172.3864 -13.5783 100.0421 128.8005 -157.7564 -153.9787
State:	 39.415  12.912 120.774   0.361  0.003 -0.932 -142.928   -105.45  168.96 -172.39  -13.58  100.04  128.80 -157.76 -153.98

DOCKED: MODEL       25
DOCKED: USER    Run = 25
DOCKED: USER    DPF = ligand_dock.biased.dpf
DOCKED: USER  
DOCKED: USER    Estimated Free Energy of Binding    =   -9.59 kcal/mol  [=(1)+(2)+(3)-(4)]
DOCKED: USER    Estimated Inhibition Constant, Ki   =   93.76 nM (nanomolar)  [Temperature = 298.15 K]
DOCKED: USER    
DOCKED: USER    (1) Final Intermolecular Energy     =  -11.97 kcal/mol
DOCKED: USER        vdW + Hbond + desolv Energy     =  -11.97 kcal/mol
DOCKED: USER        Electrostatic Energy            =   +0.00 kcal/mol
DOCKED: USER    (2) Final Total Internal Energy     =   -0.87 kcal/mol
DOCKED: USER    (3) Torsional Free Energy           =   +2.39 kcal/mol
DOCKED: USER    (4) Unbound System's Energy  [=(2)] =   -0.87 kcal/mol
DOCKED: USER    
DOCKED: USER    
DOCKED: USER    NEWDPF move ligand.dum.pdbqt
DOCKED: USER    NEWDPF about 0.108000 0.248000 -0.022000
DOCKED: USER    NEWDPF tran0 39.415182 12.912389 120.774082
DOCKED: USER    NEWDPF quaternion0 0.342436 0.002734 -0.884120 -0.317901
DOCKED: USER    NEWDPF axisangle0 0.361172 0.002884 -0.932495 -142.927958
DOCKED: USER    NEWDPF quat0 0.361172 0.002884 -0.932495 -142.927958
DOCKED: USER    NEWDPF dihe0 -105.45 168.96 -172.39 -13.58 100.04 128.80 -157.76 -153.98 
DOCKED: USER  keepresnum = 1 
DOCKED: USER  
DOCKED: REMARK  Name = 
DOCKED: REMARK  8 active torsions:
DOCKED: REMARK  status: ('A' for Active; 'I' for Inactive)
DOCKED: REMARK    1  A    between atoms: C_2  and  C_10
DOCKED: REMARK    2  A    between atoms: N_3  and  C_4
DOCKED: REMARK    3  A    between atoms: C_10  and  C_11
DOCKED: REMARK    4  A    between atoms: C_11  and  C_12
DOCKED: REMARK    5  A    between atoms: C_12  and  C_13
DOCKED: REMARK    6  A    between atoms: C_13  and  C_14
DOCKED: REMARK    7  A    between atoms: C_14  and  C_15
DOCKED: REMARK    8  A    between atoms: C_15  and  C_16
DOCKED: REMARK                            x       y       z     vdW  Elec       q    Type
DOCKED: REMARK                         _______ _______ _______ _____ _____    ______ ____
DOCKED: USER                              x       y       z     vdW  Elec       q    Type
DOCKED: USER                           _______ _______ _______ _____ _____    ______ ____
DOCKED: ROOT
DOCKED: ATOM      1  C   UNL     1      38.949  14.299 120.450 -0.25 -0.00    +0.000 C 
DOCKED: ENDROOT
DOCKED: BRANCH   1   3
DOCKED: ATOM      2  O   UNL     1      40.734  14.465 122.024 -1.08 -0.00    +0.000 OA
DOCKED: ATOM      3  C   UNL     1      39.650  14.951 121.603 -0.36 -0.00    +0.000 C 
DOCKED: ATOM      4  N   UNL     1      39.082  16.119 122.219 -0.23 -0.00    +0.000 N 
DOCKED: ATOM      5  H   UNL     1      38.154  16.356 121.989 +0.00 -0.00    +0.000 HD
DOCKED: BRANCH   4   6
DOCKED: ATOM      6  C   UNL     1      39.780  16.965 123.147 -0.23 -0.00    +0.000 A 
DOCKED: ATOM      7  C   UNL     1      41.140  17.246 122.934 -0.26 -0.00    +0.000 A 
DOCKED: ATOM      8  C   UNL     1      41.848  18.046 123.836 -0.23 -0.00    +0.000 A 
DOCKED: ATOM      9  C   UNL     1      41.209  18.561 124.967 -0.25 -0.00    +0.000 A 
DOCKED: ATOM     10  C   UNL     1      39.863  18.271 125.200 -0.25 -0.00    +0.000 A 
DOCKED: ATOM     11  C   UNL     1      39.150  17.471 124.301 -0.17 -0.00    +0.000 A 
DOCKED: ATOM     12  CM  UNL     1      40.499  17.760 124.064 +0.00 -0.00    +0.000 AC
DOCKED: ENDBRANCH   4   6
DOCKED: ENDBRANCH   1   3
DOCKED: BRANCH   1  12
DOCKED: ATOM     13  C   UNL     1      37.740  13.498 120.948 -0.44 -0.00    +0.000 C 
DOCKED: BRANCH  12  13
DOCKED: ATOM     14  C   UNL     1      37.323  13.874 122.381 -0.48 -0.00    +0.000 C 
DOCKED: BRANCH  13  14
DOCKED: ATOM     15  C   UNL     1      36.383  12.843 123.039 -0.61 -0.00    +0.000 C 
DOCKED: BRANCH  14  15
DOCKED: ATOM     16  C   UNL     1      36.009  11.701 122.077 -0.49 -0.00    +0.000 C 
DOCKED: BRANCH  15  16
DOCKED: ATOM     17  C   UNL     1      35.502  10.457 122.818 -0.63 -0.00    +0.000 C 
DOCKED: BRANCH  16  17
DOCKED: ATOM     18  C   UNL     1      36.308   9.238 122.479 -0.72 -0.00    +0.000 C 
DOCKED: ATOM     19  N   UNL     1      36.348   8.125 123.374 -0.69 -0.00    +0.000 N 
DOCKED: ATOM     20  O   UNL     1      37.067   7.021 123.065 -1.96 -0.00    +0.000 OA
DOCKED: ATOM     21  O   UNL     1      36.929   9.186 121.383 -2.51 -0.00    +0.000 OA
DOCKED: ATOM     22  H   UNL     1      35.849   8.161 124.222 -0.12 -0.00    +0.000 HD
DOCKED: ENDBRANCH  16  17
DOCKED: ENDBRANCH  15  16
DOCKED: ENDBRANCH  14  15
DOCKED: ENDBRANCH  13  14
DOCKED: ENDBRANCH  12  13
DOCKED: ENDBRANCH   1  12
DOCKED: TORSDOF 8DOCKED: TER
DOCKED: ENDMDL
________________________________________________________________________________


	BEGINNING GENETIC ALGORITHM DOCKING 26 of 100
Run: 26 Seed: 1533669903 1991134831 [ Run 26 of 100 GA/GALS ]
Beginning LAMARCKIAN GENETIC ALGORITHM (LGA), with a maximum of 2500000 energy evaluations.

Final-Value: -13.716


	FINAL GENETIC ALGORITHM DOCKED STATE
	_______________________________________________


Detailed state:  trans 37.472 15.373 120.707 quatxyzw -0.164395 0.592206 -0.049288 0.787297 center 0.108 0.248 -0.022 ntor 8 87.3541 55.3536 107.8026 -175.9893 175.6032 106.0175 -7.2073 166.4098
State:	 37.472  15.373 120.707  -0.267  0.960 -0.080 76.133     87.35   55.35  107.80 -175.99  175.60  106.02   -7.21  166.41

DOCKED: MODEL       26
DOCKED: USER    Run = 26
DOCKED: USER    DPF = ligand_dock.biased.dpf
DOCKED: USER  
DOCKED: USER    Estimated Free Energy of Binding    =  -10.64 kcal/mol  [=(1)+(2)+(3)-(4)]
DOCKED: USER    Estimated Inhibition Constant, Ki   =   15.85 nM (nanomolar)  [Temperature = 298.15 K]
DOCKED: USER    
DOCKED: USER    (1) Final Intermolecular Energy     =  -13.03 kcal/mol
DOCKED: USER        vdW + Hbond + desolv Energy     =  -13.03 kcal/mol
DOCKED: USER        Electrostatic Energy            =   +0.00 kcal/mol
DOCKED: USER    (2) Final Total Internal Energy     =   -0.69 kcal/mol
DOCKED: USER    (3) Torsional Free Energy           =   +2.39 kcal/mol
DOCKED: USER    (4) Unbound System's Energy  [=(2)] =   -0.69 kcal/mol
DOCKED: USER    
DOCKED: USER    
DOCKED: USER    NEWDPF move ligand.dum.pdbqt
DOCKED: USER    NEWDPF about 0.108000 0.248000 -0.022000
DOCKED: USER    NEWDPF tran0 37.472098 15.373058 120.707267
DOCKED: USER    NEWDPF quaternion0 -0.164395 0.592206 -0.049288 0.787297
DOCKED: USER    NEWDPF axisangle0 -0.266626 0.960479 -0.079938 76.132747
DOCKED: USER    NEWDPF quat0 -0.266626 0.960479 -0.079938 76.132747
DOCKED: USER    NEWDPF dihe0 87.35 55.35 107.80 -175.99 175.60 106.02 -7.21 166.41 
DOCKED: USER  keepresnum = 1 
DOCKED: USER  
DOCKED: REMARK  Name = 
DOCKED: REMARK  8 active torsions:
DOCKED: REMARK  status: ('A' for Active; 'I' for Inactive)
DOCKED: REMARK    1  A    between atoms: C_2  and  C_10
DOCKED: REMARK    2  A    between atoms: N_3  and  C_4
DOCKED: REMARK    3  A    between atoms: C_10  and  C_11
DOCKED: REMARK    4  A    between atoms: C_11  and  C_12
DOCKED: REMARK    5  A    between atoms: C_12  and  C_13
DOCKED: REMARK    6  A    between atoms: C_13  and  C_14
DOCKED: REMARK    7  A    between atoms: C_14  and  C_15
DOCKED: REMARK    8  A    between atoms: C_15  and  C_16
DOCKED: REMARK                            x       y       z     vdW  Elec       q    Type
DOCKED: REMARK                         _______ _______ _______ _____ _____    ______ ____
DOCKED: USER                              x       y       z     vdW  Elec       q    Type
DOCKED: USER                           _______ _______ _______ _____ _____    ______ ____
DOCKED: ROOT
DOCKED: ATOM      1  C   UNL     1      38.023  14.144 120.051 -0.34 -0.00    +0.000 C 
DOCKED: ENDROOT
DOCKED: BRANCH   1   3
DOCKED: ATOM      2  O   UNL     1      36.391  15.226 118.686 -0.24 -0.00    +0.000 OA
DOCKED: ATOM      3  C   UNL     1      37.273  14.329 118.766 -0.33 -0.00    +0.000 C 
DOCKED: ATOM      4  N   UNL     1      37.561  13.483 117.640 -0.38 -0.00    +0.000 N 
DOCKED: ATOM      5  H   UNL     1      38.114  12.683 117.795 -0.13 -0.00    +0.000 HD
DOCKED: BRANCH   4   6
DOCKED: ATOM      6  C   UNL     1      37.097  13.729 116.303 -0.34 -0.00    +0.000 A 
DOCKED: ATOM      7  C   UNL     1      35.784  14.185 116.103 -0.29 -0.00    +0.000 A 
DOCKED: ATOM      8  C   UNL     1      35.300  14.408 114.810 -0.22 -0.00    +0.000 A 
DOCKED: ATOM      9  C   UNL     1      36.118  14.163 113.704 -0.23 -0.00    +0.000 A 
DOCKED: ATOM     10  C   UNL     1      37.419  13.689 113.890 -0.31 -0.00    +0.000 A 
DOCKED: ATOM     11  C   UNL     1      37.907  13.464 115.181 -0.41 -0.00    +0.000 A 
DOCKED: ATOM     12  CM  UNL     1      36.604  13.939 114.999 +0.00 -0.00    +0.000 AC
DOCKED: ENDBRANCH   4   6
DOCKED: ENDBRANCH   1   3
DOCKED: BRANCH   1  12
DOCKED: ATOM     13  C   UNL     1      37.067  13.698 121.163 -0.38 -0.00    +0.000 C 
DOCKED: BRANCH  12  13
DOCKED: ATOM     14  C   UNL     1      37.803  13.179 122.411 -0.48 -0.00    +0.000 C 
DOCKED: BRANCH  13  14
DOCKED: ATOM     15  C   UNL     1      36.866  12.885 123.601 -0.59 -0.00    +0.000 C 
DOCKED: BRANCH  14  15
DOCKED: ATOM     16  C   UNL     1      36.016  11.623 123.373 -0.69 -0.00    +0.000 C 
DOCKED: BRANCH  15  16
DOCKED: ATOM     17  C   UNL     1      36.267  10.992 121.998 -0.60 -0.00    +0.000 C 
DOCKED: BRANCH  16  17
DOCKED: ATOM     18  C   UNL     1      36.705   9.562 122.111 -0.69 -0.00    +0.000 C 
DOCKED: ATOM     19  N   UNL     1      37.055   9.011 123.383 -0.60 -0.00    +0.000 N 
DOCKED: ATOM     20  O   UNL     1      37.442   7.718 123.488 -2.58 -0.00    +0.000 OA
DOCKED: ATOM     21  O   UNL     1      36.737   8.835 121.082 -2.62 -0.00    +0.000 OA
DOCKED: ATOM     22  H   UNL     1      37.014   9.576 124.188 -0.57 -0.00    +0.000 HD
DOCKED: ENDBRANCH  16  17
DOCKED: ENDBRANCH  15  16
DOCKED: ENDBRANCH  14  15
DOCKED: ENDBRANCH  13  14
DOCKED: ENDBRANCH  12  13
DOCKED: ENDBRANCH   1  12
DOCKED: TORSDOF 8DOCKED: TER
DOCKED: ENDMDL
________________________________________________________________________________


	BEGINNING GENETIC ALGORITHM DOCKING 27 of 100
Run: 27 Seed: 70585522 1070780111 [ Run 27 of 100 GA/GALS ]
Beginning LAMARCKIAN GENETIC ALGORITHM (LGA), with a maximum of 2500000 energy evaluations.

Final-Value: -14.063


	FINAL GENETIC ALGORITHM DOCKED STATE
	_______________________________________________


Detailed state:  trans 36.839 12.959 120.544 quatxyzw 0.709119 -0.200727 0.674699 -0.040502 center 0.108 0.248 -0.022 ntor 8 122.0941 101.7958 -152.3176 109.3426 177.2598 -8.5909 -9.3566 28.5351
State:	 36.839  12.959 120.544   0.710 -0.201  0.675 -175.357    122.09  101.80 -152.32  109.34  177.26   -8.59   -9.36   28.54

DOCKED: MODEL       27
DOCKED: USER    Run = 27
DOCKED: USER    DPF = ligand_dock.biased.dpf
DOCKED: USER  
DOCKED: USER    Estimated Free Energy of Binding    =  -10.73 kcal/mol  [=(1)+(2)+(3)-(4)]
DOCKED: USER    Estimated Inhibition Constant, Ki   =   13.58 nM (nanomolar)  [Temperature = 298.15 K]
DOCKED: USER    
DOCKED: USER    (1) Final Intermolecular Energy     =  -13.12 kcal/mol
DOCKED: USER        vdW + Hbond + desolv Energy     =  -13.12 kcal/mol
DOCKED: USER        Electrostatic Energy            =   +0.00 kcal/mol
DOCKED: USER    (2) Final Total Internal Energy     =   -0.94 kcal/mol
DOCKED: USER    (3) Torsional Free Energy           =   +2.39 kcal/mol
DOCKED: USER    (4) Unbound System's Energy  [=(2)] =   -0.94 kcal/mol
DOCKED: USER    
DOCKED: USER    
DOCKED: USER    NEWDPF move ligand.dum.pdbqt
DOCKED: USER    NEWDPF about 0.108000 0.248000 -0.022000
DOCKED: USER    NEWDPF tran0 36.838698 12.959094 120.544413
DOCKED: USER    NEWDPF quaternion0 0.709119 -0.200727 0.674699 -0.040502
DOCKED: USER    NEWDPF axisangle0 0.709701 -0.200891 0.675253 -175.357493
DOCKED: USER    NEWDPF quat0 0.709701 -0.200891 0.675253 -175.357493
DOCKED: USER    NEWDPF dihe0 122.09 101.80 -152.32 109.34 177.26 -8.59 -9.36 28.54 
DOCKED: USER  keepresnum = 1 
DOCKED: USER  
DOCKED: REMARK  Name = 
DOCKED: REMARK  8 active torsions:
DOCKED: REMARK  status: ('A' for Active; 'I' for Inactive)
DOCKED: REMARK    1  A    between atoms: C_2  and  C_10
DOCKED: REMARK    2  A    between atoms: N_3  and  C_4
DOCKED: REMARK    3  A    between atoms: C_10  and  C_11
DOCKED: REMARK    4  A    between atoms: C_11  and  C_12
DOCKED: REMARK    5  A    between atoms: C_12  and  C_13
DOCKED: REMARK    6  A    between atoms: C_13  and  C_14
DOCKED: REMARK    7  A    between atoms: C_14  and  C_15
DOCKED: REMARK    8  A    between atoms: C_15  and  C_16
DOCKED: REMARK                            x       y       z     vdW  Elec       q    Type
DOCKED: REMARK                         _______ _______ _______ _____ _____    ______ ____
DOCKED: USER                              x       y       z     vdW  Elec       q    Type
DOCKED: USER                           _______ _______ _______ _____ _____    ______ ____
DOCKED: ROOT
DOCKED: ATOM      1  C   UNL     1      37.065  14.440 120.567 -0.28 -0.00    +0.000 C 
DOCKED: ENDROOT
DOCKED: BRANCH   1   3
DOCKED: ATOM      2  O   UNL     1      38.128  15.420 118.668 -0.19 -0.00    +0.000 OA
DOCKED: ATOM      3  C   UNL     1      37.307  14.563 119.092 -0.30 -0.00    +0.000 C 
DOCKED: ATOM      4  N   UNL     1      36.601  13.709 118.177 -0.39 -0.00    +0.000 N 
DOCKED: ATOM      5  H   UNL     1      35.841  13.189 118.525 -0.09 -0.00    +0.000 HD
DOCKED: BRANCH   4   6
DOCKED: ATOM      6  C   UNL     1      36.934  13.562 116.786 -0.34 -0.00    +0.000 A 
DOCKED: ATOM      7  C   UNL     1      38.216  13.114 116.429 -0.37 -0.00    +0.000 A 
DOCKED: ATOM      8  C   UNL     1      38.572  12.987 115.082 -0.47 -0.00    +0.000 A 
DOCKED: ATOM      9  C   UNL     1      37.658  13.321 114.081 -0.31 -0.00    +0.000 A 
DOCKED: ATOM     10  C   UNL     1      36.386  13.788 114.425 -0.29 -0.00    +0.000 A 
DOCKED: ATOM     11  C   UNL     1      36.026  13.917 115.770 -0.27 -0.00    +0.000 A 
DOCKED: ATOM     12  CM  UNL     1      37.299  13.449 115.429 +0.00 -0.00    +0.000 AC
DOCKED: ENDBRANCH   4   6
DOCKED: ENDBRANCH   1   3
DOCKED: BRANCH   1  12
DOCKED: ATOM     13  C   UNL     1      38.264  13.769 121.247 -0.42 -0.00    +0.000 C 
DOCKED: BRANCH  12  13
DOCKED: ATOM     14  C   UNL     1      38.261  13.947 122.775 -0.47 -0.00    +0.000 C 
DOCKED: BRANCH  13  14
DOCKED: ATOM     15  C   UNL     1      36.995  13.389 123.458 -0.57 -0.00    +0.000 C 
DOCKED: BRANCH  14  15
DOCKED: ATOM     16  C   UNL     1      36.992  11.851 123.507 -0.68 -0.00    +0.000 C 
DOCKED: BRANCH  15  16
DOCKED: ATOM     17  C   UNL     1      36.633  11.226 122.153 -0.63 -0.00    +0.000 C 
DOCKED: BRANCH  16  17
DOCKED: ATOM     18  C   UNL     1      36.877   9.745 122.140 -0.63 -0.00    +0.000 C 
DOCKED: ATOM     19  N   UNL     1      36.874   9.000 123.359 -0.60 -0.00    +0.000 N 
DOCKED: ATOM     20  O   UNL     1      37.084   7.664 123.348 -2.60 -0.00    +0.000 OA
DOCKED: ATOM     21  O   UNL     1      37.058   9.153 121.042 -2.73 -0.00    +0.000 OA
DOCKED: ATOM     22  H   UNL     1      36.716   9.463 124.214 -0.49 -0.00    +0.000 HD
DOCKED: ENDBRANCH  16  17
DOCKED: ENDBRANCH  15  16
DOCKED: ENDBRANCH  14  15
DOCKED: ENDBRANCH  13  14
DOCKED: ENDBRANCH  12  13
DOCKED: ENDBRANCH   1  12
DOCKED: TORSDOF 8DOCKED: TER
DOCKED: ENDMDL
________________________________________________________________________________


	BEGINNING GENETIC ALGORITHM DOCKING 28 of 100
Run: 28 Seed: 726177154 421319535 [ Run 28 of 100 GA/GALS ]
Beginning LAMARCKIAN GENETIC ALGORITHM (LGA), with a maximum of 2500000 energy evaluations.

Final-Value: -13.090


	FINAL GENETIC ALGORITHM DOCKED STATE
	_______________________________________________


Detailed state:  trans 36.753 15.398 121.145 quatxyzw 0.628802 -0.340691 0.446178 -0.538016 center 0.108 0.248 -0.022 ntor 8 -180.0000 84.1973 -72.8202 100.4080 -15.9433 -178.0249 140.1662 -106.1917
State:	 36.753  15.398 121.145   0.746 -0.404  0.529 -114.903   -180.00   84.20  -72.82  100.41  -15.94 -178.02  140.17 -106.19

DOCKED: MODEL       28
DOCKED: USER    Run = 28
DOCKED: USER    DPF = ligand_dock.biased.dpf
DOCKED: USER  
DOCKED: USER    Estimated Free Energy of Binding    =   -9.91 kcal/mol  [=(1)+(2)+(3)-(4)]
DOCKED: USER    Estimated Inhibition Constant, Ki   =   54.80 nM (nanomolar)  [Temperature = 298.15 K]
DOCKED: USER    
DOCKED: USER    (1) Final Intermolecular Energy     =  -12.29 kcal/mol
DOCKED: USER        vdW + Hbond + desolv Energy     =  -12.29 kcal/mol
DOCKED: USER        Electrostatic Energy            =   +0.00 kcal/mol
DOCKED: USER    (2) Final Total Internal Energy     =   -0.80 kcal/mol
DOCKED: USER    (3) Torsional Free Energy           =   +2.39 kcal/mol
DOCKED: USER    (4) Unbound System's Energy  [=(2)] =   -0.80 kcal/mol
DOCKED: USER    
DOCKED: USER    
DOCKED: USER    NEWDPF move ligand.dum.pdbqt
DOCKED: USER    NEWDPF about 0.108000 0.248000 -0.022000
DOCKED: USER    NEWDPF tran0 36.753285 15.397519 121.144539
DOCKED: USER    NEWDPF quaternion0 0.628802 -0.340691 0.446178 -0.538016
DOCKED: USER    NEWDPF axisangle0 0.745968 -0.404173 0.529316 -114.902570
DOCKED: USER    NEWDPF quat0 0.745968 -0.404173 0.529316 -114.902570
DOCKED: USER    NEWDPF dihe0 -180.00 84.20 -72.82 100.41 -15.94 -178.02 140.17 -106.19 
DOCKED: USER  keepresnum = 1 
DOCKED: USER  
DOCKED: REMARK  Name = 
DOCKED: REMARK  8 active torsions:
DOCKED: REMARK  status: ('A' for Active; 'I' for Inactive)
DOCKED: REMARK    1  A    between atoms: C_2  and  C_10
DOCKED: REMARK    2  A    between atoms: N_3  and  C_4
DOCKED: REMARK    3  A    between atoms: C_10  and  C_11
DOCKED: REMARK    4  A    between atoms: C_11  and  C_12
DOCKED: REMARK    5  A    between atoms: C_12  and  C_13
DOCKED: REMARK    6  A    between atoms: C_13  and  C_14
DOCKED: REMARK    7  A    between atoms: C_14  and  C_15
DOCKED: REMARK    8  A    between atoms: C_15  and  C_16
DOCKED: REMARK                            x       y       z     vdW  Elec       q    Type
DOCKED: REMARK                         _______ _______ _______ _____ _____    ______ ____
DOCKED: USER                              x       y       z     vdW  Elec       q    Type
DOCKED: USER                           _______ _______ _______ _____ _____    ______ ____
DOCKED: ROOT
DOCKED: ATOM      1  C   UNL     1      37.889  15.923 120.321 -0.19 -0.00    +0.000 C 
DOCKED: ENDROOT
DOCKED: BRANCH   1   3
DOCKED: ATOM      2  O   UNL     1      36.397  16.225 118.484 -0.17 -0.00    +0.000 OA
DOCKED: ATOM      3  C   UNL     1      37.301  15.516 119.003 -0.21 -0.00    +0.000 C 
DOCKED: ATOM      4  N   UNL     1      37.768  14.327 118.346 -0.27 -0.00    +0.000 N 
DOCKED: ATOM      5  H   UNL     1      38.332  13.707 118.863 -0.12 -0.00    +0.000 HD
DOCKED: BRANCH   4   6
DOCKED: ATOM      6  C   UNL     1      37.466  13.983 116.984 -0.33 -0.00    +0.000 A 
DOCKED: ATOM      7  C   UNL     1      38.477  13.448 116.169 -0.39 -0.00    +0.000 A 
DOCKED: ATOM      8  C   UNL     1      38.216  13.128 114.833 -0.44 -0.00    +0.000 A 
DOCKED: ATOM      9  C   UNL     1      36.947  13.354 114.294 -0.32 -0.00    +0.000 A 
DOCKED: ATOM     10  C   UNL     1      35.940  13.906 115.089 -0.26 -0.00    +0.000 A 
DOCKED: ATOM     11  C   UNL     1      36.196  14.228 116.426 -0.30 -0.00    +0.000 A 
DOCKED: ATOM     12  CM  UNL     1      37.207  13.675 115.632 +0.00 -0.00    +0.000 AC
DOCKED: ENDBRANCH   4   6
DOCKED: ENDBRANCH   1   3
DOCKED: BRANCH   1  12
DOCKED: ATOM     13  C   UNL     1      38.388  14.689 121.082 -0.34 -0.00    +0.000 C 
DOCKED: BRANCH  12  13
DOCKED: ATOM     14  C   UNL     1      37.375  13.531 121.075 -0.44 -0.00    +0.000 C 
DOCKED: BRANCH  13  14
DOCKED: ATOM     15  C   UNL     1      36.749  13.252 122.456 -0.52 -0.00    +0.000 C 
DOCKED: BRANCH  14  15
DOCKED: ATOM     16  C   UNL     1      37.052  11.827 122.954 -0.65 -0.00    +0.000 C 
DOCKED: BRANCH  15  16
DOCKED: ATOM     17  C   UNL     1      36.043  10.798 122.425 -0.67 -0.00    +0.000 C 
DOCKED: BRANCH  16  17
DOCKED: ATOM     18  C   UNL     1      36.650   9.431 122.310 -0.71 -0.00    +0.000 C 
DOCKED: ATOM     19  N   UNL     1      36.740   8.580 123.455 -0.64 -0.00    +0.000 N 
DOCKED: ATOM     20  O   UNL     1      37.278   7.343 123.351 -2.32 -0.00    +0.000 OA
DOCKED: ATOM     21  O   UNL     1      37.056   9.021 121.190 -2.71 -0.00    +0.000 OA
DOCKED: ATOM     22  H   UNL     1      36.406   8.896 124.326 -0.31 -0.00    +0.000 HD
DOCKED: ENDBRANCH  16  17
DOCKED: ENDBRANCH  15  16
DOCKED: ENDBRANCH  14  15
DOCKED: ENDBRANCH  13  14
DOCKED: ENDBRANCH  12  13
DOCKED: ENDBRANCH   1  12
DOCKED: TORSDOF 8DOCKED: TER
DOCKED: ENDMDL
________________________________________________________________________________


	BEGINNING GENETIC ALGORITHM DOCKING 29 of 100
Run: 29 Seed: 263636714 2085311481 [ Run 29 of 100 GA/GALS ]
Beginning LAMARCKIAN GENETIC ALGORITHM (LGA), with a maximum of 2500000 energy evaluations.

Final-Value: -13.010


	FINAL GENETIC ALGORITHM DOCKED STATE
	_______________________________________________


Detailed state:  trans 35.482 15.057 122.417 quatxyzw 0.161587 -0.440859 0.639685 0.608552 center 0.108 0.248 -0.022 ntor 8 -178.3186 -174.1405 -180.0000 90.5704 -165.3055 130.0208 127.0606 179.4799
State:	 35.482  15.057 122.417   0.204 -0.556  0.806 105.030   -178.32 -174.14 -180.00   90.57 -165.31  130.02  127.06  179.48

DOCKED: MODEL       29
DOCKED: USER    Run = 29
DOCKED: USER    DPF = ligand_dock.biased.dpf
DOCKED: USER  
DOCKED: USER    Estimated Free Energy of Binding    =   -9.84 kcal/mol  [=(1)+(2)+(3)-(4)]
DOCKED: USER    Estimated Inhibition Constant, Ki   =   61.43 nM (nanomolar)  [Temperature = 298.15 K]
DOCKED: USER    
DOCKED: USER    (1) Final Intermolecular Energy     =  -12.22 kcal/mol
DOCKED: USER        vdW + Hbond + desolv Energy     =  -12.22 kcal/mol
DOCKED: USER        Electrostatic Energy            =   +0.00 kcal/mol
DOCKED: USER    (2) Final Total Internal Energy     =   -0.79 kcal/mol
DOCKED: USER    (3) Torsional Free Energy           =   +2.39 kcal/mol
DOCKED: USER    (4) Unbound System's Energy  [=(2)] =   -0.79 kcal/mol
DOCKED: USER    
DOCKED: USER    
DOCKED: USER    NEWDPF move ligand.dum.pdbqt
DOCKED: USER    NEWDPF about 0.108000 0.248000 -0.022000
DOCKED: USER    NEWDPF tran0 35.482189 15.056714 122.416820
DOCKED: USER    NEWDPF quaternion0 0.161587 -0.440859 0.639685 0.608552
DOCKED: USER    NEWDPF axisangle0 0.203635 -0.555578 0.806142 105.030226
DOCKED: USER    NEWDPF quat0 0.203635 -0.555578 0.806142 105.030226
DOCKED: USER    NEWDPF dihe0 -178.32 -174.14 -180.00 90.57 -165.31 130.02 127.06 179.48 
DOCKED: USER  keepresnum = 1 
DOCKED: USER  
DOCKED: REMARK  Name = 
DOCKED: REMARK  8 active torsions:
DOCKED: REMARK  status: ('A' for Active; 'I' for Inactive)
DOCKED: REMARK    1  A    between atoms: C_2  and  C_10
DOCKED: REMARK    2  A    between atoms: N_3  and  C_4
DOCKED: REMARK    3  A    between atoms: C_10  and  C_11
DOCKED: REMARK    4  A    between atoms: C_11  and  C_12
DOCKED: REMARK    5  A    between atoms: C_12  and  C_13
DOCKED: REMARK    6  A    between atoms: C_13  and  C_14
DOCKED: REMARK    7  A    between atoms: C_14  and  C_15
DOCKED: REMARK    8  A    between atoms: C_15  and  C_16
DOCKED: REMARK                            x       y       z     vdW  Elec       q    Type
DOCKED: REMARK                         _______ _______ _______ _____ _____    ______ ____
DOCKED: USER                              x       y       z     vdW  Elec       q    Type
DOCKED: USER                           _______ _______ _______ _____ _____    ______ ____
DOCKED: ROOT
DOCKED: ATOM      1  C   UNL     1      34.429  15.264 123.462 -0.40 -0.00    +0.000 C 
DOCKED: ENDROOT
DOCKED: BRANCH   1   3
DOCKED: ATOM      2  O   UNL     1      36.060  17.005 123.475 -0.30 -0.00    +0.000 OA
DOCKED: ATOM      3  C   UNL     1      35.041  16.509 124.028 -0.47 -0.00    +0.000 C 
DOCKED: ATOM      4  N   UNL     1      34.467  17.125 125.192 -0.40 -0.00    +0.000 N 
DOCKED: ATOM      5  H   UNL     1      33.796  16.613 125.700 -0.02 -0.00    +0.000 HD
DOCKED: BRANCH   4   6
DOCKED: ATOM      6  C   UNL     1      34.806  18.439 125.664 -0.26 -0.00    +0.000 A 
DOCKED: ATOM      7  C   UNL     1      35.183  19.426 124.739 -0.19 -0.00    +0.000 A 
DOCKED: ATOM      8  C   UNL     1      35.542  20.706 125.175 -0.15 -0.00    +0.000 A 
DOCKED: ATOM      9  C   UNL     1      35.543  21.006 126.539 -0.09 -0.00    +0.000 A 
DOCKED: ATOM     10  C   UNL     1      35.190  20.026 127.470 -0.09 -0.00    +0.000 A 
DOCKED: ATOM     11  C   UNL     1      34.831  18.745 127.039 -0.17 -0.00    +0.000 A 
DOCKED: ATOM     12  CM  UNL     1      35.183  19.725 126.104 -0.01 -0.00    +0.000 AC
DOCKED: ENDBRANCH   4   6
DOCKED: ENDBRANCH   1   3
DOCKED: BRANCH   1  12
DOCKED: ATOM     13  C   UNL     1      35.256  14.037 123.861 -0.42 -0.00    +0.000 C 
DOCKED: BRANCH  12  13
DOCKED: ATOM     14  C   UNL     1      36.714  14.114 123.377 -0.52 -0.00    +0.000 C 
DOCKED: BRANCH  13  14
DOCKED: ATOM     15  C   UNL     1      37.441  12.754 123.392 -0.58 -0.00    +0.000 C 
DOCKED: BRANCH  14  15
DOCKED: ATOM     16  C   UNL     1      37.312  12.012 122.049 -0.49 -0.00    +0.000 C 
DOCKED: BRANCH  15  16
DOCKED: ATOM     17  C   UNL     1      36.159  11.000 122.051 -0.60 -0.00    +0.000 C 
DOCKED: BRANCH  16  17
DOCKED: ATOM     18  C   UNL     1      36.656   9.587 122.123 -0.69 -0.00    +0.000 C 
DOCKED: ATOM     19  N   UNL     1      36.976   8.995 123.384 -0.60 -0.00    +0.000 N 
DOCKED: ATOM     20  O   UNL     1      37.416   7.717 123.451 -2.61 -0.00    +0.000 OA
DOCKED: ATOM     21  O   UNL     1      36.764   8.909 121.066 -2.63 -0.00    +0.000 OA
DOCKED: ATOM     22  H   UNL     1      36.875   9.521 124.210 -0.53 -0.00    +0.000 HD
DOCKED: ENDBRANCH  16  17
DOCKED: ENDBRANCH  15  16
DOCKED: ENDBRANCH  14  15
DOCKED: ENDBRANCH  13  14
DOCKED: ENDBRANCH  12  13
DOCKED: ENDBRANCH   1  12
DOCKED: TORSDOF 8DOCKED: TER
DOCKED: ENDMDL
________________________________________________________________________________


	BEGINNING GENETIC ALGORITHM DOCKING 30 of 100
Run: 30 Seed: 610947338 646924476 [ Run 30 of 100 GA/GALS ]
Beginning LAMARCKIAN GENETIC ALGORITHM (LGA), with a maximum of 2500000 energy evaluations.

Final-Value: -13.992


	FINAL GENETIC ALGORITHM DOCKED STATE
	_______________________________________________


Detailed state:  trans 36.983 15.786 123.870 quatxyzw -0.616038 -0.073213 0.328024 0.712416 center 0.108 0.248 -0.022 ntor 8 179.7876 180.0000 22.0186 74.2080 76.2819 127.3742 164.4895 47.4170
State:	 36.983  15.786 123.870  -0.878 -0.104  0.467 89.136    179.79  180.00   22.02   74.21   76.28  127.37  164.49   47.42

DOCKED: MODEL       30
DOCKED: USER    Run = 30
DOCKED: USER    DPF = ligand_dock.biased.dpf
DOCKED: USER  
DOCKED: USER    Estimated Free Energy of Binding    =  -10.74 kcal/mol  [=(1)+(2)+(3)-(4)]
DOCKED: USER    Estimated Inhibition Constant, Ki   =   13.44 nM (nanomolar)  [Temperature = 298.15 K]
DOCKED: USER    
DOCKED: USER    (1) Final Intermolecular Energy     =  -13.13 kcal/mol
DOCKED: USER        vdW + Hbond + desolv Energy     =  -13.13 kcal/mol
DOCKED: USER        Electrostatic Energy            =   +0.00 kcal/mol
DOCKED: USER    (2) Final Total Internal Energy     =   -0.87 kcal/mol
DOCKED: USER    (3) Torsional Free Energy           =   +2.39 kcal/mol
DOCKED: USER    (4) Unbound System's Energy  [=(2)] =   -0.87 kcal/mol
DOCKED: USER    
DOCKED: USER    
DOCKED: USER    NEWDPF move ligand.dum.pdbqt
DOCKED: USER    NEWDPF about 0.108000 0.248000 -0.022000
DOCKED: USER    NEWDPF tran0 36.982738 15.786450 123.869716
DOCKED: USER    NEWDPF quaternion0 -0.616038 -0.073213 0.328024 0.712416
DOCKED: USER    NEWDPF axisangle0 -0.877851 -0.104329 0.467433 89.136303
DOCKED: USER    NEWDPF quat0 -0.877851 -0.104329 0.467433 89.136303
DOCKED: USER    NEWDPF dihe0 179.79 180.00 22.02 74.21 76.28 127.37 164.49 47.42 
DOCKED: USER  keepresnum = 1 
DOCKED: USER  
DOCKED: REMARK  Name = 
DOCKED: REMARK  8 active torsions:
DOCKED: REMARK  status: ('A' for Active; 'I' for Inactive)
DOCKED: REMARK    1  A    between atoms: C_2  and  C_10
DOCKED: REMARK    2  A    between atoms: N_3  and  C_4
DOCKED: REMARK    3  A    between atoms: C_10  and  C_11
DOCKED: REMARK    4  A    between atoms: C_11  and  C_12
DOCKED: REMARK    5  A    between atoms: C_12  and  C_13
DOCKED: REMARK    6  A    between atoms: C_13  and  C_14
DOCKED: REMARK    7  A    between atoms: C_14  and  C_15
DOCKED: REMARK    8  A    between atoms: C_15  and  C_16
DOCKED: REMARK                            x       y       z     vdW  Elec       q    Type
DOCKED: REMARK                         _______ _______ _______ _____ _____    ______ ____
DOCKED: USER                              x       y       z     vdW  Elec       q    Type
DOCKED: USER                           _______ _______ _______ _____ _____    ______ ____
DOCKED: ROOT
DOCKED: ATOM      1  C   UNL     1      36.018  16.124 122.774 -0.35 -0.00    +0.000 C 
DOCKED: ENDROOT
DOCKED: BRANCH   1   3
DOCKED: ATOM      2  O   UNL     1      33.764  15.796 123.488 -0.55 -0.00    +0.000 OA
DOCKED: ATOM      3  C   UNL     1      34.860  16.387 123.689 -0.49 -0.00    +0.000 C 
DOCKED: ATOM      4  N   UNL     1      35.005  17.309 124.782 -0.35 -0.00    +0.000 N 
DOCKED: ATOM      5  H   UNL     1      35.804  17.884 124.796 -0.01 -0.00    +0.000 HD
DOCKED: BRANCH   4   6
DOCKED: ATOM      6  C   UNL     1      34.061  17.445 125.857 -0.37 -0.00    +0.000 A 
DOCKED: ATOM      7  C   UNL     1      33.543  18.714 126.162 -0.28 -0.00    +0.000 A 
DOCKED: ATOM      8  C   UNL     1      32.642  18.877 127.219 -0.23 -0.00    +0.000 A 
DOCKED: ATOM      9  C   UNL     1      32.263  17.777 127.991 -0.28 -0.00    +0.000 A 
DOCKED: ATOM     10  C   UNL     1      32.788  16.513 127.711 -0.39 -0.00    +0.000 A 
DOCKED: ATOM     11  C   UNL     1      33.690  16.345 126.655 -0.35 -0.00    +0.000 A 
DOCKED: ATOM     12  CM  UNL     1      33.165  17.612 126.933 +0.00 -0.00    +0.000 AC
DOCKED: ENDBRANCH   4   6
DOCKED: ENDBRANCH   1   3
DOCKED: BRANCH   1  12
DOCKED: ATOM     13  C   UNL     1      36.307  14.620 122.703 -0.38 -0.00    +0.000 C 
DOCKED: BRANCH  12  13
DOCKED: ATOM     14  C   UNL     1      35.754  13.846 123.913 -0.52 -0.00    +0.000 C 
DOCKED: BRANCH  13  14
DOCKED: ATOM     15  C   UNL     1      36.324  12.419 124.045 -0.57 -0.00    +0.000 C 
DOCKED: BRANCH  14  15
DOCKED: ATOM     16  C   UNL     1      36.756  11.839 122.686 -0.65 -0.00    +0.000 C 
DOCKED: BRANCH  15  16
DOCKED: ATOM     17  C   UNL     1      35.864  10.674 122.239 -0.61 -0.00    +0.000 C 
DOCKED: BRANCH  16  17
DOCKED: ATOM     18  C   UNL     1      36.608   9.371 122.237 -0.71 -0.00    +0.000 C 
DOCKED: ATOM     19  N   UNL     1      36.775   8.630 123.448 -0.63 -0.00    +0.000 N 
DOCKED: ATOM     20  O   UNL     1      37.437   7.451 123.446 -2.40 -0.00    +0.000 OA
DOCKED: ATOM     21  O   UNL     1      37.062   8.914 121.154 -2.70 -0.00    +0.000 OA
DOCKED: ATOM     22  H   UNL     1      36.404   8.981 124.290 -0.32 -0.00    +0.000 HD
DOCKED: ENDBRANCH  16  17
DOCKED: ENDBRANCH  15  16
DOCKED: ENDBRANCH  14  15
DOCKED: ENDBRANCH  13  14
DOCKED: ENDBRANCH  12  13
DOCKED: ENDBRANCH   1  12
DOCKED: TORSDOF 8DOCKED: TER
DOCKED: ENDMDL
________________________________________________________________________________


	BEGINNING GENETIC ALGORITHM DOCKING 31 of 100
Run: 31 Seed: 223727078 1016553002 [ Run 31 of 100 GA/GALS ]
Beginning LAMARCKIAN GENETIC ALGORITHM (LGA), with a maximum of 2500000 energy evaluations.

Final-Value: -12.104


	FINAL GENETIC ALGORITHM DOCKED STATE
	_______________________________________________


Detailed state:  trans 36.721 15.214 123.345 quatxyzw -0.414221 0.594729 -0.245772 0.643673 center 0.108 0.248 -0.022 ntor 8 -85.5861 -178.3610 -130.4859 53.7556 -36.3577 99.1912 -156.0030 -160.3555
State:	 36.721  15.214 123.345  -0.541  0.777 -0.321 99.867    -85.59 -178.36 -130.49   53.76  -36.36   99.19 -156.00 -160.36

DOCKED: MODEL       31
DOCKED: USER    Run = 31
DOCKED: USER    DPF = ligand_dock.biased.dpf
DOCKED: USER  
DOCKED: USER    Estimated Free Energy of Binding    =   -8.83 kcal/mol  [=(1)+(2)+(3)-(4)]
DOCKED: USER    Estimated Inhibition Constant, Ki   =  338.52 nM (nanomolar)  [Temperature = 298.15 K]
DOCKED: USER    
DOCKED: USER    (1) Final Intermolecular Energy     =  -11.21 kcal/mol
DOCKED: USER        vdW + Hbond + desolv Energy     =  -11.21 kcal/mol
DOCKED: USER        Electrostatic Energy            =   +0.00 kcal/mol
DOCKED: USER    (2) Final Total Internal Energy     =   -0.89 kcal/mol
DOCKED: USER    (3) Torsional Free Energy           =   +2.39 kcal/mol
DOCKED: USER    (4) Unbound System's Energy  [=(2)] =   -0.89 kcal/mol
DOCKED: USER    
DOCKED: USER    
DOCKED: USER    NEWDPF move ligand.dum.pdbqt
DOCKED: USER    NEWDPF about 0.108000 0.248000 -0.022000
DOCKED: USER    NEWDPF tran0 36.720615 15.213879 123.345404
DOCKED: USER    NEWDPF quaternion0 -0.414221 0.594729 -0.245772 0.643673
DOCKED: USER    NEWDPF axisangle0 -0.541253 0.777118 -0.321144 99.867483
DOCKED: USER    NEWDPF quat0 -0.541253 0.777118 -0.321144 99.867483
DOCKED: USER    NEWDPF dihe0 -85.59 -178.36 -130.49 53.76 -36.36 99.19 -156.00 -160.36 
DOCKED: USER  keepresnum = 1 
DOCKED: USER  
DOCKED: REMARK  Name = 
DOCKED: REMARK  8 active torsions:
DOCKED: REMARK  status: ('A' for Active; 'I' for Inactive)
DOCKED: REMARK    1  A    between atoms: C_2  and  C_10
DOCKED: REMARK    2  A    between atoms: N_3  and  C_4
DOCKED: REMARK    3  A    between atoms: C_10  and  C_11
DOCKED: REMARK    4  A    between atoms: C_11  and  C_12
DOCKED: REMARK    5  A    between atoms: C_12  and  C_13
DOCKED: REMARK    6  A    between atoms: C_13  and  C_14
DOCKED: REMARK    7  A    between atoms: C_14  and  C_15
DOCKED: REMARK    8  A    between atoms: C_15  and  C_16
DOCKED: REMARK                            x       y       z     vdW  Elec       q    Type
DOCKED: REMARK                         _______ _______ _______ _____ _____    ______ ____
DOCKED: USER                              x       y       z     vdW  Elec       q    Type
DOCKED: USER                           _______ _______ _______ _____ _____    ______ ____
DOCKED: ROOT
DOCKED: ATOM      1  C   UNL     1      37.984  14.726 122.706 -0.43 -0.00    +0.000 C 
DOCKED: ENDROOT
DOCKED: BRANCH   1   3
DOCKED: ATOM      2  O   UNL     1      36.517  15.580 121.029 -0.23 -0.00    +0.000 OA
DOCKED: ATOM      3  C   UNL     1      37.460  14.789 121.303 -0.33 -0.00    +0.000 C 
DOCKED: ATOM      4  N   UNL     1      38.030  13.949 120.286 -0.33 -0.00    +0.000 N 
DOCKED: ATOM      5  H   UNL     1      38.628  13.220 120.573 -0.08 -0.00    +0.000 HD
DOCKED: BRANCH   4   6
DOCKED: ATOM      6  C   UNL     1      37.788  14.103 118.878 -0.28 -0.00    +0.000 A 
DOCKED: ATOM      7  C   UNL     1      38.503  15.075 118.159 -0.15 -0.00    +0.000 A 
DOCKED: ATOM      8  C   UNL     1      38.267  15.262 116.793 -0.18 -0.00    +0.000 A 
DOCKED: ATOM      9  C   UNL     1      37.305  14.491 116.136 -0.27 -0.00    +0.000 A 
DOCKED: ATOM     10  C   UNL     1      36.573  13.536 116.846 -0.31 -0.00    +0.000 A 
DOCKED: ATOM     11  C   UNL     1      36.805  13.346 118.212 -0.36 -0.00    +0.000 A 
DOCKED: ATOM     12  CM  UNL     1      37.540  14.302 117.504 +0.00 -0.00    +0.000 AC
DOCKED: ENDBRANCH   4   6
DOCKED: ENDBRANCH   1   3
DOCKED: BRANCH   1  12
DOCKED: ATOM     13  C   UNL     1      37.351  13.550 123.457 -0.52 -0.00    +0.000 C 
DOCKED: BRANCH  12  13
DOCKED: ATOM     14  C   UNL     1      36.718  12.509 122.516 -0.59 -0.00    +0.000 C 
DOCKED: BRANCH  13  14
DOCKED: ATOM     15  C   UNL     1      36.381  11.175 123.211 -0.70 -0.00    +0.000 C 
DOCKED: BRANCH  14  15
DOCKED: ATOM     16  C   UNL     1      36.709   9.959 122.326 -0.68 -0.00    +0.000 C 
DOCKED: BRANCH  15  16
DOCKED: ATOM     17  C   UNL     1      35.558   8.946 122.276 -0.67 -0.00    +0.000 C 
DOCKED: BRANCH  16  17
DOCKED: ATOM     18  C   UNL     1      35.903   7.674 122.991 -0.77 -0.00    +0.000 C 
DOCKED: ATOM     19  N   UNL     1      34.937   6.628 123.117 -0.70 -0.00    +0.000 N 
DOCKED: ATOM     20  O   UNL     1      35.250   5.476 123.754 -1.06 -0.00    +0.000 OA
DOCKED: ATOM     21  O   UNL     1      37.063   7.516 123.458 -2.55 -0.00    +0.000 OA
DOCKED: ATOM     22  H   UNL     1      34.037   6.747 122.736 -0.02 -0.00    +0.000 HD
DOCKED: ENDBRANCH  16  17
DOCKED: ENDBRANCH  15  16
DOCKED: ENDBRANCH  14  15
DOCKED: ENDBRANCH  13  14
DOCKED: ENDBRANCH  12  13
DOCKED: ENDBRANCH   1  12
DOCKED: TORSDOF 8DOCKED: TER
DOCKED: ENDMDL
________________________________________________________________________________


	BEGINNING GENETIC ALGORITHM DOCKING 32 of 100
Run: 32 Seed: 1558748516 1001593392 [ Run 32 of 100 GA/GALS ]
Beginning LAMARCKIAN GENETIC ALGORITHM (LGA), with a maximum of 2500000 energy evaluations.

Final-Value: -13.370


	FINAL GENETIC ALGORITHM DOCKED STATE
	_______________________________________________


Detailed state:  trans 38.394 14.287 121.232 quatxyzw 0.190625 0.627184 0.341997 0.673305 center 0.108 0.248 -0.022 ntor 8 130.0398 26.3987 48.5316 -92.5649 38.9627 -119.7973 38.3146 141.7990
State:	 38.394  14.287 121.232   0.258  0.848  0.463 95.355    130.04   26.40   48.53  -92.56   38.96 -119.80   38.31  141.80

DOCKED: MODEL       32
DOCKED: USER    Run = 32
DOCKED: USER    DPF = ligand_dock.biased.dpf
DOCKED: USER  
DOCKED: USER    Estimated Free Energy of Binding    =  -10.04 kcal/mol  [=(1)+(2)+(3)-(4)]
DOCKED: USER    Estimated Inhibition Constant, Ki   =   44.01 nM (nanomolar)  [Temperature = 298.15 K]
DOCKED: USER    
DOCKED: USER    (1) Final Intermolecular Energy     =  -12.42 kcal/mol
DOCKED: USER        vdW + Hbond + desolv Energy     =  -12.42 kcal/mol
DOCKED: USER        Electrostatic Energy            =   +0.00 kcal/mol
DOCKED: USER    (2) Final Total Internal Energy     =   -0.95 kcal/mol
DOCKED: USER    (3) Torsional Free Energy           =   +2.39 kcal/mol
DOCKED: USER    (4) Unbound System's Energy  [=(2)] =   -0.95 kcal/mol
DOCKED: USER    
DOCKED: USER    
DOCKED: USER    NEWDPF move ligand.dum.pdbqt
DOCKED: USER    NEWDPF about 0.108000 0.248000 -0.022000
DOCKED: USER    NEWDPF tran0 38.393749 14.287334 121.232409
DOCKED: USER    NEWDPF quaternion0 0.190625 0.627184 0.341997 0.673305
DOCKED: USER    NEWDPF axisangle0 0.257822 0.848275 0.462555 95.354622
DOCKED: USER    NEWDPF quat0 0.257822 0.848275 0.462555 95.354622
DOCKED: USER    NEWDPF dihe0 130.04 26.40 48.53 -92.56 38.96 -119.80 38.31 141.80 
DOCKED: USER  keepresnum = 1 
DOCKED: USER  
DOCKED: REMARK  Name = 
DOCKED: REMARK  8 active torsions:
DOCKED: REMARK  status: ('A' for Active; 'I' for Inactive)
DOCKED: REMARK    1  A    between atoms: C_2  and  C_10
DOCKED: REMARK    2  A    between atoms: N_3  and  C_4
DOCKED: REMARK    3  A    between atoms: C_10  and  C_11
DOCKED: REMARK    4  A    between atoms: C_11  and  C_12
DOCKED: REMARK    5  A    between atoms: C_12  and  C_13
DOCKED: REMARK    6  A    between atoms: C_13  and  C_14
DOCKED: REMARK    7  A    between atoms: C_14  and  C_15
DOCKED: REMARK    8  A    between atoms: C_15  and  C_16
DOCKED: REMARK                            x       y       z     vdW  Elec       q    Type
DOCKED: REMARK                         _______ _______ _______ _____ _____    ______ ____
DOCKED: USER                              x       y       z     vdW  Elec       q    Type
DOCKED: USER                           _______ _______ _______ _____ _____    ______ ____
DOCKED: ROOT
DOCKED: ATOM      1  C   UNL     1      37.591  13.172 120.637 -0.47 -0.00    +0.000 C 
DOCKED: ENDROOT
DOCKED: BRANCH   1   3
DOCKED: ATOM      2  O   UNL     1      37.421  15.049 119.173 -0.24 -0.00    +0.000 OA
DOCKED: ATOM      3  C   UNL     1      37.480  13.794 119.277 -0.39 -0.00    +0.000 C 
DOCKED: ATOM      4  N   UNL     1      37.441  12.959 118.108 -0.41 -0.00    +0.000 N 
DOCKED: ATOM      5  H   UNL     1      37.303  11.993 118.237 -0.00 -0.00    +0.000 HD
DOCKED: BRANCH   4   6
DOCKED: ATOM      6  C   UNL     1      37.593  13.442 116.763 -0.37 -0.00    +0.000 A 
DOCKED: ATOM      7  C   UNL     1      36.451  13.632 115.968 -0.27 -0.00    +0.000 A 
DOCKED: ATOM      8  C   UNL     1      36.573  14.077 114.648 -0.27 -0.00    +0.000 A 
DOCKED: ATOM      9  C   UNL     1      37.836  14.321 114.105 -0.26 -0.00    +0.000 A 
DOCKED: ATOM     10  C   UNL     1      38.981  14.116 114.880 -0.31 -0.00    +0.000 A 
DOCKED: ATOM     11  C   UNL     1      38.863  13.670 116.201 -0.28 -0.00    +0.000 A 
DOCKED: ATOM     12  CM  UNL     1      37.716  13.876 115.427 +0.00 -0.00    +0.000 AC
DOCKED: ENDBRANCH   4   6
DOCKED: ENDBRANCH   1   3
DOCKED: BRANCH   1  12
DOCKED: ATOM     13  C   UNL     1      36.697  13.916 121.635 -0.21 -0.00    +0.000 C 
DOCKED: BRANCH  12  13
DOCKED: ATOM     14  C   UNL     1      37.273  13.926 123.062 -0.53 -0.00    +0.000 C 
DOCKED: BRANCH  13  14
DOCKED: ATOM     15  C   UNL     1      37.634  12.522 123.590 -0.36 -0.00    +0.000 C 
DOCKED: BRANCH  14  15
DOCKED: ATOM     16  C   UNL     1      36.396  11.620 123.736 -0.70 -0.00    +0.000 C 
DOCKED: BRANCH  15  16
DOCKED: ATOM     17  C   UNL     1      35.975  10.988 122.403 -0.66 -0.00    +0.000 C 
DOCKED: BRANCH  16  17
DOCKED: ATOM     18  C   UNL     1      36.570   9.623 122.220 -0.69 -0.00    +0.000 C 
DOCKED: ATOM     19  N   UNL     1      36.803   8.778 123.348 -0.63 -0.00    +0.000 N 
DOCKED: ATOM     20  O   UNL     1      37.331   7.543 123.184 -2.33 -0.00    +0.000 OA
DOCKED: ATOM     21  O   UNL     1      36.838   9.210 121.060 -2.66 -0.00    +0.000 OA
DOCKED: ATOM     22  H   UNL     1      36.577   9.096 124.252 -0.40 -0.00    +0.000 HD
DOCKED: ENDBRANCH  16  17
DOCKED: ENDBRANCH  15  16
DOCKED: ENDBRANCH  14  15
DOCKED: ENDBRANCH  13  14
DOCKED: ENDBRANCH  12  13
DOCKED: ENDBRANCH   1  12
DOCKED: TORSDOF 8DOCKED: TER
DOCKED: ENDMDL
________________________________________________________________________________


	BEGINNING GENETIC ALGORITHM DOCKING 33 of 100
Run: 33 Seed: 1760594874 148962784 [ Run 33 of 100 GA/GALS ]
Beginning LAMARCKIAN GENETIC ALGORITHM (LGA), with a maximum of 2500000 energy evaluations.

Final-Value: -13.088


	FINAL GENETIC ALGORITHM DOCKED STATE
	_______________________________________________


Detailed state:  trans 38.581 15.299 121.205 quatxyzw -0.254019 0.607801 -0.752343 0.005698 center 0.108 0.248 -0.022 ntor 8 148.7742 106.1907 -91.3213 2.9962 -179.9638 49.2354 10.6355 -140.4375
State:	 38.581  15.299 121.205  -0.254  0.608 -0.752 179.347    148.77  106.19  -91.32    3.00 -179.96   49.24   10.64 -140.44

DOCKED: MODEL       33
DOCKED: USER    Run = 33
DOCKED: USER    DPF = ligand_dock.biased.dpf
DOCKED: USER  
DOCKED: USER    Estimated Free Energy of Binding    =   -9.99 kcal/mol  [=(1)+(2)+(3)-(4)]
DOCKED: USER    Estimated Inhibition Constant, Ki   =   47.46 nM (nanomolar)  [Temperature = 298.15 K]
DOCKED: USER    
DOCKED: USER    (1) Final Intermolecular Energy     =  -12.38 kcal/mol
DOCKED: USER        vdW + Hbond + desolv Energy     =  -12.38 kcal/mol
DOCKED: USER        Electrostatic Energy            =   +0.00 kcal/mol
DOCKED: USER    (2) Final Total Internal Energy     =   -0.71 kcal/mol
DOCKED: USER    (3) Torsional Free Energy           =   +2.39 kcal/mol
DOCKED: USER    (4) Unbound System's Energy  [=(2)] =   -0.71 kcal/mol
DOCKED: USER    
DOCKED: USER    
DOCKED: USER    NEWDPF move ligand.dum.pdbqt
DOCKED: USER    NEWDPF about 0.108000 0.248000 -0.022000
DOCKED: USER    NEWDPF tran0 38.581147 15.298999 121.204751
DOCKED: USER    NEWDPF quaternion0 -0.254019 0.607801 -0.752343 0.005698
DOCKED: USER    NEWDPF axisangle0 -0.254023 0.607811 -0.752355 179.347099
DOCKED: USER    NEWDPF quat0 -0.254023 0.607811 -0.752355 179.347099
DOCKED: USER    NEWDPF dihe0 148.77 106.19 -91.32 3.00 -179.96 49.24 10.64 -140.44 
DOCKED: USER  keepresnum = 1 
DOCKED: USER  
DOCKED: REMARK  Name = 
DOCKED: REMARK  8 active torsions:
DOCKED: REMARK  status: ('A' for Active; 'I' for Inactive)
DOCKED: REMARK    1  A    between atoms: C_2  and  C_10
DOCKED: REMARK    2  A    between atoms: N_3  and  C_4
DOCKED: REMARK    3  A    between atoms: C_10  and  C_11
DOCKED: REMARK    4  A    between atoms: C_11  and  C_12
DOCKED: REMARK    5  A    between atoms: C_12  and  C_13
DOCKED: REMARK    6  A    between atoms: C_13  and  C_14
DOCKED: REMARK    7  A    between atoms: C_14  and  C_15
DOCKED: REMARK    8  A    between atoms: C_15  and  C_16
DOCKED: REMARK                            x       y       z     vdW  Elec       q    Type
DOCKED: REMARK                         _______ _______ _______ _____ _____    ______ ____
DOCKED: USER                              x       y       z     vdW  Elec       q    Type
DOCKED: USER                           _______ _______ _______ _____ _____    ______ ____
DOCKED: ROOT
DOCKED: ATOM      1  C   UNL     1      39.210  16.022 122.356 -0.29 -0.00    +0.000 C 
DOCKED: ENDROOT
DOCKED: BRANCH   1   3
DOCKED: ATOM      2  O   UNL     1      40.650  16.495 120.513 -0.17 -0.00    +0.000 OA
DOCKED: ATOM      3  C   UNL     1      40.562  16.141 121.720 -0.28 -0.00    +0.000 C 
DOCKED: ATOM      4  N   UNL     1      41.743  15.849 122.485 -0.42 -0.00    +0.000 N 
DOCKED: ATOM      5  H   UNL     1      41.629  15.401 123.354 -0.05 +0.00    +0.000 HD
DOCKED: BRANCH   4   6
DOCKED: ATOM      6  C   UNL     1      43.080  16.170 122.066 -0.33 -0.00    +0.000 A 
DOCKED: ATOM      7  C   UNL     1      43.863  17.025 122.858 -0.30 -0.00    +0.000 A 
DOCKED: ATOM      8  C   UNL     1      45.158  17.373 122.459 -0.28 -0.00    +0.000 A 
DOCKED: ATOM      9  C   UNL     1      45.676  16.882 121.259 -0.21 +0.00    +0.000 A 
DOCKED: ATOM     10  C   UNL     1      44.898  16.047 120.452 -0.24 +0.00    +0.000 A 
DOCKED: ATOM     11  C   UNL     1      43.603  15.697 120.846 -0.23 -0.00    +0.000 A 
DOCKED: ATOM     12  CM  UNL     1      44.379  16.533 121.657 +0.00 -0.00    +0.000 AC
DOCKED: ENDBRANCH   4   6
DOCKED: ENDBRANCH   1   3
DOCKED: BRANCH   1  12
DOCKED: ATOM     13  C   UNL     1      38.954  14.575 122.791 -0.39 -0.00    +0.000 C 
DOCKED: BRANCH  12  13
DOCKED: ATOM     14  C   UNL     1      37.537  14.361 123.352 -0.43 -0.00    +0.000 C 
DOCKED: BRANCH  13  14
DOCKED: ATOM     15  C   UNL     1      36.680  13.395 122.508 -0.51 -0.00    +0.000 C 
DOCKED: BRANCH  14  15
DOCKED: ATOM     16  C   UNL     1      37.067  11.923 122.738 -0.63 -0.00    +0.000 C 
DOCKED: BRANCH  15  16
DOCKED: ATOM     17  C   UNL     1      36.166  10.955 121.960 -0.58 -0.00    +0.000 C 
DOCKED: BRANCH  16  17
DOCKED: ATOM     18  C   UNL     1      36.642   9.537 122.073 -0.69 -0.00    +0.000 C 
DOCKED: ATOM     19  N   UNL     1      36.915   8.965 123.353 -0.61 -0.00    +0.000 N 
DOCKED: ATOM     20  O   UNL     1      37.335   7.683 123.457 -2.61 -0.00    +0.000 OA
DOCKED: ATOM     21  O   UNL     1      36.773   8.839 121.032 -2.63 -0.00    +0.000 OA
DOCKED: ATOM     22  H   UNL     1      36.795   9.507 124.166 -0.51 -0.00    +0.000 HD
DOCKED: ENDBRANCH  16  17
DOCKED: ENDBRANCH  15  16
DOCKED: ENDBRANCH  14  15
DOCKED: ENDBRANCH  13  14
DOCKED: ENDBRANCH  12  13
DOCKED: ENDBRANCH   1  12
DOCKED: TORSDOF 8DOCKED: TER
DOCKED: ENDMDL
________________________________________________________________________________


	BEGINNING GENETIC ALGORITHM DOCKING 34 of 100
Run: 34 Seed: 372911703 74325836 [ Run 34 of 100 GA/GALS ]
Beginning LAMARCKIAN GENETIC ALGORITHM (LGA), with a maximum of 2500000 energy evaluations.

Final-Value: -12.568


	FINAL GENETIC ALGORITHM DOCKED STATE
	_______________________________________________


Detailed state:  trans 37.611 12.687 117.388 quatxyzw -0.149703 -0.026851 -0.901791 -0.404526 center 0.108 0.248 -0.022 ntor 8 -93.1003 145.6676 17.6167 25.1288 115.9791 134.6196 178.9980 19.2560
State:	 37.611  12.687 117.388  -0.164 -0.029 -0.986 -132.277    -93.10  145.67   17.62   25.13  115.98  134.62  179.00   19.26

DOCKED: MODEL       34
DOCKED: USER    Run = 34
DOCKED: USER    DPF = ligand_dock.biased.dpf
DOCKED: USER  
DOCKED: USER    Estimated Free Energy of Binding    =   -9.23 kcal/mol  [=(1)+(2)+(3)-(4)]
DOCKED: USER    Estimated Inhibition Constant, Ki   =  171.94 nM (nanomolar)  [Temperature = 298.15 K]
DOCKED: USER    
DOCKED: USER    (1) Final Intermolecular Energy     =  -11.61 kcal/mol
DOCKED: USER        vdW + Hbond + desolv Energy     =  -11.61 kcal/mol
DOCKED: USER        Electrostatic Energy            =   +0.00 kcal/mol
DOCKED: USER    (2) Final Total Internal Energy     =   -0.95 kcal/mol
DOCKED: USER    (3) Torsional Free Energy           =   +2.39 kcal/mol
DOCKED: USER    (4) Unbound System's Energy  [=(2)] =   -0.95 kcal/mol
DOCKED: USER    
DOCKED: USER    
DOCKED: USER    NEWDPF move ligand.dum.pdbqt
DOCKED: USER    NEWDPF about 0.108000 0.248000 -0.022000
DOCKED: USER    NEWDPF tran0 37.611448 12.687261 117.387892
DOCKED: USER    NEWDPF quaternion0 -0.149703 -0.026851 -0.901791 -0.404526
DOCKED: USER    NEWDPF axisangle0 -0.163694 -0.029361 -0.986074 -132.277166
DOCKED: USER    NEWDPF quat0 -0.163694 -0.029361 -0.986074 -132.277166
DOCKED: USER    NEWDPF dihe0 -93.10 145.67 17.62 25.13 115.98 134.62 179.00 19.26 
DOCKED: USER  keepresnum = 1 
DOCKED: USER  
DOCKED: REMARK  Name = 
DOCKED: REMARK  8 active torsions:
DOCKED: REMARK  status: ('A' for Active; 'I' for Inactive)
DOCKED: REMARK    1  A    between atoms: C_2  and  C_10
DOCKED: REMARK    2  A    between atoms: N_3  and  C_4
DOCKED: REMARK    3  A    between atoms: C_10  and  C_11
DOCKED: REMARK    4  A    between atoms: C_11  and  C_12
DOCKED: REMARK    5  A    between atoms: C_12  and  C_13
DOCKED: REMARK    6  A    between atoms: C_13  and  C_14
DOCKED: REMARK    7  A    between atoms: C_14  and  C_15
DOCKED: REMARK    8  A    between atoms: C_15  and  C_16
DOCKED: REMARK                            x       y       z     vdW  Elec       q    Type
DOCKED: REMARK                         _______ _______ _______ _____ _____    ______ ____
DOCKED: USER                              x       y       z     vdW  Elec       q    Type
DOCKED: USER                           _______ _______ _______ _____ _____    ______ ____
DOCKED: ROOT
DOCKED: ATOM      1  C   UNL     1      36.681  13.835 117.138 -0.39 -0.00    +0.000 C 
DOCKED: ENDROOT
DOCKED: BRANCH   1   3
DOCKED: ATOM      2  O   UNL     1      37.504  16.073 117.234 -0.12 -0.00    +0.000 OA
DOCKED: ATOM      3  C   UNL     1      37.765  14.862 117.002 -0.25 -0.00    +0.000 C 
DOCKED: ATOM      4  N   UNL     1      39.088  14.460 116.608 -0.25 -0.00    +0.000 N 
DOCKED: ATOM      5  H   UNL     1      39.206  13.547 116.258 -0.11 -0.00    +0.000 HD
DOCKED: BRANCH   4   6
DOCKED: ATOM      6  C   UNL     1      40.249  15.303 116.692 -0.21 -0.00    +0.000 A 
DOCKED: ATOM      7  C   UNL     1      41.097  15.419 115.579 -0.26 -0.00    +0.000 A 
DOCKED: ATOM      8  C   UNL     1      42.246  16.213 115.643 -0.21 -0.00    +0.000 A 
DOCKED: ATOM      9  C   UNL     1      42.567  16.886 116.824 -0.14 -0.00    +0.000 A 
DOCKED: ATOM     10  C   UNL     1      41.741  16.762 117.945 -0.12 -0.00    +0.000 A 
DOCKED: ATOM     11  C   UNL     1      40.591  15.968 117.885 -0.14 -0.00    +0.000 A 
DOCKED: ATOM     12  CM  UNL     1      41.415  16.092 116.761 +0.00 -0.00    +0.000 AC
DOCKED: ENDBRANCH   4   6
DOCKED: ENDBRANCH   1   3
DOCKED: BRANCH   1  12
DOCKED: ATOM     13  C   UNL     1      36.529  13.414 118.604 -0.39 -0.00    +0.000 C 
DOCKED: BRANCH  12  13
DOCKED: ATOM     14  C   UNL     1      37.619  14.007 119.513 -0.36 -0.00    +0.000 C 
DOCKED: BRANCH  13  14
DOCKED: ATOM     15  C   UNL     1      37.821  13.222 120.826 -0.46 -0.00    +0.000 C 
DOCKED: BRANCH  14  15
DOCKED: ATOM     16  C   UNL     1      37.115  11.855 120.799 -0.51 -0.00    +0.000 C 
DOCKED: BRANCH  15  16
DOCKED: ATOM     17  C   UNL     1      36.907  11.279 122.205 -0.59 -0.00    +0.000 C 
DOCKED: BRANCH  16  17
DOCKED: ATOM     18  C   UNL     1      36.999   9.781 122.214 -0.60 -0.00    +0.000 C 
DOCKED: ATOM     19  N   UNL     1      37.062   9.067 123.450 -0.58 -0.00    +0.000 N 
DOCKED: ATOM     20  O   UNL     1      37.135   7.716 123.459 -2.68 -0.00    +0.000 OA
DOCKED: ATOM     21  O   UNL     1      36.991   9.150 121.123 -2.71 -0.00    +0.000 OA
DOCKED: ATOM     22  H   UNL     1      37.051   9.561 124.301 -0.54 -0.00    +0.000 HD
DOCKED: ENDBRANCH  16  17
DOCKED: ENDBRANCH  15  16
DOCKED: ENDBRANCH  14  15
DOCKED: ENDBRANCH  13  14
DOCKED: ENDBRANCH  12  13
DOCKED: ENDBRANCH   1  12
DOCKED: TORSDOF 8DOCKED: TER
DOCKED: ENDMDL
________________________________________________________________________________


	BEGINNING GENETIC ALGORITHM DOCKING 35 of 100
Run: 35 Seed: 439584088 1996527846 [ Run 35 of 100 GA/GALS ]
Beginning LAMARCKIAN GENETIC ALGORITHM (LGA), with a maximum of 2500000 energy evaluations.

Final-Value: -13.865


	FINAL GENETIC ALGORITHM DOCKED STATE
	_______________________________________________


Detailed state:  trans 37.791 15.409 123.209 quatxyzw -0.541436 -0.117601 0.562169 0.613990 center 0.108 0.248 -0.022 ntor 8 139.0118 -172.4362 -147.9728 68.0606 131.7585 128.4533 166.9414 -126.8270
State:	 37.791  15.409 123.209  -0.686 -0.149  0.712 104.243    139.01 -172.44 -147.97   68.06  131.76  128.45  166.94 -126.83

DOCKED: MODEL       35
DOCKED: USER    Run = 35
DOCKED: USER    DPF = ligand_dock.biased.dpf
DOCKED: USER  
DOCKED: USER    Estimated Free Energy of Binding    =  -10.68 kcal/mol  [=(1)+(2)+(3)-(4)]
DOCKED: USER    Estimated Inhibition Constant, Ki   =   14.84 nM (nanomolar)  [Temperature = 298.15 K]
DOCKED: USER    
DOCKED: USER    (1) Final Intermolecular Energy     =  -13.07 kcal/mol
DOCKED: USER        vdW + Hbond + desolv Energy     =  -13.07 kcal/mol
DOCKED: USER        Electrostatic Energy            =   +0.00 kcal/mol
DOCKED: USER    (2) Final Total Internal Energy     =   -0.80 kcal/mol
DOCKED: USER    (3) Torsional Free Energy           =   +2.39 kcal/mol
DOCKED: USER    (4) Unbound System's Energy  [=(2)] =   -0.80 kcal/mol
DOCKED: USER    
DOCKED: USER    
DOCKED: USER    NEWDPF move ligand.dum.pdbqt
DOCKED: USER    NEWDPF about 0.108000 0.248000 -0.022000
DOCKED: USER    NEWDPF tran0 37.791169 15.409222 123.208855
DOCKED: USER    NEWDPF quaternion0 -0.541436 -0.117601 0.562169 0.613990
DOCKED: USER    NEWDPF axisangle0 -0.685958 -0.148991 0.712224 104.242885
DOCKED: USER    NEWDPF quat0 -0.685958 -0.148991 0.712224 104.242885
DOCKED: USER    NEWDPF dihe0 139.01 -172.44 -147.97 68.06 131.76 128.45 166.94 -126.83 
DOCKED: USER  keepresnum = 1 
DOCKED: USER  
DOCKED: REMARK  Name = 
DOCKED: REMARK  8 active torsions:
DOCKED: REMARK  status: ('A' for Active; 'I' for Inactive)
DOCKED: REMARK    1  A    between atoms: C_2  and  C_10
DOCKED: REMARK    2  A    between atoms: N_3  and  C_4
DOCKED: REMARK    3  A    between atoms: C_10  and  C_11
DOCKED: REMARK    4  A    between atoms: C_11  and  C_12
DOCKED: REMARK    5  A    between atoms: C_12  and  C_13
DOCKED: REMARK    6  A    between atoms: C_13  and  C_14
DOCKED: REMARK    7  A    between atoms: C_14  and  C_15
DOCKED: REMARK    8  A    between atoms: C_15  and  C_16
DOCKED: REMARK                            x       y       z     vdW  Elec       q    Type
DOCKED: REMARK                         _______ _______ _______ _____ _____    ______ ____
DOCKED: USER                              x       y       z     vdW  Elec       q    Type
DOCKED: USER                           _______ _______ _______ _____ _____    ______ ____
DOCKED: ROOT
DOCKED: ATOM      1  C   UNL     1      36.635  16.121 122.575 -0.31 -0.00    +0.000 C 
DOCKED: ENDROOT
DOCKED: BRANCH   1   3
DOCKED: ATOM      2  O   UNL     1      36.819  17.403 124.580 -0.27 -0.00    +0.000 OA
DOCKED: ATOM      3  C   UNL     1      36.090  16.667 123.861 -0.35 -0.00    +0.000 C 
DOCKED: ATOM      4  N   UNL     1      34.749  16.347 124.264 -0.46 -0.00    +0.000 N 
DOCKED: ATOM      5  H   UNL     1      34.282  15.628 123.779 -0.04 -0.00    +0.000 HD
DOCKED: BRANCH   4   6
DOCKED: ATOM      6  C   UNL     1      34.044  17.007 125.328 -0.39 -0.00    +0.000 A 
DOCKED: ATOM      7  C   UNL     1      33.756  18.377 125.216 -0.31 -0.00    +0.000 A 
DOCKED: ATOM      8  C   UNL     1      33.093  19.048 126.249 -0.26 -0.00    +0.000 A 
DOCKED: ATOM      9  C   UNL     1      32.725  18.362 127.408 -0.23 -0.00    +0.000 A 
DOCKED: ATOM     10  C   UNL     1      33.025  17.003 127.539 -0.38 -0.00    +0.000 A 
DOCKED: ATOM     11  C   UNL     1      33.689  16.328 126.510 -0.35 -0.00    +0.000 A 
DOCKED: ATOM     12  CM  UNL     1      33.389  17.688 126.375 -0.03 -0.00    +0.000 AC
DOCKED: ENDBRANCH   4   6
DOCKED: ENDBRANCH   1   3
DOCKED: BRANCH   1  12
DOCKED: ATOM     13  C   UNL     1      36.370  14.614 122.484 -0.29 -0.00    +0.000 C 
DOCKED: BRANCH  12  13
DOCKED: ATOM     14  C   UNL     1      36.069  13.975 123.851 -0.55 -0.00    +0.000 C 
DOCKED: BRANCH  13  14
DOCKED: ATOM     15  C   UNL     1      36.172  12.436 123.848 -0.64 -0.00    +0.000 C 
DOCKED: BRANCH  14  15
DOCKED: ATOM     16  C   UNL     1      37.172  11.924 122.797 -0.58 -0.00    +0.000 C 
DOCKED: BRANCH  15  16
DOCKED: ATOM     17  C   UNL     1      36.502  11.040 121.737 -0.50 -0.00    +0.000 C 
DOCKED: BRANCH  16  17
DOCKED: ATOM     18  C   UNL     1      36.809   9.586 121.947 -0.65 -0.00    +0.000 C 
DOCKED: ATOM     19  N   UNL     1      36.811   9.030 123.263 -0.62 -0.00    +0.000 N 
DOCKED: ATOM     20  O   UNL     1      37.079   7.717 123.453 -2.70 -0.00    +0.000 OA
DOCKED: ATOM     21  O   UNL     1      37.039   8.848 120.952 -2.70 -0.00    +0.000 OA
DOCKED: ATOM     22  H   UNL     1      36.615   9.605 124.037 -0.44 -0.00    +0.000 HD
DOCKED: ENDBRANCH  16  17
DOCKED: ENDBRANCH  15  16
DOCKED: ENDBRANCH  14  15
DOCKED: ENDBRANCH  13  14
DOCKED: ENDBRANCH  12  13
DOCKED: ENDBRANCH   1  12
DOCKED: TORSDOF 8DOCKED: TER
DOCKED: ENDMDL
________________________________________________________________________________


	BEGINNING GENETIC ALGORITHM DOCKING 36 of 100
Run: 36 Seed: 1483482556 1224604319 [ Run 36 of 100 GA/GALS ]
Beginning LAMARCKIAN GENETIC ALGORITHM (LGA), with a maximum of 2500000 energy evaluations.

Final-Value: -12.904


	FINAL GENETIC ALGORITHM DOCKED STATE
	_______________________________________________


Detailed state:  trans 38.742 13.825 121.506 quatxyzw -0.019030 0.174459 -0.982412 -0.063792 center 0.108 0.248 -0.022 ntor 8 -12.4590 160.3322 -142.8289 173.0624 -51.9069 -174.5245 91.2681 151.6170
State:	 38.742  13.825 121.506  -0.019  0.175 -0.984 -172.685    -12.46  160.33 -142.83  173.06  -51.91 -174.52   91.27  151.62

DOCKED: MODEL       36
DOCKED: USER    Run = 36
DOCKED: USER    DPF = ligand_dock.biased.dpf
DOCKED: USER  
DOCKED: USER    Estimated Free Energy of Binding    =   -9.73 kcal/mol  [=(1)+(2)+(3)-(4)]
DOCKED: USER    Estimated Inhibition Constant, Ki   =   74.19 nM (nanomolar)  [Temperature = 298.15 K]
DOCKED: USER    
DOCKED: USER    (1) Final Intermolecular Energy     =  -12.11 kcal/mol
DOCKED: USER        vdW + Hbond + desolv Energy     =  -12.11 kcal/mol
DOCKED: USER        Electrostatic Energy            =   +0.00 kcal/mol
DOCKED: USER    (2) Final Total Internal Energy     =   -0.79 kcal/mol
DOCKED: USER    (3) Torsional Free Energy           =   +2.39 kcal/mol
DOCKED: USER    (4) Unbound System's Energy  [=(2)] =   -0.79 kcal/mol
DOCKED: USER    
DOCKED: USER    
DOCKED: USER    NEWDPF move ligand.dum.pdbqt
DOCKED: USER    NEWDPF about 0.108000 0.248000 -0.022000
DOCKED: USER    NEWDPF tran0 38.742496 13.825130 121.506464
DOCKED: USER    NEWDPF quaternion0 -0.019030 0.174459 -0.982412 -0.063792
DOCKED: USER    NEWDPF axisangle0 -0.019069 0.174815 -0.984417 -172.685026
DOCKED: USER    NEWDPF quat0 -0.019069 0.174815 -0.984417 -172.685026
DOCKED: USER    NEWDPF dihe0 -12.46 160.33 -142.83 173.06 -51.91 -174.52 91.27 151.62 
DOCKED: USER  keepresnum = 1 
DOCKED: USER  
DOCKED: REMARK  Name = 
DOCKED: REMARK  8 active torsions:
DOCKED: REMARK  status: ('A' for Active; 'I' for Inactive)
DOCKED: REMARK    1  A    between atoms: C_2  and  C_10
DOCKED: REMARK    2  A    between atoms: N_3  and  C_4
DOCKED: REMARK    3  A    between atoms: C_10  and  C_11
DOCKED: REMARK    4  A    between atoms: C_11  and  C_12
DOCKED: REMARK    5  A    between atoms: C_12  and  C_13
DOCKED: REMARK    6  A    between atoms: C_13  and  C_14
DOCKED: REMARK    7  A    between atoms: C_14  and  C_15
DOCKED: REMARK    8  A    between atoms: C_15  and  C_16
DOCKED: REMARK                            x       y       z     vdW  Elec       q    Type
DOCKED: REMARK                         _______ _______ _______ _____ _____    ______ ____
DOCKED: USER                              x       y       z     vdW  Elec       q    Type
DOCKED: USER                           _______ _______ _______ _____ _____    ______ ____
DOCKED: ROOT
DOCKED: ATOM      1  C   UNL     1      38.870  15.299 121.740 -0.32 -0.00    +0.000 C 
DOCKED: ENDROOT
DOCKED: BRANCH   1   3
DOCKED: ATOM      2  O   UNL     1      40.901  14.202 122.345 -1.09 +0.00    +0.000 OA
DOCKED: ATOM      3  C   UNL     1      40.351  15.274 121.971 -0.40 -0.00    +0.000 C 
DOCKED: ATOM      4  N   UNL     1      41.128  16.465 121.769 -0.23 -0.00    +0.000 N 
DOCKED: ATOM      5  H   UNL     1      40.646  17.317 121.661 +0.01 -0.00    +0.000 HD
DOCKED: BRANCH   4   6
DOCKED: ATOM      6  C   UNL     1      42.564  16.495 121.712 -0.28 -0.00    +0.000 A 
DOCKED: ATOM      7  C   UNL     1      43.222  15.898 120.624 -0.23 -0.00    +0.000 A 
DOCKED: ATOM      8  C   UNL     1      44.619  15.891 120.558 -0.24 +0.00    +0.000 A 
DOCKED: ATOM      9  C   UNL     1      45.371  16.467 121.585 -0.22 +0.00    +0.000 A 
DOCKED: ATOM     10  C   UNL     1      44.728  17.045 122.682 -0.30 -0.00    +0.000 A 
DOCKED: ATOM     11  C   UNL     1      43.331  17.053 122.753 -0.34 -0.00    +0.000 A 
DOCKED: ATOM     12  CM  UNL     1      43.973  16.474 121.653 +0.00 -0.00    +0.000 AC
DOCKED: ENDBRANCH   4   6
DOCKED: ENDBRANCH   1   3
DOCKED: BRANCH   1  12
DOCKED: ATOM     13  C   UNL     1      38.134  14.693 122.940 -0.42 -0.00    +0.000 C 
DOCKED: BRANCH  12  13
DOCKED: ATOM     14  C   UNL     1      37.814  13.199 122.754 -0.50 -0.00    +0.000 C 
DOCKED: BRANCH  13  14
DOCKED: ATOM     15  C   UNL     1      36.319  12.917 122.501 -0.48 -0.00    +0.000 C 
DOCKED: BRANCH  14  15
DOCKED: ATOM     16  C   UNL     1      35.920  11.489 122.915 -0.67 -0.00    +0.000 C 
DOCKED: BRANCH  15  16
DOCKED: ATOM     17  C   UNL     1      37.140  10.594 123.172 -0.49 -0.00    +0.000 C 
DOCKED: BRANCH  16  17
DOCKED: ATOM     18  C   UNL     1      37.017   9.270 122.479 -0.65 -0.00    +0.000 C 
DOCKED: ATOM     19  N   UNL     1      36.813   8.073 123.233 -0.74 -0.00    +0.000 N 
DOCKED: ATOM     20  O   UNL     1      36.692   6.880 122.608 -1.49 -0.00    +0.000 OA
DOCKED: ATOM     21  O   UNL     1      37.064   9.218 121.220 -2.72 -0.00    +0.000 OA
DOCKED: ATOM     22  H   UNL     1      36.760   8.119 124.215 -0.33 -0.00    +0.000 HD
DOCKED: ENDBRANCH  16  17
DOCKED: ENDBRANCH  15  16
DOCKED: ENDBRANCH  14  15
DOCKED: ENDBRANCH  13  14
DOCKED: ENDBRANCH  12  13
DOCKED: ENDBRANCH   1  12
DOCKED: TORSDOF 8DOCKED: TER
DOCKED: ENDMDL
________________________________________________________________________________


	BEGINNING GENETIC ALGORITHM DOCKING 37 of 100
Run: 37 Seed: 283735050 125159881 [ Run 37 of 100 GA/GALS ]
Beginning LAMARCKIAN GENETIC ALGORITHM (LGA), with a maximum of 2500000 energy evaluations.

Final-Value: -11.911


	FINAL GENETIC ALGORITHM DOCKED STATE
	_______________________________________________


Detailed state:  trans 37.531 13.775 122.266 quatxyzw -0.863632 0.324817 0.337238 0.186824 center 0.108 0.248 -0.022 ntor 8 -6.1363 -121.0822 58.6427 69.3083 34.8019 39.9564 47.8282 71.6729
State:	 37.531  13.775 122.266  -0.879  0.331  0.343 158.465     -6.14 -121.08   58.64   69.31   34.80   39.96   47.83   71.67

DOCKED: MODEL       37
DOCKED: USER    Run = 37
DOCKED: USER    DPF = ligand_dock.biased.dpf
DOCKED: USER  
DOCKED: USER    Estimated Free Energy of Binding    =   -8.59 kcal/mol  [=(1)+(2)+(3)-(4)]
DOCKED: USER    Estimated Inhibition Constant, Ki   =  507.98 nM (nanomolar)  [Temperature = 298.15 K]
DOCKED: USER    
DOCKED: USER    (1) Final Intermolecular Energy     =  -10.97 kcal/mol
DOCKED: USER        vdW + Hbond + desolv Energy     =  -10.97 kcal/mol
DOCKED: USER        Electrostatic Energy            =   +0.00 kcal/mol
DOCKED: USER    (2) Final Total Internal Energy     =   -0.94 kcal/mol
DOCKED: USER    (3) Torsional Free Energy           =   +2.39 kcal/mol
DOCKED: USER    (4) Unbound System's Energy  [=(2)] =   -0.94 kcal/mol
DOCKED: USER    
DOCKED: USER    
DOCKED: USER    NEWDPF move ligand.dum.pdbqt
DOCKED: USER    NEWDPF about 0.108000 0.248000 -0.022000
DOCKED: USER    NEWDPF tran0 37.530582 13.775394 122.266241
DOCKED: USER    NEWDPF quaternion0 -0.863632 0.324817 0.337238 0.186824
DOCKED: USER    NEWDPF axisangle0 -0.879111 0.330639 0.343282 158.465024
DOCKED: USER    NEWDPF quat0 -0.879111 0.330639 0.343282 158.465024
DOCKED: USER    NEWDPF dihe0 -6.14 -121.08 58.64 69.31 34.80 39.96 47.83 71.67 
DOCKED: USER  keepresnum = 1 
DOCKED: USER  
DOCKED: REMARK  Name = 
DOCKED: REMARK  8 active torsions:
DOCKED: REMARK  status: ('A' for Active; 'I' for Inactive)
DOCKED: REMARK    1  A    between atoms: C_2  and  C_10
DOCKED: REMARK    2  A    between atoms: N_3  and  C_4
DOCKED: REMARK    3  A    between atoms: C_10  and  C_11
DOCKED: REMARK    4  A    between atoms: C_11  and  C_12
DOCKED: REMARK    5  A    between atoms: C_12  and  C_13
DOCKED: REMARK    6  A    between atoms: C_13  and  C_14
DOCKED: REMARK    7  A    between atoms: C_14  and  C_15
DOCKED: REMARK    8  A    between atoms: C_15  and  C_16
DOCKED: REMARK                            x       y       z     vdW  Elec       q    Type
DOCKED: REMARK                         _______ _______ _______ _____ _____    ______ ____
DOCKED: USER                              x       y       z     vdW  Elec       q    Type
DOCKED: USER                           _______ _______ _______ _____ _____    ______ ____
DOCKED: ROOT
DOCKED: ATOM      1  C   UNL     1      38.172  15.056 121.827 -0.34 -0.00    +0.000 C 
DOCKED: ENDROOT
DOCKED: BRANCH   1   3
DOCKED: ATOM      2  O   UNL     1      36.246  16.436 121.536 -0.25 -0.00    +0.000 OA
DOCKED: ATOM      3  C   UNL     1      37.078  15.941 122.345 -0.29 -0.00    +0.000 C 
DOCKED: ATOM      4  N   UNL     1      36.988  16.220 123.751 -0.31 -0.00    +0.000 N 
DOCKED: ATOM      5  H   UNL     1      37.753  15.973 124.320 -0.02 -0.00    +0.000 HD
DOCKED: BRANCH   4   6
DOCKED: ATOM      6  C   UNL     1      35.853  16.834 124.384 -0.28 -0.00    +0.000 A 
DOCKED: ATOM      7  C   UNL     1      35.805  18.233 124.502 -0.23 -0.00    +0.000 A 
DOCKED: ATOM      8  C   UNL     1      34.723  18.854 125.136 -0.25 -0.00    +0.000 A 
DOCKED: ATOM      9  C   UNL     1      33.688  18.083 125.670 -0.33 -0.00    +0.000 A 
DOCKED: ATOM     10  C   UNL     1      33.736  16.689 125.577 -0.30 -0.00    +0.000 A 
DOCKED: ATOM     11  C   UNL     1      34.816  16.064 124.945 -0.40 -0.00    +0.000 A 
DOCKED: ATOM     12  CM  UNL     1      34.770  17.460 125.036 -0.45 -0.00    +0.000 AC
DOCKED: ENDBRANCH   4   6
DOCKED: ENDBRANCH   1   3
DOCKED: BRANCH   1  12
DOCKED: ATOM     13  C   UNL     1      37.701  14.309 120.574 -0.35 -0.00    +0.000 C 
DOCKED: BRANCH  12  13
DOCKED: ATOM     14  C   UNL     1      38.145  12.835 120.554 -0.44 -0.00    +0.000 C 
DOCKED: BRANCH  13  14
DOCKED: ATOM     15  C   UNL     1      36.994  11.842 120.819 -0.48 -0.00    +0.000 C 
DOCKED: BRANCH  14  15
DOCKED: ATOM     16  C   UNL     1      36.478  11.926 122.267 -0.60 -0.00    +0.000 C 
DOCKED: BRANCH  15  16
DOCKED: ATOM     17  C   UNL     1      36.695  10.618 123.039 -0.69 -0.00    +0.000 C 
DOCKED: BRANCH  16  17
DOCKED: ATOM     18  C   UNL     1      36.120   9.438 122.311 -0.69 -0.00    +0.000 C 
DOCKED: ATOM     19  N   UNL     1      34.889   8.852 122.739 -0.60 -0.00    +0.000 N 
DOCKED: ATOM     20  O   UNL     1      34.365   7.795 122.078 -0.65 -0.00    +0.000 OA
DOCKED: ATOM     21  O   UNL     1      36.714   8.981 121.297 -2.54 -0.00    +0.000 OA
DOCKED: ATOM     22  H   UNL     1      34.419   9.222 123.521 -0.47 -0.00    +0.000 HD
DOCKED: ENDBRANCH  16  17
DOCKED: ENDBRANCH  15  16
DOCKED: ENDBRANCH  14  15
DOCKED: ENDBRANCH  13  14
DOCKED: ENDBRANCH  12  13
DOCKED: ENDBRANCH   1  12
DOCKED: TORSDOF 8DOCKED: TER
DOCKED: ENDMDL
________________________________________________________________________________


	BEGINNING GENETIC ALGORITHM DOCKING 38 of 100
Run: 38 Seed: 912343781 712025751 [ Run 38 of 100 GA/GALS ]
Beginning LAMARCKIAN GENETIC ALGORITHM (LGA), with a maximum of 2500000 energy evaluations.

Final-Value: -13.366


	FINAL GENETIC ALGORITHM DOCKED STATE
	_______________________________________________


Detailed state:  trans 35.176 14.825 122.414 quatxyzw 0.195474 -0.429419 0.872610 0.126258 center 0.108 0.248 -0.022 ntor 8 177.3592 125.3409 -145.6638 -174.6455 -84.5163 13.7097 119.0444 7.1979
State:	 35.176  14.825 122.414   0.197 -0.433  0.880 165.493    177.36  125.34 -145.66 -174.65  -84.52   13.71  119.04    7.20

DOCKED: MODEL       38
DOCKED: USER    Run = 38
DOCKED: USER    DPF = ligand_dock.biased.dpf
DOCKED: USER  
DOCKED: USER    Estimated Free Energy of Binding    =   -9.94 kcal/mol  [=(1)+(2)+(3)-(4)]
DOCKED: USER    Estimated Inhibition Constant, Ki   =   51.37 nM (nanomolar)  [Temperature = 298.15 K]
DOCKED: USER    
DOCKED: USER    (1) Final Intermolecular Energy     =  -12.33 kcal/mol
DOCKED: USER        vdW + Hbond + desolv Energy     =  -12.33 kcal/mol
DOCKED: USER        Electrostatic Energy            =   +0.00 kcal/mol
DOCKED: USER    (2) Final Total Internal Energy     =   -1.04 kcal/mol
DOCKED: USER    (3) Torsional Free Energy           =   +2.39 kcal/mol
DOCKED: USER    (4) Unbound System's Energy  [=(2)] =   -1.04 kcal/mol
DOCKED: USER    
DOCKED: USER    
DOCKED: USER    NEWDPF move ligand.dum.pdbqt
DOCKED: USER    NEWDPF about 0.108000 0.248000 -0.022000
DOCKED: USER    NEWDPF tran0 35.176003 14.824744 122.414227
DOCKED: USER    NEWDPF quaternion0 0.195474 -0.429419 0.872610 0.126258
DOCKED: USER    NEWDPF axisangle0 0.197051 -0.432883 0.879649 165.493215
DOCKED: USER    NEWDPF quat0 0.197051 -0.432883 0.879649 165.493215
DOCKED: USER    NEWDPF dihe0 177.36 125.34 -145.66 -174.65 -84.52 13.71 119.04 7.20 
DOCKED: USER  keepresnum = 1 
DOCKED: USER  
DOCKED: REMARK  Name = 
DOCKED: REMARK  8 active torsions:
DOCKED: REMARK  status: ('A' for Active; 'I' for Inactive)
DOCKED: REMARK    1  A    between atoms: C_2  and  C_10
DOCKED: REMARK    2  A    between atoms: N_3  and  C_4
DOCKED: REMARK    3  A    between atoms: C_10  and  C_11
DOCKED: REMARK    4  A    between atoms: C_11  and  C_12
DOCKED: REMARK    5  A    between atoms: C_12  and  C_13
DOCKED: REMARK    6  A    between atoms: C_13  and  C_14
DOCKED: REMARK    7  A    between atoms: C_14  and  C_15
DOCKED: REMARK    8  A    between atoms: C_15  and  C_16
DOCKED: REMARK                            x       y       z     vdW  Elec       q    Type
DOCKED: REMARK                         _______ _______ _______ _____ _____    ______ ____
DOCKED: USER                              x       y       z     vdW  Elec       q    Type
DOCKED: USER                           _______ _______ _______ _____ _____    ______ ____
DOCKED: ROOT
DOCKED: ATOM      1  C   UNL     1      35.260  16.002 123.337 -0.45 -0.00    +0.000 C 
DOCKED: ENDROOT
DOCKED: BRANCH   1   3
DOCKED: ATOM      2  O   UNL     1      37.334  17.076 123.825 -0.28 -0.00    +0.000 OA
DOCKED: ATOM      3  C   UNL     1      36.710  16.278 123.075 -0.33 -0.00    +0.000 C 
DOCKED: ATOM      4  N   UNL     1      37.374  15.635 121.975 -0.24 -0.00    +0.000 N 
DOCKED: ATOM      5  H   UNL     1      36.817  15.171 121.308 -0.01 -0.00    +0.000 HD
DOCKED: BRANCH   4   6
DOCKED: ATOM      6  C   UNL     1      38.799  15.624 121.784 -0.25 -0.00    +0.000 A 
DOCKED: ATOM      7  C   UNL     1      39.612  14.949 122.710 -0.34 -0.00    +0.000 A 
DOCKED: ATOM      8  C   UNL     1      41.002  14.944 122.560 -0.47 -0.00    +0.000 A 
DOCKED: ATOM      9  C   UNL     1      41.594  15.626 121.494 -0.29 -0.00    +0.000 A 
DOCKED: ATOM     10  C   UNL     1      40.797  16.318 120.579 -0.16 -0.00    +0.000 A 
DOCKED: ATOM     11  C   UNL     1      39.406  16.326 120.725 -0.14 -0.00    +0.000 A 
DOCKED: ATOM     12  CM  UNL     1      40.201  15.631 121.642 +0.00 -0.00    +0.000 AC
DOCKED: ENDBRANCH   4   6
DOCKED: ENDBRANCH   1   3
DOCKED: BRANCH   1  12
DOCKED: ATOM     13  C   UNL     1      35.105  14.741 124.194 -0.52 -0.00    +0.000 C 
DOCKED: BRANCH  12  13
DOCKED: ATOM     14  C   UNL     1      35.537  13.461 123.458 -0.45 -0.00    +0.000 C 
DOCKED: BRANCH  13  14
DOCKED: ATOM     15  C   UNL     1      37.063  13.236 123.456 -0.58 -0.00    +0.000 C 
DOCKED: BRANCH  14  15
DOCKED: ATOM     16  C   UNL     1      37.447  11.859 122.884 -0.44 -0.00    +0.000 C 
DOCKED: BRANCH  15  16
DOCKED: ATOM     17  C   UNL     1      36.219  11.036 122.474 -0.67 -0.00    +0.000 C 
DOCKED: BRANCH  16  17
DOCKED: ATOM     18  C   UNL     1      36.570   9.600 122.217 -0.69 -0.00    +0.000 C 
DOCKED: ATOM     19  N   UNL     1      36.735   8.690 123.306 -0.65 -0.00    +0.000 N 
DOCKED: ATOM     20  O   UNL     1      37.043   7.392 123.076 -2.34 -0.00    +0.000 OA
DOCKED: ATOM     21  O   UNL     1      36.691   9.190 121.032 -2.60 +0.00    +0.000 OA
DOCKED: ATOM     22  H   UNL     1      36.623   9.009 124.231 -0.43 -0.00    +0.000 HD
DOCKED: ENDBRANCH  16  17
DOCKED: ENDBRANCH  15  16
DOCKED: ENDBRANCH  14  15
DOCKED: ENDBRANCH  13  14
DOCKED: ENDBRANCH  12  13
DOCKED: ENDBRANCH   1  12
DOCKED: TORSDOF 8DOCKED: TER
DOCKED: ENDMDL
________________________________________________________________________________


	BEGINNING GENETIC ALGORITHM DOCKING 39 of 100
Run: 39 Seed: 2061050687 212542959 [ Run 39 of 100 GA/GALS ]
Beginning LAMARCKIAN GENETIC ALGORITHM (LGA), with a maximum of 2500000 energy evaluations.

Final-Value: -13.903


	FINAL GENETIC ALGORITHM DOCKED STATE
	_______________________________________________


Detailed state:  trans 38.297 13.428 121.917 quatxyzw -0.024731 0.086941 -0.984499 -0.150307 center 0.108 0.248 -0.022 ntor 8 92.5488 23.1831 -53.9331 -147.7069 -154.2542 139.7793 100.8145 -165.6353
State:	 38.297  13.428 121.917  -0.025  0.088 -0.996 -162.711     92.55   23.18  -53.93 -147.71 -154.25  139.78  100.81 -165.64

DOCKED: MODEL       39
DOCKED: USER    Run = 39
DOCKED: USER    DPF = ligand_dock.biased.dpf
DOCKED: USER  
DOCKED: USER    Estimated Free Energy of Binding    =  -10.70 kcal/mol  [=(1)+(2)+(3)-(4)]
DOCKED: USER    Estimated Inhibition Constant, Ki   =   14.46 nM (nanomolar)  [Temperature = 298.15 K]
DOCKED: USER    
DOCKED: USER    (1) Final Intermolecular Energy     =  -13.08 kcal/mol
DOCKED: USER        vdW + Hbond + desolv Energy     =  -13.08 kcal/mol
DOCKED: USER        Electrostatic Energy            =   +0.00 kcal/mol
DOCKED: USER    (2) Final Total Internal Energy     =   -0.82 kcal/mol
DOCKED: USER    (3) Torsional Free Energy           =   +2.39 kcal/mol
DOCKED: USER    (4) Unbound System's Energy  [=(2)] =   -0.82 kcal/mol
DOCKED: USER    
DOCKED: USER    
DOCKED: USER    NEWDPF move ligand.dum.pdbqt
DOCKED: USER    NEWDPF about 0.108000 0.248000 -0.022000
DOCKED: USER    NEWDPF tran0 38.297310 13.428156 121.916957
DOCKED: USER    NEWDPF quaternion0 -0.024731 0.086941 -0.984499 -0.150307
DOCKED: USER    NEWDPF axisangle0 -0.025015 0.087940 -0.995812 -162.710604
DOCKED: USER    NEWDPF quat0 -0.025015 0.087940 -0.995812 -162.710604
DOCKED: USER    NEWDPF dihe0 92.55 23.18 -53.93 -147.71 -154.25 139.78 100.81 -165.64 
DOCKED: USER  keepresnum = 1 
DOCKED: USER  
DOCKED: REMARK  Name = 
DOCKED: REMARK  8 active torsions:
DOCKED: REMARK  status: ('A' for Active; 'I' for Inactive)
DOCKED: REMARK    1  A    between atoms: C_2  and  C_10
DOCKED: REMARK    2  A    between atoms: N_3  and  C_4
DOCKED: REMARK    3  A    between atoms: C_10  and  C_11
DOCKED: REMARK    4  A    between atoms: C_11  and  C_12
DOCKED: REMARK    5  A    between atoms: C_12  and  C_13
DOCKED: REMARK    6  A    between atoms: C_13  and  C_14
DOCKED: REMARK    7  A    between atoms: C_14  and  C_15
DOCKED: REMARK    8  A    between atoms: C_15  and  C_16
DOCKED: REMARK                            x       y       z     vdW  Elec       q    Type
DOCKED: REMARK                         _______ _______ _______ _____ _____    ______ ____
DOCKED: USER                              x       y       z     vdW  Elec       q    Type
DOCKED: USER                           _______ _______ _______ _____ _____    ______ ____
DOCKED: ROOT
DOCKED: ATOM      1  C   UNL     1      38.160  14.920 121.896 -0.36 -0.00    +0.000 C 
DOCKED: ENDROOT
DOCKED: BRANCH   1   3
DOCKED: ATOM      2  O   UNL     1      40.462  14.291 121.923 -1.05 +0.00    +0.000 OA
DOCKED: ATOM      3  C   UNL     1      39.611  15.194 122.151 -0.39 -0.00    +0.000 C 
DOCKED: ATOM      4  N   UNL     1      40.021  16.477 122.652 -0.25 -0.00    +0.000 N 
DOCKED: ATOM      5  H   UNL     1      39.323  17.083 122.990 -0.00 -0.00    +0.000 HD
DOCKED: BRANCH   4   6
DOCKED: ATOM      6  C   UNL     1      41.383  16.934 122.691 -0.28 -0.00    +0.000 A 
DOCKED: ATOM      7  C   UNL     1      41.645  18.313 122.733 -0.16 -0.00    +0.000 A 
DOCKED: ATOM      8  C   UNL     1      42.962  18.784 122.745 -0.15 -0.00    +0.000 A 
DOCKED: ATOM      9  C   UNL     1      44.028  17.883 122.701 -0.24 -0.00    +0.000 A 
DOCKED: ATOM     10  C   UNL     1      43.779  16.509 122.638 -0.25 -0.00    +0.000 A 
DOCKED: ATOM     11  C   UNL     1      42.464  16.034 122.624 -0.42 -0.00    +0.000 A 
DOCKED: ATOM     12  CM  UNL     1      42.710  17.410 122.688 +0.00 -0.00    +0.000 AC
DOCKED: ENDBRANCH   4   6
DOCKED: ENDBRANCH   1   3
DOCKED: BRANCH   1  12
DOCKED: ATOM     13  C   UNL     1      37.486  14.401 123.171 -0.47 -0.00    +0.000 C 
DOCKED: BRANCH  12  13
DOCKED: ATOM     14  C   UNL     1      37.640  12.881 123.354 -0.50 -0.00    +0.000 C 
DOCKED: BRANCH  13  14
DOCKED: ATOM     15  C   UNL     1      36.505  12.241 124.180 -0.51 -0.00    +0.000 C 
DOCKED: BRANCH  14  15
DOCKED: ATOM     16  C   UNL     1      35.482  11.511 123.292 -0.46 -0.00    +0.000 C 
DOCKED: BRANCH  15  16
DOCKED: ATOM     17  C   UNL     1      36.094  11.033 121.969 -0.57 -0.00    +0.000 C 
DOCKED: BRANCH  16  17
DOCKED: ATOM     18  C   UNL     1      36.643   9.641 122.080 -0.68 -0.00    +0.000 C 
DOCKED: ATOM     19  N   UNL     1      36.657   8.966 123.340 -0.60 -0.00    +0.000 N 
DOCKED: ATOM     20  O   UNL     1      37.143   7.707 123.439 -2.66 -0.00    +0.000 OA
DOCKED: ATOM     21  O   UNL     1      37.068   9.054 121.048 -2.72 -0.00    +0.000 OA
DOCKED: ATOM     22  H   UNL     1      36.309   9.420 124.141 -0.35 -0.00    +0.000 HD
DOCKED: ENDBRANCH  16  17
DOCKED: ENDBRANCH  15  16
DOCKED: ENDBRANCH  14  15
DOCKED: ENDBRANCH  13  14
DOCKED: ENDBRANCH  12  13
DOCKED: ENDBRANCH   1  12
DOCKED: TORSDOF 8DOCKED: TER
DOCKED: ENDMDL
________________________________________________________________________________


	BEGINNING GENETIC ALGORITHM DOCKING 40 of 100
Run: 40 Seed: 819956475 473324436 [ Run 40 of 100 GA/GALS ]
Beginning LAMARCKIAN GENETIC ALGORITHM (LGA), with a maximum of 2500000 energy evaluations.

Final-Value: -12.959


	FINAL GENETIC ALGORITHM DOCKED STATE
	_______________________________________________


Detailed state:  trans 38.828 15.769 121.589 quatxyzw 0.201087 0.304103 -0.426771 -0.827618 center 0.108 0.248 -0.022 ntor 8 161.0772 -175.2990 -169.1688 159.2885 -106.7807 -13.2323 -131.4639 -179.7977
State:	 38.828  15.769 121.589   0.358  0.542 -0.760 -68.290    161.08 -175.30 -169.17  159.29 -106.78  -13.23 -131.46 -179.80

DOCKED: MODEL       40
DOCKED: USER    Run = 40
DOCKED: USER    DPF = ligand_dock.biased.dpf
DOCKED: USER  
DOCKED: USER    Estimated Free Energy of Binding    =   -9.45 kcal/mol  [=(1)+(2)+(3)-(4)]
DOCKED: USER    Estimated Inhibition Constant, Ki   =  118.62 nM (nanomolar)  [Temperature = 298.15 K]
DOCKED: USER    
DOCKED: USER    (1) Final Intermolecular Energy     =  -11.83 kcal/mol
DOCKED: USER        vdW + Hbond + desolv Energy     =  -11.83 kcal/mol
DOCKED: USER        Electrostatic Energy            =   +0.00 kcal/mol
DOCKED: USER    (2) Final Total Internal Energy     =   -1.12 kcal/mol
DOCKED: USER    (3) Torsional Free Energy           =   +2.39 kcal/mol
DOCKED: USER    (4) Unbound System's Energy  [=(2)] =   -1.12 kcal/mol
DOCKED: USER    
DOCKED: USER    
DOCKED: USER    NEWDPF move ligand.dum.pdbqt
DOCKED: USER    NEWDPF about 0.108000 0.248000 -0.022000
DOCKED: USER    NEWDPF tran0 38.828440 15.768863 121.589093
DOCKED: USER    NEWDPF quaternion0 0.201087 0.304103 -0.426771 -0.827618
DOCKED: USER    NEWDPF axisangle0 0.358258 0.541791 -0.760338 -68.290288
DOCKED: USER    NEWDPF quat0 0.358258 0.541791 -0.760338 -68.290288
DOCKED: USER    NEWDPF dihe0 161.08 -175.30 -169.17 159.29 -106.78 -13.23 -131.46 -179.80 
DOCKED: USER  keepresnum = 1 
DOCKED: USER  
DOCKED: REMARK  Name = 
DOCKED: REMARK  8 active torsions:
DOCKED: REMARK  status: ('A' for Active; 'I' for Inactive)
DOCKED: REMARK    1  A    between atoms: C_2  and  C_10
DOCKED: REMARK    2  A    between atoms: N_3  and  C_4
DOCKED: REMARK    3  A    between atoms: C_10  and  C_11
DOCKED: REMARK    4  A    between atoms: C_11  and  C_12
DOCKED: REMARK    5  A    between atoms: C_12  and  C_13
DOCKED: REMARK    6  A    between atoms: C_13  and  C_14
DOCKED: REMARK    7  A    between atoms: C_14  and  C_15
DOCKED: REMARK    8  A    between atoms: C_15  and  C_16
DOCKED: REMARK                            x       y       z     vdW  Elec       q    Type
DOCKED: REMARK                         _______ _______ _______ _____ _____    ______ ____
DOCKED: USER                              x       y       z     vdW  Elec       q    Type
DOCKED: USER                           _______ _______ _______ _____ _____    ______ ____
DOCKED: ROOT
DOCKED: ATOM      1  C   UNL     1      37.403  15.319 121.496 -0.28 -0.00    +0.000 C 
DOCKED: ENDROOT
DOCKED: BRANCH   1   3
DOCKED: ATOM      2  O   UNL     1      37.752  16.818 123.319 -0.27 -0.00    +0.000 OA
DOCKED: ATOM      3  C   UNL     1      36.948  16.053 122.721 -0.31 -0.00    +0.000 C 
DOCKED: ATOM      4  N   UNL     1      35.606  15.878 123.205 -0.38 -0.00    +0.000 N 
DOCKED: ATOM      5  H   UNL     1      35.073  15.141 122.827 -0.02 -0.00    +0.000 HD
DOCKED: BRANCH   4   6
DOCKED: ATOM      6  C   UNL     1      34.989  16.710 124.201 -0.41 -0.00    +0.000 A 
DOCKED: ATOM      7  C   UNL     1      35.179  18.100 124.151 -0.29 -0.00    +0.000 A 
DOCKED: ATOM      8  C   UNL     1      34.610  18.929 125.123 -0.24 -0.00    +0.000 A 
DOCKED: ATOM      9  C   UNL     1      33.861  18.376 126.163 -0.29 -0.00    +0.000 A 
DOCKED: ATOM     10  C   UNL     1      33.683  16.992 126.236 -0.37 -0.00    +0.000 A 
DOCKED: ATOM     11  C   UNL     1      34.250  16.159 125.266 -0.43 -0.00    +0.000 A 
DOCKED: ATOM     12  CM  UNL     1      34.429  17.544 125.190 -0.39 -0.00    +0.000 AC
DOCKED: ENDBRANCH   4   6
DOCKED: ENDBRANCH   1   3
DOCKED: BRANCH   1  12
DOCKED: ATOM     13  C   UNL     1      38.255  14.107 121.889 -0.44 -0.00    +0.000 C 
DOCKED: BRANCH  12  13
DOCKED: ATOM     14  C   UNL     1      37.678  13.332 123.086 -0.55 -0.00    +0.000 C 
DOCKED: BRANCH  13  14
DOCKED: ATOM     15  C   UNL     1      36.208  12.906 122.892 -0.54 -0.00    +0.000 C 
DOCKED: BRANCH  14  15
DOCKED: ATOM     16  C   UNL     1      35.878  11.602 123.640 -0.64 -0.00    +0.000 C 
DOCKED: BRANCH  15  16
DOCKED: ATOM     17  C   UNL     1      37.112  10.709 123.827 -0.22 -0.00    +0.000 C 
DOCKED: BRANCH  16  17
DOCKED: ATOM     18  C   UNL     1      37.067   9.501 122.939 -0.59 -0.00    +0.000 C 
DOCKED: ATOM     19  N   UNL     1      37.086   9.646 121.517 -0.60 -0.00    +0.000 N 
DOCKED: ATOM     20  O   UNL     1      37.054   8.557 120.715 -2.35 -0.00    +0.000 OA
DOCKED: ATOM     21  O   UNL     1      37.040   8.350 123.452 -2.21 -0.00    +0.000 OA
DOCKED: ATOM     22  H   UNL     1      37.123  10.546 121.119 -0.02 -0.00    +0.000 HD
DOCKED: ENDBRANCH  16  17
DOCKED: ENDBRANCH  15  16
DOCKED: ENDBRANCH  14  15
DOCKED: ENDBRANCH  13  14
DOCKED: ENDBRANCH  12  13
DOCKED: ENDBRANCH   1  12
DOCKED: TORSDOF 8DOCKED: TER
DOCKED: ENDMDL
________________________________________________________________________________


	BEGINNING GENETIC ALGORITHM DOCKING 41 of 100
Run: 41 Seed: 1956179728 2112800135 [ Run 41 of 100 GA/GALS ]
Beginning LAMARCKIAN GENETIC ALGORITHM (LGA), with a maximum of 2500000 energy evaluations.

Final-Value: -13.220


	FINAL GENETIC ALGORITHM DOCKED STATE
	_______________________________________________


Detailed state:  trans 39.630 13.420 121.918 quatxyzw -0.013408 0.046273 -0.988355 -0.144338 center 0.108 0.248 -0.022 ntor 8 -90.9026 -168.0250 -173.9285 115.5093 -85.4052 -23.6051 25.1933 171.4728
State:	 39.630  13.420 121.918  -0.014  0.047 -0.999 -163.402    -90.90 -168.02 -173.93  115.51  -85.41  -23.61   25.19  171.47

DOCKED: MODEL       41
DOCKED: USER    Run = 41
DOCKED: USER    DPF = ligand_dock.biased.dpf
DOCKED: USER  
DOCKED: USER    Estimated Free Energy of Binding    =  -10.10 kcal/mol  [=(1)+(2)+(3)-(4)]
DOCKED: USER    Estimated Inhibition Constant, Ki   =   39.81 nM (nanomolar)  [Temperature = 298.15 K]
DOCKED: USER    
DOCKED: USER    (1) Final Intermolecular Energy     =  -12.48 kcal/mol
DOCKED: USER        vdW + Hbond + desolv Energy     =  -12.48 kcal/mol
DOCKED: USER        Electrostatic Energy            =   +0.00 kcal/mol
DOCKED: USER    (2) Final Total Internal Energy     =   -0.74 kcal/mol
DOCKED: USER    (3) Torsional Free Energy           =   +2.39 kcal/mol
DOCKED: USER    (4) Unbound System's Energy  [=(2)] =   -0.74 kcal/mol
DOCKED: USER    
DOCKED: USER    
DOCKED: USER    NEWDPF move ligand.dum.pdbqt
DOCKED: USER    NEWDPF about 0.108000 0.248000 -0.022000
DOCKED: USER    NEWDPF tran0 39.629603 13.419870 121.918170
DOCKED: USER    NEWDPF quaternion0 -0.013408 0.046273 -0.988355 -0.144338
DOCKED: USER    NEWDPF axisangle0 -0.013550 0.046762 -0.998814 -163.402073
DOCKED: USER    NEWDPF quat0 -0.013550 0.046762 -0.998814 -163.402073
DOCKED: USER    NEWDPF dihe0 -90.90 -168.02 -173.93 115.51 -85.41 -23.61 25.19 171.47 
DOCKED: USER  keepresnum = 1 
DOCKED: USER  
DOCKED: REMARK  Name = 
DOCKED: REMARK  8 active torsions:
DOCKED: REMARK  status: ('A' for Active; 'I' for Inactive)
DOCKED: REMARK    1  A    between atoms: C_2  and  C_10
DOCKED: REMARK    2  A    between atoms: N_3  and  C_4
DOCKED: REMARK    3  A    between atoms: C_10  and  C_11
DOCKED: REMARK    4  A    between atoms: C_11  and  C_12
DOCKED: REMARK    5  A    between atoms: C_12  and  C_13
DOCKED: REMARK    6  A    between atoms: C_13  and  C_14
DOCKED: REMARK    7  A    between atoms: C_14  and  C_15
DOCKED: REMARK    8  A    between atoms: C_15  and  C_16
DOCKED: REMARK                            x       y       z     vdW  Elec       q    Type
DOCKED: REMARK                         _______ _______ _______ _____ _____    ______ ____
DOCKED: USER                              x       y       z     vdW  Elec       q    Type
DOCKED: USER                           _______ _______ _______ _____ _____    ______ ____
DOCKED: ROOT
DOCKED: ATOM      1  C   UNL     1      39.514  14.907 121.777 -0.38 -0.00    +0.000 C 
DOCKED: ENDROOT
DOCKED: BRANCH   1   3
DOCKED: ATOM      2  O   UNL     1      41.726  14.228 122.360 -0.93 -0.00    +0.000 OA
DOCKED: ATOM      3  C   UNL     1      40.960  15.183 122.059 -0.45 -0.00    +0.000 C 
DOCKED: ATOM      4  N   UNL     1      41.459  16.529 121.988 -0.25 -0.00    +0.000 N 
DOCKED: ATOM      5  H   UNL     1      40.803  17.261 121.936 +0.00 -0.00    +0.000 HD
DOCKED: BRANCH   4   6
DOCKED: ATOM      6  C   UNL     1      42.854  16.876 121.987 -0.28 -0.00    +0.000 A 
DOCKED: ATOM      7  C   UNL     1      43.767  16.056 121.303 -0.24 -0.00    +0.000 A 
DOCKED: ATOM      8  C   UNL     1      45.132  16.358 121.308 -0.23 +0.00    +0.000 A 
DOCKED: ATOM      9  C   UNL     1      45.600  17.473 122.007 -0.24 -0.00    +0.000 A 
DOCKED: ATOM     10  C   UNL     1      44.704  18.284 122.708 -0.21 -0.00    +0.000 A 
DOCKED: ATOM     11  C   UNL     1      43.338  17.985 122.707 -0.23 -0.00    +0.000 A 
DOCKED: ATOM     12  CM  UNL     1      44.233  17.172 122.003 +0.00 -0.00    +0.000 AC
DOCKED: ENDBRANCH   4   6
DOCKED: ENDBRANCH   1   3
DOCKED: BRANCH   1  12
DOCKED: ATOM     13  C   UNL     1      38.791  14.497 123.065 -0.31 -0.00    +0.000 C 
DOCKED: BRANCH  12  13
DOCKED: ATOM     14  C   UNL     1      37.466  13.761 122.799 -0.52 -0.00    +0.000 C 
DOCKED: BRANCH  13  14
DOCKED: ATOM     15  C   UNL     1      37.560  12.708 121.676 -0.48 -0.00    +0.000 C 
DOCKED: BRANCH  14  15
DOCKED: ATOM     16  C   UNL     1      36.289  11.846 121.580 -0.48 -0.00    +0.000 C 
DOCKED: BRANCH  15  16
DOCKED: ATOM     17  C   UNL     1      36.147  10.884 122.766 -0.69 -0.00    +0.000 C 
DOCKED: BRANCH  16  17
DOCKED: ATOM     18  C   UNL     1      36.580   9.492 122.411 -0.71 -0.00    +0.000 C 
DOCKED: ATOM     19  N   UNL     1      36.697   8.489 123.422 -0.66 -0.00    +0.000 N 
DOCKED: ATOM     20  O   UNL     1      37.079   7.232 123.102 -2.20 -0.00    +0.000 OA
DOCKED: ATOM     21  O   UNL     1      36.814   9.200 121.207 -2.66 -0.00    +0.000 OA
DOCKED: ATOM     22  H   UNL     1      36.498   8.716 124.359 -0.33 -0.00    +0.000 HD
DOCKED: ENDBRANCH  16  17
DOCKED: ENDBRANCH  15  16
DOCKED: ENDBRANCH  14  15
DOCKED: ENDBRANCH  13  14
DOCKED: ENDBRANCH  12  13
DOCKED: ENDBRANCH   1  12
DOCKED: TORSDOF 8DOCKED: TER
DOCKED: ENDMDL
________________________________________________________________________________


	BEGINNING GENETIC ALGORITHM DOCKING 42 of 100
Run: 42 Seed: 509511802 2057384583 [ Run 42 of 100 GA/GALS ]
Beginning LAMARCKIAN GENETIC ALGORITHM (LGA), with a maximum of 2500000 energy evaluations.

Final-Value: -14.277


	FINAL GENETIC ALGORITHM DOCKED STATE
	_______________________________________________


Detailed state:  trans 35.658 14.232 122.034 quatxyzw -0.612399 0.368505 -0.112411 -0.690315 center 0.108 0.248 -0.022 ntor 8 -116.9118 -179.6407 39.3014 104.5121 -159.2192 -159.9197 73.1437 -124.4537
State:	 35.658  14.232 122.034  -0.846  0.509 -0.155 -92.690   -116.91 -179.64   39.30  104.51 -159.22 -159.92   73.14 -124.45

DOCKED: MODEL       42
DOCKED: USER    Run = 42
DOCKED: USER    DPF = ligand_dock.biased.dpf
DOCKED: USER  
DOCKED: USER    Estimated Free Energy of Binding    =  -10.98 kcal/mol  [=(1)+(2)+(3)-(4)]
DOCKED: USER    Estimated Inhibition Constant, Ki   =    8.96 nM (nanomolar)  [Temperature = 298.15 K]
DOCKED: USER    
DOCKED: USER    (1) Final Intermolecular Energy     =  -13.37 kcal/mol
DOCKED: USER        vdW + Hbond + desolv Energy     =  -13.37 kcal/mol
DOCKED: USER        Electrostatic Energy            =   +0.00 kcal/mol
DOCKED: USER    (2) Final Total Internal Energy     =   -0.91 kcal/mol
DOCKED: USER    (3) Torsional Free Energy           =   +2.39 kcal/mol
DOCKED: USER    (4) Unbound System's Energy  [=(2)] =   -0.91 kcal/mol
DOCKED: USER    
DOCKED: USER    
DOCKED: USER    NEWDPF move ligand.dum.pdbqt
DOCKED: USER    NEWDPF about 0.108000 0.248000 -0.022000
DOCKED: USER    NEWDPF tran0 35.657831 14.231966 122.034232
DOCKED: USER    NEWDPF quaternion0 -0.612399 0.368505 -0.112411 -0.690315
DOCKED: USER    NEWDPF axisangle0 -0.846429 0.509331 -0.155370 -92.689904
DOCKED: USER    NEWDPF quat0 -0.846429 0.509331 -0.155370 -92.689904
DOCKED: USER    NEWDPF dihe0 -116.91 -179.64 39.30 104.51 -159.22 -159.92 73.14 -124.45 
DOCKED: USER  keepresnum = 1 
DOCKED: USER  
DOCKED: REMARK  Name = 
DOCKED: REMARK  8 active torsions:
DOCKED: REMARK  status: ('A' for Active; 'I' for Inactive)
DOCKED: REMARK    1  A    between atoms: C_2  and  C_10
DOCKED: REMARK    2  A    between atoms: N_3  and  C_4
DOCKED: REMARK    3  A    between atoms: C_10  and  C_11
DOCKED: REMARK    4  A    between atoms: C_11  and  C_12
DOCKED: REMARK    5  A    between atoms: C_12  and  C_13
DOCKED: REMARK    6  A    between atoms: C_13  and  C_14
DOCKED: REMARK    7  A    between atoms: C_14  and  C_15
DOCKED: REMARK    8  A    between atoms: C_15  and  C_16
DOCKED: REMARK                            x       y       z     vdW  Elec       q    Type
DOCKED: REMARK                         _______ _______ _______ _____ _____    ______ ____
DOCKED: USER                              x       y       z     vdW  Elec       q    Type
DOCKED: USER                           _______ _______ _______ _____ _____    ______ ____
DOCKED: ROOT
DOCKED: ATOM      1  C   UNL     1      35.683  13.891 123.493 -0.52 -0.00    +0.000 C 
DOCKED: ENDROOT
DOCKED: BRANCH   1   3
DOCKED: ATOM      2  O   UNL     1      33.649  15.138 123.469 -0.61 -0.00    +0.000 OA
DOCKED: ATOM      3  C   UNL     1      34.823  15.044 123.917 -0.57 -0.00    +0.000 C 
DOCKED: ATOM      4  N   UNL     1      35.343  16.030 124.824 -0.35 -0.00    +0.000 N 
DOCKED: ATOM      5  H   UNL     1      36.311  16.026 125.003 -0.02 -0.00    +0.000 HD
DOCKED: BRANCH   4   6
DOCKED: ATOM      6  C   UNL     1      34.541  17.020 125.489 -0.34 -0.00    +0.000 A 
DOCKED: ATOM      7  C   UNL     1      34.656  18.367 125.109 -0.29 -0.00    +0.000 A 
DOCKED: ATOM      8  C   UNL     1      33.905  19.353 125.758 -0.22 -0.00    +0.000 A 
DOCKED: ATOM      9  C   UNL     1      33.045  19.005 126.802 -0.24 -0.00    +0.000 A 
DOCKED: ATOM     10  C   UNL     1      32.939  17.671 127.203 -0.30 -0.00    +0.000 A 
DOCKED: ATOM     11  C   UNL     1      33.688  16.681 126.558 -0.38 -0.00    +0.000 A 
DOCKED: ATOM     12  CM  UNL     1      33.796  18.016 126.153 -0.09 -0.00    +0.000 AC
DOCKED: ENDBRANCH   4   6
DOCKED: ENDBRANCH   1   3
DOCKED: BRANCH   1  12
DOCKED: ATOM     13  C   UNL     1      37.079  14.387 123.099 -0.48 -0.00    +0.000 C 
DOCKED: BRANCH  12  13
DOCKED: ATOM     14  C   UNL     1      37.374  14.215 121.599 -0.39 -0.00    +0.000 C 
DOCKED: BRANCH  13  14
DOCKED: ATOM     15  C   UNL     1      38.085  12.888 121.259 -0.38 -0.00    +0.000 C 
DOCKED: BRANCH  14  15
DOCKED: ATOM     16  C   UNL     1      37.099  11.809 120.777 -0.49 -0.00    +0.000 C 
DOCKED: BRANCH  15  16
DOCKED: ATOM     17  C   UNL     1      36.396  11.100 121.942 -0.60 -0.00    +0.000 C 
DOCKED: BRANCH  16  17
DOCKED: ATOM     18  C   UNL     1      36.823   9.667 122.062 -0.65 -0.00    +0.000 C 
DOCKED: ATOM     19  N   UNL     1      36.930   9.049 123.347 -0.60 -0.00    +0.000 N 
DOCKED: ATOM     20  O   UNL     1      37.306   7.754 123.456 -2.62 -0.00    +0.000 OA
DOCKED: ATOM     21  O   UNL     1      37.060   8.998 121.021 -2.72 -0.00    +0.000 OA
DOCKED: ATOM     22  H   UNL     1      36.727   9.569 124.157 -0.49 -0.00    +0.000 HD
DOCKED: ENDBRANCH  16  17
DOCKED: ENDBRANCH  15  16
DOCKED: ENDBRANCH  14  15
DOCKED: ENDBRANCH  13  14
DOCKED: ENDBRANCH  12  13
DOCKED: ENDBRANCH   1  12
DOCKED: TORSDOF 8DOCKED: TER
DOCKED: ENDMDL
________________________________________________________________________________


	BEGINNING GENETIC ALGORITHM DOCKING 43 of 100
Run: 43 Seed: 1681741980 1890329026 [ Run 43 of 100 GA/GALS ]
Beginning LAMARCKIAN GENETIC ALGORITHM (LGA), with a maximum of 2500000 energy evaluations.

Final-Value: -13.606


	FINAL GENETIC ALGORITHM DOCKED STATE
	_______________________________________________


Detailed state:  trans 36.072 15.555 124.990 quatxyzw -0.852059 0.131613 0.337193 0.378119 center 0.108 0.248 -0.022 ntor 8 168.8638 90.5920 60.9422 -33.2265 -41.2759 123.6419 50.2006 52.1452
State:	 36.072  15.555 124.990  -0.920  0.142  0.364 135.566    168.86   90.59   60.94  -33.23  -41.28  123.64   50.20   52.15

DOCKED: MODEL       43
DOCKED: USER    Run = 43
DOCKED: USER    DPF = ligand_dock.biased.dpf
DOCKED: USER  
DOCKED: USER    Estimated Free Energy of Binding    =  -10.56 kcal/mol  [=(1)+(2)+(3)-(4)]
DOCKED: USER    Estimated Inhibition Constant, Ki   =   18.17 nM (nanomolar)  [Temperature = 298.15 K]
DOCKED: USER    
DOCKED: USER    (1) Final Intermolecular Energy     =  -12.95 kcal/mol
DOCKED: USER        vdW + Hbond + desolv Energy     =  -12.95 kcal/mol
DOCKED: USER        Electrostatic Energy            =   +0.00 kcal/mol
DOCKED: USER    (2) Final Total Internal Energy     =   -0.66 kcal/mol
DOCKED: USER    (3) Torsional Free Energy           =   +2.39 kcal/mol
DOCKED: USER    (4) Unbound System's Energy  [=(2)] =   -0.66 kcal/mol
DOCKED: USER    
DOCKED: USER    
DOCKED: USER    NEWDPF move ligand.dum.pdbqt
DOCKED: USER    NEWDPF about 0.108000 0.248000 -0.022000
DOCKED: USER    NEWDPF tran0 36.072064 15.554555 124.990297
DOCKED: USER    NEWDPF quaternion0 -0.852059 0.131613 0.337193 0.378119
DOCKED: USER    NEWDPF axisangle0 -0.920392 0.142168 0.364235 135.565568
DOCKED: USER    NEWDPF quat0 -0.920392 0.142168 0.364235 135.565568
DOCKED: USER    NEWDPF dihe0 168.86 90.59 60.94 -33.23 -41.28 123.64 50.20 52.15 
DOCKED: USER  keepresnum = 1 
DOCKED: USER  
DOCKED: REMARK  Name = 
DOCKED: REMARK  8 active torsions:
DOCKED: REMARK  status: ('A' for Active; 'I' for Inactive)
DOCKED: REMARK    1  A    between atoms: C_2  and  C_10
DOCKED: REMARK    2  A    between atoms: N_3  and  C_4
DOCKED: REMARK    3  A    between atoms: C_10  and  C_11
DOCKED: REMARK    4  A    between atoms: C_11  and  C_12
DOCKED: REMARK    5  A    between atoms: C_12  and  C_13
DOCKED: REMARK    6  A    between atoms: C_13  and  C_14
DOCKED: REMARK    7  A    between atoms: C_14  and  C_15
DOCKED: REMARK    8  A    between atoms: C_15  and  C_16
DOCKED: REMARK                            x       y       z     vdW  Elec       q    Type
DOCKED: REMARK                         _______ _______ _______ _____ _____    ______ ____
DOCKED: USER                              x       y       z     vdW  Elec       q    Type
DOCKED: USER                           _______ _______ _______ _____ _____    ______ ____
DOCKED: ROOT
DOCKED: ATOM      1  C   UNL     1      35.979  16.836 124.221 -0.34 -0.00    +0.000 C 
DOCKED: ENDROOT
DOCKED: BRANCH   1   3
DOCKED: ATOM      2  O   UNL     1      33.696  17.523 124.117 -0.46 -0.00    +0.000 OA
DOCKED: ATOM      3  C   UNL     1      34.693  17.281 124.850 -0.42 -0.00    +0.000 C 
DOCKED: ATOM      4  N   UNL     1      34.607  17.429 126.277 -0.27 -0.00    +0.000 N 
DOCKED: ATOM      5  H   UNL     1      35.446  17.412 126.792 +0.01 -0.00    +0.000 HD
DOCKED: BRANCH   4   6
DOCKED: ATOM      6  C   UNL     1      33.377  17.597 127.000 -0.32 -0.00    +0.000 A 
DOCKED: ATOM      7  C   UNL     1      32.860  18.890 127.187 -0.22 -0.00    +0.000 A 
DOCKED: ATOM      8  C   UNL     1      31.678  19.083 127.909 -0.21 -0.00    +0.000 A 
DOCKED: ATOM      9  C   UNL     1      31.010  17.989 128.464 -0.32 -0.00    +0.000 A 
DOCKED: ATOM     10  C   UNL     1      31.526  16.701 128.302 -0.41 -0.00    +0.000 A 
DOCKED: ATOM     11  C   UNL     1      32.708  16.503 127.582 -0.38 -0.00    +0.000 A 
DOCKED: ATOM     12  CM  UNL     1      32.193  17.794 127.741 +0.00 -0.00    +0.000 AC
DOCKED: ENDBRANCH   4   6
DOCKED: ENDBRANCH   1   3
DOCKED: BRANCH   1  12
DOCKED: ATOM     13  C   UNL     1      35.723  15.681 123.246 -0.43 -0.00    +0.000 C 
DOCKED: BRANCH  12  13
DOCKED: ATOM     14  C   UNL     1      36.751  14.544 123.382 -0.48 -0.00    +0.000 C 
DOCKED: BRANCH  13  14
DOCKED: ATOM     15  C   UNL     1      36.671  13.502 122.248 -0.44 -0.00    +0.000 C 
DOCKED: BRANCH  14  15
DOCKED: ATOM     16  C   UNL     1      36.971  12.077 122.747 -0.63 -0.00    +0.000 C 
DOCKED: BRANCH  15  16
DOCKED: ATOM     17  C   UNL     1      36.061  11.028 122.095 -0.60 -0.00    +0.000 C 
DOCKED: BRANCH  16  17
DOCKED: ATOM     18  C   UNL     1      36.661   9.654 122.157 -0.69 -0.00    +0.000 C 
DOCKED: ATOM     19  N   UNL     1      36.744   8.955 123.401 -0.59 -0.00    +0.000 N 
DOCKED: ATOM     20  O   UNL     1      37.276   7.712 123.456 -2.64 -0.00    +0.000 OA
DOCKED: ATOM     21  O   UNL     1      37.067   9.103 121.099 -2.72 -0.00    +0.000 OA
DOCKED: ATOM     22  H   UNL     1      36.410   9.381 124.223 -0.37 -0.00    +0.000 HD
DOCKED: ENDBRANCH  16  17
DOCKED: ENDBRANCH  15  16
DOCKED: ENDBRANCH  14  15
DOCKED: ENDBRANCH  13  14
DOCKED: ENDBRANCH  12  13
DOCKED: ENDBRANCH   1  12
DOCKED: TORSDOF 8DOCKED: TER
DOCKED: ENDMDL
________________________________________________________________________________


	BEGINNING GENETIC ALGORITHM DOCKING 44 of 100
Run: 44 Seed: 1510472520 1747650358 [ Run 44 of 100 GA/GALS ]
Beginning LAMARCKIAN GENETIC ALGORITHM (LGA), with a maximum of 2500000 energy evaluations.

Final-Value: -13.865


	FINAL GENETIC ALGORITHM DOCKED STATE
	_______________________________________________


Detailed state:  trans 39.556 15.887 122.493 quatxyzw 0.563025 0.200973 -0.453506 -0.661018 center 0.108 0.248 -0.022 ntor 8 157.5099 108.9699 -151.7217 96.9061 16.4907 -165.7516 -105.6749 -166.4127
State:	 39.556  15.887 122.493   0.750  0.268 -0.604 -97.245    157.51  108.97 -151.72   96.91   16.49 -165.75 -105.67 -166.41

DOCKED: MODEL       44
DOCKED: USER    Run = 44
DOCKED: USER    DPF = ligand_dock.biased.dpf
DOCKED: USER  
DOCKED: USER    Estimated Free Energy of Binding    =  -10.44 kcal/mol  [=(1)+(2)+(3)-(4)]
DOCKED: USER    Estimated Inhibition Constant, Ki   =   22.09 nM (nanomolar)  [Temperature = 298.15 K]
DOCKED: USER    
DOCKED: USER    (1) Final Intermolecular Energy     =  -12.83 kcal/mol
DOCKED: USER        vdW + Hbond + desolv Energy     =  -12.83 kcal/mol
DOCKED: USER        Electrostatic Energy            =   +0.00 kcal/mol
DOCKED: USER    (2) Final Total Internal Energy     =   -1.03 kcal/mol
DOCKED: USER    (3) Torsional Free Energy           =   +2.39 kcal/mol
DOCKED: USER    (4) Unbound System's Energy  [=(2)] =   -1.03 kcal/mol
DOCKED: USER    
DOCKED: USER    
DOCKED: USER    NEWDPF move ligand.dum.pdbqt
DOCKED: USER    NEWDPF about 0.108000 0.248000 -0.022000
DOCKED: USER    NEWDPF tran0 39.556482 15.887239 122.493063
DOCKED: USER    NEWDPF quaternion0 0.563025 0.200973 -0.453506 -0.661018
DOCKED: USER    NEWDPF axisangle0 0.750330 0.267831 -0.604377 -97.244814
DOCKED: USER    NEWDPF quat0 0.750330 0.267831 -0.604377 -97.244814
DOCKED: USER    NEWDPF dihe0 157.51 108.97 -151.72 96.91 16.49 -165.75 -105.67 -166.41 
DOCKED: USER  keepresnum = 1 
DOCKED: USER  
DOCKED: REMARK  Name = 
DOCKED: REMARK  8 active torsions:
DOCKED: REMARK  status: ('A' for Active; 'I' for Inactive)
DOCKED: REMARK    1  A    between atoms: C_2  and  C_10
DOCKED: REMARK    2  A    between atoms: N_3  and  C_4
DOCKED: REMARK    3  A    between atoms: C_10  and  C_11
DOCKED: REMARK    4  A    between atoms: C_11  and  C_12
DOCKED: REMARK    5  A    between atoms: C_12  and  C_13
DOCKED: REMARK    6  A    between atoms: C_13  and  C_14
DOCKED: REMARK    7  A    between atoms: C_14  and  C_15
DOCKED: REMARK    8  A    between atoms: C_15  and  C_16
DOCKED: REMARK                            x       y       z     vdW  Elec       q    Type
DOCKED: REMARK                         _______ _______ _______ _____ _____    ______ ____
DOCKED: USER                              x       y       z     vdW  Elec       q    Type
DOCKED: USER                           _______ _______ _______ _____ _____    ______ ____
DOCKED: ROOT
DOCKED: ATOM      1  C   UNL     1      38.275  16.326 121.852 -0.21 -0.00    +0.000 C 
DOCKED: ENDROOT
DOCKED: BRANCH   1   3
DOCKED: ATOM      2  O   UNL     1      38.220  16.723 124.205 -0.28 -0.00    +0.000 OA
DOCKED: ATOM      3  C   UNL     1      37.555  16.574 123.144 -0.27 -0.00    +0.000 C 
DOCKED: ATOM      4  N   UNL     1      36.120  16.639 123.163 -0.29 -0.00    +0.000 N 
DOCKED: ATOM      5  H   UNL     1      35.635  16.336 122.361 -0.01 -0.00    +0.000 HD
DOCKED: BRANCH   4   6
DOCKED: ATOM      6  C   UNL     1      35.346  17.118 124.275 -0.34 -0.00    +0.000 A 
DOCKED: ATOM      7  C   UNL     1      35.537  18.432 124.732 -0.24 -0.00    +0.000 A 
DOCKED: ATOM      8  C   UNL     1      34.815  18.914 125.828 -0.22 -0.00    +0.000 A 
DOCKED: ATOM      9  C   UNL     1      33.906  18.084 126.487 -0.30 -0.00    +0.000 A 
DOCKED: ATOM     10  C   UNL     1      33.723  16.767 126.055 -0.37 -0.00    +0.000 A 
DOCKED: ATOM     11  C   UNL     1      34.444  16.281 124.960 -0.46 -0.00    +0.000 A 
DOCKED: ATOM     12  CM  UNL     1      34.629  17.599 125.390 -0.41 -0.00    +0.000 AC
DOCKED: ENDBRANCH   4   6
DOCKED: ENDBRANCH   1   3
DOCKED: BRANCH   1  12
DOCKED: ATOM     13  C   UNL     1      38.432  14.820 121.614 -0.36 -0.00    +0.000 C 
DOCKED: BRANCH  12  13
DOCKED: ATOM     14  C   UNL     1      37.092  14.116 121.335 -0.34 -0.00    +0.000 C 
DOCKED: BRANCH  13  14
DOCKED: ATOM     15  C   UNL     1      36.496  13.413 122.572 -0.47 -0.00    +0.000 C 
DOCKED: BRANCH  14  15
DOCKED: ATOM     16  C   UNL     1      37.031  11.979 122.738 -0.63 -0.00    +0.000 C 
DOCKED: BRANCH  15  16
DOCKED: ATOM     17  C   UNL     1      36.176  10.947 121.992 -0.58 -0.00    +0.000 C 
DOCKED: BRANCH  16  17
DOCKED: ATOM     18  C   UNL     1      36.752   9.566 122.095 -0.68 -0.00    +0.000 C 
DOCKED: ATOM     19  N   UNL     1      36.930   8.949 123.371 -0.61 -0.00    +0.000 N 
DOCKED: ATOM     20  O   UNL     1      37.441   7.699 123.464 -2.59 -0.00    +0.000 OA
DOCKED: ATOM     21  O   UNL     1      37.054   8.937 121.045 -2.71 -0.00    +0.000 OA
DOCKED: ATOM     22  H   UNL     1      36.678   9.436 124.188 -0.48 -0.00    +0.000 HD
DOCKED: ENDBRANCH  16  17
DOCKED: ENDBRANCH  15  16
DOCKED: ENDBRANCH  14  15
DOCKED: ENDBRANCH  13  14
DOCKED: ENDBRANCH  12  13
DOCKED: ENDBRANCH   1  12
DOCKED: TORSDOF 8DOCKED: TER
DOCKED: ENDMDL
________________________________________________________________________________


	BEGINNING GENETIC ALGORITHM DOCKING 45 of 100
Run: 45 Seed: 343835986 886140931 [ Run 45 of 100 GA/GALS ]
Beginning LAMARCKIAN GENETIC ALGORITHM (LGA), with a maximum of 2500000 energy evaluations.

Final-Value: -13.764


	FINAL GENETIC ALGORITHM DOCKED STATE
	_______________________________________________


Detailed state:  trans 38.662 13.545 123.119 quatxyzw -0.091676 -0.369921 -0.870180 -0.312315 center 0.108 0.248 -0.022 ntor 8 135.5244 164.2412 47.2742 85.9578 58.3645 9.1343 -7.0508 -6.0661
State:	 38.662  13.545 123.119  -0.097 -0.389 -0.916 -143.602    135.52  164.24   47.27   85.96   58.36    9.13   -7.05   -6.07

DOCKED: MODEL       45
DOCKED: USER    Run = 45
DOCKED: USER    DPF = ligand_dock.biased.dpf
DOCKED: USER  
DOCKED: USER    Estimated Free Energy of Binding    =  -10.69 kcal/mol  [=(1)+(2)+(3)-(4)]
DOCKED: USER    Estimated Inhibition Constant, Ki   =   14.58 nM (nanomolar)  [Temperature = 298.15 K]
DOCKED: USER    
DOCKED: USER    (1) Final Intermolecular Energy     =  -13.08 kcal/mol
DOCKED: USER        vdW + Hbond + desolv Energy     =  -13.08 kcal/mol
DOCKED: USER        Electrostatic Energy            =   +0.00 kcal/mol
DOCKED: USER    (2) Final Total Internal Energy     =   -0.69 kcal/mol
DOCKED: USER    (3) Torsional Free Energy           =   +2.39 kcal/mol
DOCKED: USER    (4) Unbound System's Energy  [=(2)] =   -0.69 kcal/mol
DOCKED: USER    
DOCKED: USER    
DOCKED: USER    NEWDPF move ligand.dum.pdbqt
DOCKED: USER    NEWDPF about 0.108000 0.248000 -0.022000
DOCKED: USER    NEWDPF tran0 38.661624 13.544778 123.118644
DOCKED: USER    NEWDPF quaternion0 -0.091676 -0.369921 -0.870180 -0.312315
DOCKED: USER    NEWDPF axisangle0 -0.096504 -0.389400 -0.915999 -143.602370
DOCKED: USER    NEWDPF quat0 -0.096504 -0.389400 -0.915999 -143.602370
DOCKED: USER    NEWDPF dihe0 135.52 164.24 47.27 85.96 58.36 9.13 -7.05 -6.07 
DOCKED: USER  keepresnum = 1 
DOCKED: USER  
DOCKED: REMARK  Name = 
DOCKED: REMARK  8 active torsions:
DOCKED: REMARK  status: ('A' for Active; 'I' for Inactive)
DOCKED: REMARK    1  A    between atoms: C_2  and  C_10
DOCKED: REMARK    2  A    between atoms: N_3  and  C_4
DOCKED: REMARK    3  A    between atoms: C_10  and  C_11
DOCKED: REMARK    4  A    between atoms: C_11  and  C_12
DOCKED: REMARK    5  A    between atoms: C_12  and  C_13
DOCKED: REMARK    6  A    between atoms: C_13  and  C_14
DOCKED: REMARK    7  A    between atoms: C_14  and  C_15
DOCKED: REMARK    8  A    between atoms: C_15  and  C_16
DOCKED: REMARK                            x       y       z     vdW  Elec       q    Type
DOCKED: REMARK                         _______ _______ _______ _____ _____    ______ ____
DOCKED: USER                              x       y       z     vdW  Elec       q    Type
DOCKED: USER                           _______ _______ _______ _____ _____    ______ ____
DOCKED: ROOT
DOCKED: ATOM      1  C   UNL     1      38.052  14.267 121.956 -0.43 -0.00    +0.000 C 
DOCKED: ENDROOT
DOCKED: BRANCH   1   3
DOCKED: ATOM      2  O   UNL     1      39.228  15.933 120.717 -0.19 -0.00    +0.000 OA
DOCKED: ATOM      3  C   UNL     1      39.254  15.118 121.679 -0.35 -0.00    +0.000 C 
DOCKED: ATOM      4  N   UNL     1      40.424  14.998 122.505 -0.44 -0.00    +0.000 N 
DOCKED: ATOM      5  H   UNL     1      40.476  14.230 123.119 -0.05 +0.00    +0.000 HD
DOCKED: BRANCH   4   6
DOCKED: ATOM      6  C   UNL     1      41.522  15.925 122.494 -0.40 -0.00    +0.000 A 
DOCKED: ATOM      7  C   UNL     1      42.699  15.590 121.805 -0.33 -0.00    +0.000 A 
DOCKED: ATOM      8  C   UNL     1      43.790  16.464 121.801 -0.28 -0.00    +0.000 A 
DOCKED: ATOM      9  C   UNL     1      43.722  17.674 122.496 -0.25 -0.00    +0.000 A 
DOCKED: ATOM     10  C   UNL     1      42.564  18.008 123.203 -0.19 -0.00    +0.000 A 
DOCKED: ATOM     11  C   UNL     1      41.470  17.136 123.211 -0.31 -0.00    +0.000 A 
DOCKED: ATOM     12  CM  UNL     1      42.628  16.799 122.502 +0.00 -0.00    +0.000 AC
DOCKED: ENDBRANCH   4   6
DOCKED: ENDBRANCH   1   3
DOCKED: BRANCH   1  12
DOCKED: ATOM     13  C   UNL     1      37.347  14.743 123.231 -0.44 -0.00    +0.000 C 
DOCKED: BRANCH  12  13
DOCKED: ATOM     14  C   UNL     1      35.943  14.135 123.401 -0.53 -0.00    +0.000 C 
DOCKED: BRANCH  13  14
DOCKED: ATOM     15  C   UNL     1      35.961  12.667 123.873 -0.59 -0.00    +0.000 C 
DOCKED: BRANCH  14  15
DOCKED: ATOM     16  C   UNL     1      36.994  11.823 123.105 -0.66 -0.00    +0.000 C 
DOCKED: BRANCH  15  16
DOCKED: ATOM     17  C   UNL     1      36.350  10.982 121.995 -0.61 -0.00    +0.000 C 
DOCKED: BRANCH  16  17
DOCKED: ATOM     18  C   UNL     1      36.741   9.537 122.092 -0.68 -0.00    +0.000 C 
DOCKED: ATOM     19  N   UNL     1      36.873   8.907 123.367 -0.61 -0.00    +0.000 N 
DOCKED: ATOM     20  O   UNL     1      37.217   7.601 123.456 -2.58 -0.00    +0.000 OA
DOCKED: ATOM     21  O   UNL     1      36.924   8.869 121.039 -2.67 -0.00    +0.000 OA
DOCKED: ATOM     22  H   UNL     1      36.713   9.426 124.188 -0.49 -0.00    +0.000 HD
DOCKED: ENDBRANCH  16  17
DOCKED: ENDBRANCH  15  16
DOCKED: ENDBRANCH  14  15
DOCKED: ENDBRANCH  13  14
DOCKED: ENDBRANCH  12  13
DOCKED: ENDBRANCH   1  12
DOCKED: TORSDOF 8DOCKED: TER
DOCKED: ENDMDL
________________________________________________________________________________


	BEGINNING GENETIC ALGORITHM DOCKING 46 of 100
Run: 46 Seed: 280518446 911997139 [ Run 46 of 100 GA/GALS ]
Beginning LAMARCKIAN GENETIC ALGORITHM (LGA), with a maximum of 2500000 energy evaluations.

Final-Value: -13.217


	FINAL GENETIC ALGORITHM DOCKED STATE
	_______________________________________________


Detailed state:  trans 35.415 15.493 122.344 quatxyzw 0.443838 -0.432576 0.706333 -0.342023 center 0.108 0.248 -0.022 ntor 8 57.5239 35.3240 -164.2002 -84.4944 -169.9660 145.8969 -155.8071 29.7605
State:	 35.415  15.493 122.344   0.472 -0.460  0.752 -140.000     57.52   35.32 -164.20  -84.49 -169.97  145.90 -155.81   29.76

DOCKED: MODEL       46
DOCKED: USER    Run = 46
DOCKED: USER    DPF = ligand_dock.biased.dpf
DOCKED: USER  
DOCKED: USER    Estimated Free Energy of Binding    =   -9.58 kcal/mol  [=(1)+(2)+(3)-(4)]
DOCKED: USER    Estimated Inhibition Constant, Ki   =   94.29 nM (nanomolar)  [Temperature = 298.15 K]
DOCKED: USER    
DOCKED: USER    (1) Final Intermolecular Energy     =  -11.97 kcal/mol
DOCKED: USER        vdW + Hbond + desolv Energy     =  -11.97 kcal/mol
DOCKED: USER        Electrostatic Energy            =   +0.00 kcal/mol
DOCKED: USER    (2) Final Total Internal Energy     =   -1.25 kcal/mol
DOCKED: USER    (3) Torsional Free Energy           =   +2.39 kcal/mol
DOCKED: USER    (4) Unbound System's Energy  [=(2)] =   -1.25 kcal/mol
DOCKED: USER    
DOCKED: USER    
DOCKED: USER    NEWDPF move ligand.dum.pdbqt
DOCKED: USER    NEWDPF about 0.108000 0.248000 -0.022000
DOCKED: USER    NEWDPF tran0 35.414580 15.493337 122.344411
DOCKED: USER    NEWDPF quaternion0 0.443838 -0.432576 0.706333 -0.342023
DOCKED: USER    NEWDPF axisangle0 0.472323 -0.460338 0.751665 -139.999680
DOCKED: USER    NEWDPF quat0 0.472323 -0.460338 0.751665 -139.999680
DOCKED: USER    NEWDPF dihe0 57.52 35.32 -164.20 -84.49 -169.97 145.90 -155.81 29.76 
DOCKED: USER  keepresnum = 1 
DOCKED: USER  
DOCKED: REMARK  Name = 
DOCKED: REMARK  8 active torsions:
DOCKED: REMARK  status: ('A' for Active; 'I' for Inactive)
DOCKED: REMARK    1  A    between atoms: C_2  and  C_10
DOCKED: REMARK    2  A    between atoms: N_3  and  C_4
DOCKED: REMARK    3  A    between atoms: C_10  and  C_11
DOCKED: REMARK    4  A    between atoms: C_11  and  C_12
DOCKED: REMARK    5  A    between atoms: C_12  and  C_13
DOCKED: REMARK    6  A    between atoms: C_13  and  C_14
DOCKED: REMARK    7  A    between atoms: C_14  and  C_15
DOCKED: REMARK    8  A    between atoms: C_15  and  C_16
DOCKED: REMARK                            x       y       z     vdW  Elec       q    Type
DOCKED: REMARK                         _______ _______ _______ _____ _____    ______ ____
DOCKED: USER                              x       y       z     vdW  Elec       q    Type
DOCKED: USER                           _______ _______ _______ _____ _____    ______ ____
DOCKED: ROOT
DOCKED: ATOM      1  C   UNL     1      36.688  16.277 122.430 -0.28 -0.00    +0.000 C 
DOCKED: ENDROOT
DOCKED: BRANCH   1   3
DOCKED: ATOM      2  O   UNL     1      38.473  15.615 120.991 -0.22 -0.00    +0.000 OA
DOCKED: ATOM      3  C   UNL     1      37.232  15.798 121.118 -0.23 -0.00    +0.000 C 
DOCKED: ATOM      4  N   UNL     1      36.339  15.555 120.018 -0.11 -0.00    +0.000 N 
DOCKED: ATOM      5  H   UNL     1      35.414  15.883 120.095 +0.03 -0.00    +0.000 HD
DOCKED: BRANCH   4   6
DOCKED: ATOM      6  C   UNL     1      36.708  14.862 118.814 -0.24 -0.00    +0.000 A 
DOCKED: ATOM      7  C   UNL     1      37.412  13.650 118.905 -0.36 -0.00    +0.000 A 
DOCKED: ATOM      8  C   UNL     1      37.804  12.970 117.748 -0.21 -0.00    +0.000 A 
DOCKED: ATOM      9  C   UNL     1      37.510  13.500 116.490 -0.37 -0.00    +0.000 A 
DOCKED: ATOM     10  C   UNL     1      36.828  14.716 116.387 -0.24 -0.00    +0.000 A 
DOCKED: ATOM     11  C   UNL     1      36.435  15.401 117.542 -0.19 -0.00    +0.000 A 
DOCKED: ATOM     12  CM  UNL     1      37.116  14.183 117.648 +0.00 -0.00    +0.000 AC
DOCKED: ENDBRANCH   4   6
DOCKED: ENDBRANCH   1   3
DOCKED: BRANCH   1  12
DOCKED: ATOM     13  C   UNL     1      36.753  15.155 123.473 -0.43 -0.00    +0.000 C 
DOCKED: BRANCH  12  13
DOCKED: ATOM     14  C   UNL     1      37.722  14.027 123.079 -0.51 -0.00    +0.000 C 
DOCKED: BRANCH  13  14
DOCKED: ATOM     15  C   UNL     1      37.277  12.633 123.567 -0.56 -0.00    +0.000 C 
DOCKED: BRANCH  14  15
DOCKED: ATOM     16  C   UNL     1      36.324  11.947 122.572 -0.63 -0.00    +0.000 C 
DOCKED: BRANCH  15  16
DOCKED: ATOM     17  C   UNL     1      37.075  11.114 121.525 -0.51 -0.00    +0.000 C 
DOCKED: BRANCH  16  17
DOCKED: ATOM     18  C   UNL     1      37.006   9.646 121.827 -0.59 -0.00    +0.000 C 
DOCKED: ATOM     19  N   UNL     1      37.123   9.177 123.172 -0.61 -0.00    +0.000 N 
DOCKED: ATOM     20  O   UNL     1      37.052   7.854 123.447 -2.63 -0.00    +0.000 OA
DOCKED: ATOM     21  O   UNL     1      36.815   8.825 120.890 -2.63 -0.00    +0.000 OA
DOCKED: ATOM     22  H   UNL     1      37.256   9.822 123.904 -0.44 -0.00    +0.000 HD
DOCKED: ENDBRANCH  16  17
DOCKED: ENDBRANCH  15  16
DOCKED: ENDBRANCH  14  15
DOCKED: ENDBRANCH  13  14
DOCKED: ENDBRANCH  12  13
DOCKED: ENDBRANCH   1  12
DOCKED: TORSDOF 8DOCKED: TER
DOCKED: ENDMDL
________________________________________________________________________________


	BEGINNING GENETIC ALGORITHM DOCKING 47 of 100
Run: 47 Seed: 1863837343 282401512 [ Run 47 of 100 GA/GALS ]
Beginning LAMARCKIAN GENETIC ALGORITHM (LGA), with a maximum of 2500000 energy evaluations.

Final-Value: -13.848


	FINAL GENETIC ALGORITHM DOCKED STATE
	_______________________________________________


Detailed state:  trans 36.178 12.202 122.042 quatxyzw 0.175155 0.368662 -0.485399 0.773173 center 0.108 0.248 -0.022 ntor 8 -122.2172 -167.4518 68.7970 -146.8817 -161.6411 -176.7340 76.4322 -75.1871
State:	 36.178  12.202 122.042   0.276  0.581 -0.765 78.721   -122.22 -167.45   68.80 -146.88 -161.64 -176.73   76.43  -75.19

DOCKED: MODEL       47
DOCKED: USER    Run = 47
DOCKED: USER    DPF = ligand_dock.biased.dpf
DOCKED: USER  
DOCKED: USER    Estimated Free Energy of Binding    =  -10.19 kcal/mol  [=(1)+(2)+(3)-(4)]
DOCKED: USER    Estimated Inhibition Constant, Ki   =   33.94 nM (nanomolar)  [Temperature = 298.15 K]
DOCKED: USER    
DOCKED: USER    (1) Final Intermolecular Energy     =  -12.58 kcal/mol
DOCKED: USER        vdW + Hbond + desolv Energy     =  -12.58 kcal/mol
DOCKED: USER        Electrostatic Energy            =   +0.00 kcal/mol
DOCKED: USER    (2) Final Total Internal Energy     =   -1.27 kcal/mol
DOCKED: USER    (3) Torsional Free Energy           =   +2.39 kcal/mol
DOCKED: USER    (4) Unbound System's Energy  [=(2)] =   -1.27 kcal/mol
DOCKED: USER    
DOCKED: USER    
DOCKED: USER    NEWDPF move ligand.dum.pdbqt
DOCKED: USER    NEWDPF about 0.108000 0.248000 -0.022000
DOCKED: USER    NEWDPF tran0 36.178336 12.201641 122.042265
DOCKED: USER    NEWDPF quaternion0 0.175155 0.368662 -0.485399 0.773173
DOCKED: USER    NEWDPF axisangle0 0.276184 0.581308 -0.765378 78.720561
DOCKED: USER    NEWDPF quat0 0.276184 0.581308 -0.765378 78.720561
DOCKED: USER    NEWDPF dihe0 -122.22 -167.45 68.80 -146.88 -161.64 -176.73 76.43 -75.19 
DOCKED: USER  keepresnum = 1 
DOCKED: USER  
DOCKED: REMARK  Name = 
DOCKED: REMARK  8 active torsions:
DOCKED: REMARK  status: ('A' for Active; 'I' for Inactive)
DOCKED: REMARK    1  A    between atoms: C_2  and  C_10
DOCKED: REMARK    2  A    between atoms: N_3  and  C_4
DOCKED: REMARK    3  A    between atoms: C_10  and  C_11
DOCKED: REMARK    4  A    between atoms: C_11  and  C_12
DOCKED: REMARK    5  A    between atoms: C_12  and  C_13
DOCKED: REMARK    6  A    between atoms: C_13  and  C_14
DOCKED: REMARK    7  A    between atoms: C_14  and  C_15
DOCKED: REMARK    8  A    between atoms: C_15  and  C_16
DOCKED: REMARK                            x       y       z     vdW  Elec       q    Type
DOCKED: REMARK                         _______ _______ _______ _____ _____    ______ ____
DOCKED: USER                              x       y       z     vdW  Elec       q    Type
DOCKED: USER                           _______ _______ _______ _____ _____    ______ ____
DOCKED: ROOT
DOCKED: ATOM      1  C   UNL     1      37.194  11.275 122.636 -0.47 -0.00    +0.000 C 
DOCKED: ENDROOT
DOCKED: BRANCH   1   3
DOCKED: ATOM      2  O   UNL     1      37.039   9.318 121.279 -2.57 -0.00    +0.000 OA
DOCKED: ATOM      3  C   UNL     1      36.512  10.018 122.186 -0.66 -0.00    +0.000 C 
DOCKED: ATOM      4  N   UNL     1      35.267   9.624 122.785 -0.60 -0.00    +0.000 N 
DOCKED: ATOM      5  H   UNL     1      34.798  10.283 123.348 -0.38 -0.00    +0.000 HD
DOCKED: BRANCH   4   6
DOCKED: ATOM      6  C   UNL     1      34.661   8.331 122.619 -0.61 -0.00    +0.000 A 
DOCKED: ATOM      7  C   UNL     1      33.939   8.056 121.446 -0.58 -0.00    +0.000 A 
DOCKED: ATOM      8  C   UNL     1      33.319   6.814 121.271 -0.42 -0.00    +0.000 A 
DOCKED: ATOM      9  C   UNL     1      33.402   5.843 122.272 -0.60 -0.00    +0.000 A 
DOCKED: ATOM     10  C   UNL     1      34.100   6.114 123.451 -0.55 -0.00    +0.000 A 
DOCKED: ATOM     11  C   UNL     1      34.721   7.354 123.631 -0.63 -0.00    +0.000 A 
DOCKED: ATOM     12  CM  UNL     1      34.023   7.086 122.449 +0.00 -0.00    +0.000 AC
DOCKED: ENDBRANCH   4   6
DOCKED: ENDBRANCH   1   3
DOCKED: BRANCH   1  12
DOCKED: ATOM     13  C   UNL     1      36.413  11.919 123.787 -0.70 -0.00    +0.000 C 
DOCKED: BRANCH  12  13
DOCKED: ATOM     14  C   UNL     1      35.714  13.227 123.377 -0.47 -0.00    +0.000 C 
DOCKED: BRANCH  13  14
DOCKED: ATOM     15  C   UNL     1      36.347  14.487 124.004 -0.42 -0.00    +0.000 C 
DOCKED: BRANCH  14  15
DOCKED: ATOM     16  C   UNL     1      37.373  15.149 123.068 -0.41 -0.00    +0.000 C 
DOCKED: BRANCH  15  16
DOCKED: ATOM     17  C   UNL     1      37.078  14.869 121.589 -0.31 -0.00    +0.000 C 
DOCKED: BRANCH  16  17
DOCKED: ATOM     18  C   UNL     1      37.941  13.767 121.047 -0.42 -0.00    +0.000 C 
DOCKED: ATOM     19  N   UNL     1      37.399  12.797 120.150 -0.45 -0.00    +0.000 N 
DOCKED: ATOM     20  O   UNL     1      38.178  11.809 119.653 -0.54 -0.00    +0.000 OA
DOCKED: ATOM     21  O   UNL     1      39.160  13.717 121.365 -0.69 -0.00    +0.000 OA
DOCKED: ATOM     22  H   UNL     1      36.450  12.848 119.890 -0.10 -0.00    +0.000 HD
DOCKED: ENDBRANCH  16  17
DOCKED: ENDBRANCH  15  16
DOCKED: ENDBRANCH  14  15
DOCKED: ENDBRANCH  13  14
DOCKED: ENDBRANCH  12  13
DOCKED: ENDBRANCH   1  12
DOCKED: TORSDOF 8DOCKED: TER
DOCKED: ENDMDL
________________________________________________________________________________


	BEGINNING GENETIC ALGORITHM DOCKING 48 of 100
Run: 48 Seed: 753673895 736120919 [ Run 48 of 100 GA/GALS ]
Beginning LAMARCKIAN GENETIC ALGORITHM (LGA), with a maximum of 2500000 energy evaluations.

Final-Value: -13.730


	FINAL GENETIC ALGORITHM DOCKED STATE
	_______________________________________________


Detailed state:  trans 38.406 15.120 120.663 quatxyzw -0.099378 -0.615921 -0.165785 -0.763728 center 0.108 0.248 -0.022 ntor 8 80.0584 120.2532 81.9371 146.9139 -170.9259 158.5114 18.8448 157.6871
State:	 38.406  15.120 120.663  -0.154 -0.954 -0.257 -80.412     80.06  120.25   81.94  146.91 -170.93  158.51   18.84  157.69

DOCKED: MODEL       48
DOCKED: USER    Run = 48
DOCKED: USER    DPF = ligand_dock.biased.dpf
DOCKED: USER  
DOCKED: USER    Estimated Free Energy of Binding    =  -10.54 kcal/mol  [=(1)+(2)+(3)-(4)]
DOCKED: USER    Estimated Inhibition Constant, Ki   =   18.96 nM (nanomolar)  [Temperature = 298.15 K]
DOCKED: USER    
DOCKED: USER    (1) Final Intermolecular Energy     =  -12.92 kcal/mol
DOCKED: USER        vdW + Hbond + desolv Energy     =  -12.92 kcal/mol
DOCKED: USER        Electrostatic Energy            =   +0.00 kcal/mol
DOCKED: USER    (2) Final Total Internal Energy     =   -0.81 kcal/mol
DOCKED: USER    (3) Torsional Free Energy           =   +2.39 kcal/mol
DOCKED: USER    (4) Unbound System's Energy  [=(2)] =   -0.81 kcal/mol
DOCKED: USER    
DOCKED: USER    
DOCKED: USER    NEWDPF move ligand.dum.pdbqt
DOCKED: USER    NEWDPF about 0.108000 0.248000 -0.022000
DOCKED: USER    NEWDPF tran0 38.405783 15.119650 120.662505
DOCKED: USER    NEWDPF quaternion0 -0.099378 -0.615921 -0.165785 -0.763728
DOCKED: USER    NEWDPF axisangle0 -0.153946 -0.954120 -0.256817 -80.412124
DOCKED: USER    NEWDPF quat0 -0.153946 -0.954120 -0.256817 -80.412124
DOCKED: USER    NEWDPF dihe0 80.06 120.25 81.94 146.91 -170.93 158.51 18.84 157.69 
DOCKED: USER  keepresnum = 1 
DOCKED: USER  
DOCKED: REMARK  Name = 
DOCKED: REMARK  8 active torsions:
DOCKED: REMARK  status: ('A' for Active; 'I' for Inactive)
DOCKED: REMARK    1  A    between atoms: C_2  and  C_10
DOCKED: REMARK    2  A    between atoms: N_3  and  C_4
DOCKED: REMARK    3  A    between atoms: C_10  and  C_11
DOCKED: REMARK    4  A    between atoms: C_11  and  C_12
DOCKED: REMARK    5  A    between atoms: C_12  and  C_13
DOCKED: REMARK    6  A    between atoms: C_13  and  C_14
DOCKED: REMARK    7  A    between atoms: C_14  and  C_15
DOCKED: REMARK    8  A    between atoms: C_15  and  C_16
DOCKED: REMARK                            x       y       z     vdW  Elec       q    Type
DOCKED: REMARK                         _______ _______ _______ _____ _____    ______ ____
DOCKED: USER                              x       y       z     vdW  Elec       q    Type
DOCKED: USER                           _______ _______ _______ _____ _____    ______ ____
DOCKED: ROOT
DOCKED: ATOM      1  C   UNL     1      38.056  13.733 120.218 -0.38 -0.00    +0.000 C 
DOCKED: ENDROOT
DOCKED: BRANCH   1   3
DOCKED: ATOM      2  O   UNL     1      37.250  15.355 118.665 -0.21 -0.00    +0.000 OA
DOCKED: ATOM      3  C   UNL     1      37.544  14.147 118.871 -0.34 -0.00    +0.000 C 
DOCKED: ATOM      4  N   UNL     1      37.390  13.167 117.830 -0.40 -0.00    +0.000 N 
DOCKED: ATOM      5  H   UNL     1      37.451  12.217 118.081 -0.07 -0.00    +0.000 HD
DOCKED: BRANCH   4   6
DOCKED: ATOM      6  C   UNL     1      37.156  13.484 116.448 -0.35 -0.00    +0.000 A 
DOCKED: ATOM      7  C   UNL     1      35.942  14.084 116.076 -0.30 -0.00    +0.000 A 
DOCKED: ATOM      8  C   UNL     1      35.680  14.380 114.735 -0.22 -0.00    +0.000 A 
DOCKED: ATOM      9  C   UNL     1      36.620  14.065 113.751 -0.26 -0.00    +0.000 A 
DOCKED: ATOM     10  C   UNL     1      37.822  13.448 114.107 -0.29 -0.00    +0.000 A 
DOCKED: ATOM     11  C   UNL     1      38.089  13.150 115.448 -0.45 -0.00    +0.000 A 
DOCKED: ATOM     12  CM  UNL     1      36.885  13.768 115.094 +0.00 -0.00    +0.000 AC
DOCKED: ENDBRANCH   4   6
DOCKED: ENDBRANCH   1   3
DOCKED: BRANCH   1  12
DOCKED: ATOM     13  C   UNL     1      37.064  14.142 121.312 -0.33 -0.00    +0.000 C 
DOCKED: BRANCH  12  13
DOCKED: ATOM     14  C   UNL     1      37.656  14.033 122.728 -0.49 -0.00    +0.000 C 
DOCKED: BRANCH  13  14
DOCKED: ATOM     15  C   UNL     1      36.712  13.352 123.740 -0.52 -0.00    +0.000 C 
DOCKED: BRANCH  14  15
DOCKED: ATOM     16  C   UNL     1      36.843  11.819 123.715 -0.69 -0.00    +0.000 C 
DOCKED: BRANCH  15  16
DOCKED: ATOM     17  C   UNL     1      37.015  11.272 122.292 -0.58 -0.00    +0.000 C 
DOCKED: BRANCH  16  17
DOCKED: ATOM     18  C   UNL     1      36.950   9.774 122.259 -0.62 -0.00    +0.000 C 
DOCKED: ATOM     19  N   UNL     1      37.124   9.014 123.457 -0.57 -0.00    +0.000 N 
DOCKED: ATOM     20  O   UNL     1      37.056   7.664 123.430 -2.64 -0.00    +0.000 OA
DOCKED: ATOM     21  O   UNL     1      36.712   9.184 121.171 -2.63 -0.00    +0.000 OA
DOCKED: ATOM     22  H   UNL     1      37.293   9.478 124.309 -0.60 -0.00    +0.000 HD
DOCKED: ENDBRANCH  16  17
DOCKED: ENDBRANCH  15  16
DOCKED: ENDBRANCH  14  15
DOCKED: ENDBRANCH  13  14
DOCKED: ENDBRANCH  12  13
DOCKED: ENDBRANCH   1  12
DOCKED: TORSDOF 8DOCKED: TER
DOCKED: ENDMDL
________________________________________________________________________________


	BEGINNING GENETIC ALGORITHM DOCKING 49 of 100
Run: 49 Seed: 801491243 178484485 [ Run 49 of 100 GA/GALS ]
Beginning LAMARCKIAN GENETIC ALGORITHM (LGA), with a maximum of 2500000 energy evaluations.

Final-Value: -14.279


	FINAL GENETIC ALGORITHM DOCKED STATE
	_______________________________________________


Detailed state:  trans 39.809 14.881 122.014 quatxyzw 0.521325 0.145224 -0.462378 -0.702380 center 0.108 0.248 -0.022 ntor 8 148.4765 41.6922 43.9617 -175.0823 -48.4470 -152.7687 -136.0121 -160.0055
State:	 39.809  14.881 122.014   0.732  0.204 -0.650 -90.764    148.48   41.69   43.96 -175.08  -48.45 -152.77 -136.01 -160.01

DOCKED: MODEL       49
DOCKED: USER    Run = 49
DOCKED: USER    DPF = ligand_dock.biased.dpf
DOCKED: USER  
DOCKED: USER    Estimated Free Energy of Binding    =  -10.81 kcal/mol  [=(1)+(2)+(3)-(4)]
DOCKED: USER    Estimated Inhibition Constant, Ki   =   11.95 nM (nanomolar)  [Temperature = 298.15 K]
DOCKED: USER    
DOCKED: USER    (1) Final Intermolecular Energy     =  -13.19 kcal/mol
DOCKED: USER        vdW + Hbond + desolv Energy     =  -13.19 kcal/mol
DOCKED: USER        Electrostatic Energy            =   +0.00 kcal/mol
DOCKED: USER    (2) Final Total Internal Energy     =   -1.08 kcal/mol
DOCKED: USER    (3) Torsional Free Energy           =   +2.39 kcal/mol
DOCKED: USER    (4) Unbound System's Energy  [=(2)] =   -1.08 kcal/mol
DOCKED: USER    
DOCKED: USER    
DOCKED: USER    NEWDPF move ligand.dum.pdbqt
DOCKED: USER    NEWDPF about 0.108000 0.248000 -0.022000
DOCKED: USER    NEWDPF tran0 39.808709 14.880582 122.014119
DOCKED: USER    NEWDPF quaternion0 0.521325 0.145224 -0.462378 -0.702380
DOCKED: USER    NEWDPF axisangle0 0.732401 0.204024 -0.649587 -90.763533
DOCKED: USER    NEWDPF quat0 0.732401 0.204024 -0.649587 -90.763533
DOCKED: USER    NEWDPF dihe0 148.48 41.69 43.96 -175.08 -48.45 -152.77 -136.01 -160.01 
DOCKED: USER  keepresnum = 1 
DOCKED: USER  
DOCKED: REMARK  Name = 
DOCKED: REMARK  8 active torsions:
DOCKED: REMARK  status: ('A' for Active; 'I' for Inactive)
DOCKED: REMARK    1  A    between atoms: C_2  and  C_10
DOCKED: REMARK    2  A    between atoms: N_3  and  C_4
DOCKED: REMARK    3  A    between atoms: C_10  and  C_11
DOCKED: REMARK    4  A    between atoms: C_11  and  C_12
DOCKED: REMARK    5  A    between atoms: C_12  and  C_13
DOCKED: REMARK    6  A    between atoms: C_13  and  C_14
DOCKED: REMARK    7  A    between atoms: C_14  and  C_15
DOCKED: REMARK    8  A    between atoms: C_15  and  C_16
DOCKED: REMARK                            x       y       z     vdW  Elec       q    Type
DOCKED: REMARK                         _______ _______ _______ _____ _____    ______ ____
DOCKED: USER                              x       y       z     vdW  Elec       q    Type
DOCKED: USER                           _______ _______ _______ _____ _____    ______ ____
DOCKED: ROOT
DOCKED: ATOM      1  C   UNL     1      38.565  15.235 121.258 -0.30 -0.00    +0.000 C 
DOCKED: ENDROOT
DOCKED: BRANCH   1   3
DOCKED: ATOM      2  O   UNL     1      38.427  16.110 123.474 -0.33 -0.00    +0.000 OA
DOCKED: ATOM      3  C   UNL     1      37.799  15.694 122.462 -0.32 -0.00    +0.000 C 
DOCKED: ATOM      4  N   UNL     1      36.363  15.655 122.456 -0.30 -0.00    +0.000 N 
DOCKED: ATOM      5  H   UNL     1      35.920  15.156 121.732 -0.01 -0.00    +0.000 HD
DOCKED: BRANCH   4   6
DOCKED: ATOM      6  C   UNL     1      35.531  16.297 123.436 -0.37 -0.00    +0.000 A 
DOCKED: ATOM      7  C   UNL     1      34.901  15.518 124.421 -0.49 -0.00    +0.000 A 
DOCKED: ATOM      8  C   UNL     1      34.067  16.115 125.370 -0.44 -0.00    +0.000 A 
DOCKED: ATOM      9  C   UNL     1      33.842  17.493 125.337 -0.34 -0.00    +0.000 A 
DOCKED: ATOM     10  C   UNL     1      34.446  18.275 124.349 -0.30 -0.00    +0.000 A 
DOCKED: ATOM     11  C   UNL     1      35.281  17.682 123.396 -0.30 -0.00    +0.000 A 
DOCKED: ATOM     12  CM  UNL     1      34.678  16.896 124.385 -0.21 -0.00    +0.000 AC
DOCKED: ENDBRANCH   4   6
DOCKED: ENDBRANCH   1   3
DOCKED: BRANCH   1  12
DOCKED: ATOM     13  C   UNL     1      38.696  13.708 121.262 -0.36 -0.00    +0.000 C 
DOCKED: BRANCH  12  13
DOCKED: ATOM     14  C   UNL     1      37.429  13.001 121.775 -0.51 -0.00    +0.000 C 
DOCKED: BRANCH  13  14
DOCKED: ATOM     15  C   UNL     1      37.382  12.858 123.310 -0.59 -0.00    +0.000 C 
DOCKED: BRANCH  14  15
DOCKED: ATOM     16  C   UNL     1      36.567  11.630 123.754 -0.70 -0.00    +0.000 C 
DOCKED: BRANCH  15  16
DOCKED: ATOM     17  C   UNL     1      35.974  10.863 122.564 -0.67 -0.00    +0.000 C 
DOCKED: BRANCH  16  17
DOCKED: ATOM     18  C   UNL     1      36.650   9.540 122.360 -0.71 -0.00    +0.000 C 
DOCKED: ATOM     19  N   UNL     1      36.807   8.631 123.452 -0.64 -0.00    +0.000 N 
DOCKED: ATOM     20  O   UNL     1      37.409   7.433 123.267 -2.28 -0.00    +0.000 OA
DOCKED: ATOM     21  O   UNL     1      37.056   9.217 121.211 -2.73 -0.00    +0.000 OA
DOCKED: ATOM     22  H   UNL     1      36.475   8.878 124.345 -0.33 -0.00    +0.000 HD
DOCKED: ENDBRANCH  16  17
DOCKED: ENDBRANCH  15  16
DOCKED: ENDBRANCH  14  15
DOCKED: ENDBRANCH  13  14
DOCKED: ENDBRANCH  12  13
DOCKED: ENDBRANCH   1  12
DOCKED: TORSDOF 8DOCKED: TER
DOCKED: ENDMDL
________________________________________________________________________________


	BEGINNING GENETIC ALGORITHM DOCKING 50 of 100
Run: 50 Seed: 301369484 950293260 [ Run 50 of 100 GA/GALS ]
Beginning LAMARCKIAN GENETIC ALGORITHM (LGA), with a maximum of 2500000 energy evaluations.

Final-Value: -13.624


	FINAL GENETIC ALGORITHM DOCKED STATE
	_______________________________________________


Detailed state:  trans 38.183 11.627 121.574 quatxyzw -0.791667 -0.599264 0.115187 -0.029648 center 0.108 0.248 -0.022 ntor 8 160.5133 26.5311 179.9054 -140.8089 -176.3663 -179.0811 66.0721 153.6590
State:	 38.183  11.627 121.574  -0.792 -0.600  0.115 -176.602    160.51   26.53  179.91 -140.81 -176.37 -179.08   66.07  153.66

DOCKED: MODEL       50
DOCKED: USER    Run = 50
DOCKED: USER    DPF = ligand_dock.biased.dpf
DOCKED: USER  
DOCKED: USER    Estimated Free Energy of Binding    =  -10.36 kcal/mol  [=(1)+(2)+(3)-(4)]
DOCKED: USER    Estimated Inhibition Constant, Ki   =   25.34 nM (nanomolar)  [Temperature = 298.15 K]
DOCKED: USER    
DOCKED: USER    (1) Final Intermolecular Energy     =  -12.75 kcal/mol
DOCKED: USER        vdW + Hbond + desolv Energy     =  -12.75 kcal/mol
DOCKED: USER        Electrostatic Energy            =   +0.00 kcal/mol
DOCKED: USER    (2) Final Total Internal Energy     =   -0.87 kcal/mol
DOCKED: USER    (3) Torsional Free Energy           =   +2.39 kcal/mol
DOCKED: USER    (4) Unbound System's Energy  [=(2)] =   -0.87 kcal/mol
DOCKED: USER    
DOCKED: USER    
DOCKED: USER    NEWDPF move ligand.dum.pdbqt
DOCKED: USER    NEWDPF about 0.108000 0.248000 -0.022000
DOCKED: USER    NEWDPF tran0 38.183352 11.626642 121.574273
DOCKED: USER    NEWDPF quaternion0 -0.791667 -0.599264 0.115187 -0.029648
DOCKED: USER    NEWDPF axisangle0 -0.792015 -0.599527 0.115237 -176.602121
DOCKED: USER    NEWDPF quat0 -0.792015 -0.599527 0.115237 -176.602121
DOCKED: USER    NEWDPF dihe0 160.51 26.53 179.91 -140.81 -176.37 -179.08 66.07 153.66 
DOCKED: USER  keepresnum = 1 
DOCKED: USER  
DOCKED: REMARK  Name = 
DOCKED: REMARK  8 active torsions:
DOCKED: REMARK  status: ('A' for Active; 'I' for Inactive)
DOCKED: REMARK    1  A    between atoms: C_2  and  C_10
DOCKED: REMARK    2  A    between atoms: N_3  and  C_4
DOCKED: REMARK    3  A    between atoms: C_10  and  C_11
DOCKED: REMARK    4  A    between atoms: C_11  and  C_12
DOCKED: REMARK    5  A    between atoms: C_12  and  C_13
DOCKED: REMARK    6  A    between atoms: C_13  and  C_14
DOCKED: REMARK    7  A    between atoms: C_14  and  C_15
DOCKED: REMARK    8  A    between atoms: C_15  and  C_16
DOCKED: REMARK                            x       y       z     vdW  Elec       q    Type
DOCKED: REMARK                         _______ _______ _______ _____ _____    ______ ____
DOCKED: USER                              x       y       z     vdW  Elec       q    Type
DOCKED: USER                           _______ _______ _______ _____ _____    ______ ____
DOCKED: ROOT
DOCKED: ATOM      1  C   UNL     1      36.808  11.751 122.154 -0.60 -0.00    +0.000 C 
DOCKED: ENDROOT
DOCKED: BRANCH   1   3
DOCKED: ATOM      2  O   UNL     1      37.121   9.575 121.227 -2.37 -0.00    +0.000 OA
DOCKED: ATOM      3  C   UNL     1      36.479  10.293 122.041 -0.61 -0.00    +0.000 C 
DOCKED: ATOM      4  N   UNL     1      35.439   9.728 122.856 -0.60 -0.00    +0.000 N 
DOCKED: ATOM      5  H   UNL     1      34.843  10.347 123.335 -0.36 -0.00    +0.000 HD
DOCKED: BRANCH   4   6
DOCKED: ATOM      6  C   UNL     1      35.213   8.317 123.017 -0.61 -0.00    +0.000 A 
DOCKED: ATOM      7  C   UNL     1      36.303   7.434 122.952 -0.69 -0.00    +0.000 A 
DOCKED: ATOM      8  C   UNL     1      36.107   6.056 123.081 -0.59 -0.00    +0.000 A 
DOCKED: ATOM      9  C   UNL     1      34.819   5.545 123.260 -0.45 -0.00    +0.000 A 
DOCKED: ATOM     10  C   UNL     1      33.725   6.413 123.305 -0.67 -0.00    +0.000 A 
DOCKED: ATOM     11  C   UNL     1      33.916   7.792 123.176 -0.58 -0.00    +0.000 A 
DOCKED: ATOM     12  CM  UNL     1      35.014   6.926 123.131 +0.00 -0.00    +0.000 AC
DOCKED: ENDBRANCH   4   6
DOCKED: ENDBRANCH   1   3
DOCKED: BRANCH   1  12
DOCKED: ATOM     13  C   UNL     1      36.797  12.407 120.768 -0.46 -0.00    +0.000 C 
DOCKED: BRANCH  12  13
DOCKED: ATOM     14  C   UNL     1      38.153  13.028 120.390 -0.43 -0.00    +0.000 C 
DOCKED: BRANCH  13  14
DOCKED: ATOM     15  C   UNL     1      38.125  14.568 120.312 -0.31 -0.00    +0.000 C 
DOCKED: BRANCH  14  15
DOCKED: ATOM     16  C   UNL     1      38.227  15.221 121.702 -0.32 -0.00    +0.000 C 
DOCKED: BRANCH  15  16
DOCKED: ATOM     17  C   UNL     1      39.093  14.403 122.669 -0.39 -0.00    +0.000 C 
DOCKED: BRANCH  16  17
DOCKED: ATOM     18  C   UNL     1      40.516  14.876 122.681 -0.46 -0.00    +0.000 C 
DOCKED: ATOM     19  N   UNL     1      40.836  16.200 123.116 -0.35 -0.00    +0.000 N 
DOCKED: ATOM     20  O   UNL     1      42.120  16.625 123.136 -0.83 -0.00    +0.000 OA
DOCKED: ATOM     21  O   UNL     1      41.438  14.090 122.332 -1.04 +0.00    +0.000 OA
DOCKED: ATOM     22  H   UNL     1      40.115  16.806 123.404 -0.01 -0.00    +0.000 HD
DOCKED: ENDBRANCH  16  17
DOCKED: ENDBRANCH  15  16
DOCKED: ENDBRANCH  14  15
DOCKED: ENDBRANCH  13  14
DOCKED: ENDBRANCH  12  13
DOCKED: ENDBRANCH   1  12
DOCKED: TORSDOF 8DOCKED: TER
DOCKED: ENDMDL
________________________________________________________________________________


	BEGINNING GENETIC ALGORITHM DOCKING 51 of 100
Run: 51 Seed: 1902736771 1785903740 [ Run 51 of 100 GA/GALS ]
Beginning LAMARCKIAN GENETIC ALGORITHM (LGA), with a maximum of 2500000 energy evaluations.

Final-Value: -13.629


	FINAL GENETIC ALGORITHM DOCKED STATE
	_______________________________________________


Detailed state:  trans 39.267 15.759 121.130 quatxyzw 0.126815 0.580046 0.111547 0.796882 center 0.108 0.248 -0.022 ntor 8 -136.2990 163.8580 -108.4312 -33.6853 -172.4865 -168.0034 -46.1454 172.5158
State:	 39.267  15.759 121.130   0.210  0.960  0.185 74.333   -136.30  163.86 -108.43  -33.69 -172.49 -168.00  -46.15  172.52

DOCKED: MODEL       51
DOCKED: USER    Run = 51
DOCKED: USER    DPF = ligand_dock.biased.dpf
DOCKED: USER  
DOCKED: USER    Estimated Free Energy of Binding    =  -10.21 kcal/mol  [=(1)+(2)+(3)-(4)]
DOCKED: USER    Estimated Inhibition Constant, Ki   =   32.76 nM (nanomolar)  [Temperature = 298.15 K]
DOCKED: USER    
DOCKED: USER    (1) Final Intermolecular Energy     =  -12.60 kcal/mol
DOCKED: USER        vdW + Hbond + desolv Energy     =  -12.60 kcal/mol
DOCKED: USER        Electrostatic Energy            =   +0.00 kcal/mol
DOCKED: USER    (2) Final Total Internal Energy     =   -1.03 kcal/mol
DOCKED: USER    (3) Torsional Free Energy           =   +2.39 kcal/mol
DOCKED: USER    (4) Unbound System's Energy  [=(2)] =   -1.03 kcal/mol
DOCKED: USER    
DOCKED: USER    
DOCKED: USER    NEWDPF move ligand.dum.pdbqt
DOCKED: USER    NEWDPF about 0.108000 0.248000 -0.022000
DOCKED: USER    NEWDPF tran0 39.266818 15.759145 121.130240
DOCKED: USER    NEWDPF quaternion0 0.126815 0.580046 0.111547 0.796882
DOCKED: USER    NEWDPF axisangle0 0.209913 0.960127 0.184640 74.333155
DOCKED: USER    NEWDPF quat0 0.209913 0.960127 0.184640 74.333155
DOCKED: USER    NEWDPF dihe0 -136.30 163.86 -108.43 -33.69 -172.49 -168.00 -46.15 172.52 
DOCKED: USER  keepresnum = 1 
DOCKED: USER  
DOCKED: REMARK  Name = 
DOCKED: REMARK  8 active torsions:
DOCKED: REMARK  status: ('A' for Active; 'I' for Inactive)
DOCKED: REMARK    1  A    between atoms: C_2  and  C_10
DOCKED: REMARK    2  A    between atoms: N_3  and  C_4
DOCKED: REMARK    3  A    between atoms: C_10  and  C_11
DOCKED: REMARK    4  A    between atoms: C_11  and  C_12
DOCKED: REMARK    5  A    between atoms: C_12  and  C_13
DOCKED: REMARK    6  A    between atoms: C_13  and  C_14
DOCKED: REMARK    7  A    between atoms: C_14  and  C_15
DOCKED: REMARK    8  A    between atoms: C_15  and  C_16
DOCKED: REMARK                            x       y       z     vdW  Elec       q    Type
DOCKED: REMARK                         _______ _______ _______ _____ _____    ______ ____
DOCKED: USER                              x       y       z     vdW  Elec       q    Type
DOCKED: USER                           _______ _______ _______ _____ _____    ______ ____
DOCKED: ROOT
DOCKED: ATOM      1  C   UNL     1      38.950  14.322 120.852 -0.33 -0.00    +0.000 C 
DOCKED: ENDROOT
DOCKED: BRANCH   1   3
DOCKED: ATOM      2  O   UNL     1      38.133  15.771 119.141 -0.17 -0.00    +0.000 OA
DOCKED: ATOM      3  C   UNL     1      38.266  14.584 119.544 -0.25 -0.00    +0.000 C 
DOCKED: ATOM      4  N   UNL     1      37.767  13.485 118.763 -0.35 -0.00    +0.000 N 
DOCKED: ATOM      5  H   UNL     1      37.723  12.600 119.191 -0.09 -0.00    +0.000 HD
DOCKED: BRANCH   4   6
DOCKED: ATOM      6  C   UNL     1      37.331  13.594 117.398 -0.36 -0.00    +0.000 A 
DOCKED: ATOM      7  C   UNL     1      38.173  13.144 116.368 -0.40 -0.00    +0.000 A 
DOCKED: ATOM      8  C   UNL     1      37.782  13.261 115.031 -0.41 -0.00    +0.000 A 
DOCKED: ATOM      9  C   UNL     1      36.554  13.844 114.709 -0.29 -0.00    +0.000 A 
DOCKED: ATOM     10  C   UNL     1      35.717  14.315 115.724 -0.26 -0.00    +0.000 A 
DOCKED: ATOM     11  C   UNL     1      36.104  14.200 117.063 -0.32 -0.00    +0.000 A 
DOCKED: ATOM     12  CM  UNL     1      36.944  13.726 116.049 +0.00 -0.00    +0.000 AC
DOCKED: ENDBRANCH   4   6
DOCKED: ENDBRANCH   1   3
DOCKED: BRANCH   1  12
DOCKED: ATOM     13  C   UNL     1      38.065  14.783 122.015 -0.38 -0.00    +0.000 C 
DOCKED: BRANCH  12  13
DOCKED: ATOM     14  C   UNL     1      37.855  13.689 123.077 -0.53 -0.00    +0.000 C 
DOCKED: BRANCH  13  14
DOCKED: ATOM     15  C   UNL     1      36.491  12.977 122.965 -0.59 -0.00    +0.000 C 
DOCKED: BRANCH  14  15
DOCKED: ATOM     16  C   UNL     1      36.517  11.833 121.936 -0.58 -0.00    +0.000 C 
DOCKED: BRANCH  15  16
DOCKED: ATOM     17  C   UNL     1      35.730  10.604 122.411 -0.65 -0.00    +0.000 C 
DOCKED: BRANCH  16  17
DOCKED: ATOM     18  C   UNL     1      36.544   9.348 122.312 -0.72 -0.00    +0.000 C 
DOCKED: ATOM     19  N   UNL     1      36.712   8.503 123.453 -0.65 -0.00    +0.000 N 
DOCKED: ATOM     20  O   UNL     1      37.438   7.365 123.363 -2.28 -0.00    +0.000 OA
DOCKED: ATOM     21  O   UNL     1      37.058   9.022 121.208 -2.71 -0.00    +0.000 OA
DOCKED: ATOM     22  H   UNL     1      36.296   8.751 124.310 -0.28 -0.00    +0.000 HD
DOCKED: ENDBRANCH  16  17
DOCKED: ENDBRANCH  15  16
DOCKED: ENDBRANCH  14  15
DOCKED: ENDBRANCH  13  14
DOCKED: ENDBRANCH  12  13
DOCKED: ENDBRANCH   1  12
DOCKED: TORSDOF 8DOCKED: TER
DOCKED: ENDMDL
________________________________________________________________________________


	BEGINNING GENETIC ALGORITHM DOCKING 52 of 100
Run: 52 Seed: 1591681835 657885135 [ Run 52 of 100 GA/GALS ]
Beginning LAMARCKIAN GENETIC ALGORITHM (LGA), with a maximum of 2500000 energy evaluations.

Final-Value: -14.358


	FINAL GENETIC ALGORITHM DOCKED STATE
	_______________________________________________


Detailed state:  trans 39.571 14.980 121.779 quatxyzw -0.512783 -0.194143 0.474707 0.688488 center 0.108 0.248 -0.022 ntor 8 153.0141 41.6747 -140.8244 -169.3330 -51.3874 -151.9644 -136.0466 -170.2904
State:	 39.571  14.980 121.779  -0.707 -0.268  0.655 92.979    153.01   41.67 -140.82 -169.33  -51.39 -151.96 -136.05 -170.29

DOCKED: MODEL       52
DOCKED: USER    Run = 52
DOCKED: USER    DPF = ligand_dock.biased.dpf
DOCKED: USER  
DOCKED: USER    Estimated Free Energy of Binding    =  -10.87 kcal/mol  [=(1)+(2)+(3)-(4)]
DOCKED: USER    Estimated Inhibition Constant, Ki   =   10.73 nM (nanomolar)  [Temperature = 298.15 K]
DOCKED: USER    
DOCKED: USER    (1) Final Intermolecular Energy     =  -13.26 kcal/mol
DOCKED: USER        vdW + Hbond + desolv Energy     =  -13.26 kcal/mol
DOCKED: USER        Electrostatic Energy            =   +0.00 kcal/mol
DOCKED: USER    (2) Final Total Internal Energy     =   -1.10 kcal/mol
DOCKED: USER    (3) Torsional Free Energy           =   +2.39 kcal/mol
DOCKED: USER    (4) Unbound System's Energy  [=(2)] =   -1.10 kcal/mol
DOCKED: USER    
DOCKED: USER    
DOCKED: USER    NEWDPF move ligand.dum.pdbqt
DOCKED: USER    NEWDPF about 0.108000 0.248000 -0.022000
DOCKED: USER    NEWDPF tran0 39.571450 14.979624 121.778973
DOCKED: USER    NEWDPF quaternion0 -0.512783 -0.194143 0.474707 0.688488
DOCKED: USER    NEWDPF axisangle0 -0.707045 -0.267692 0.654544 92.978942
DOCKED: USER    NEWDPF quat0 -0.707045 -0.267692 0.654544 92.978942
DOCKED: USER    NEWDPF dihe0 153.01 41.67 -140.82 -169.33 -51.39 -151.96 -136.05 -170.29 
DOCKED: USER  keepresnum = 1 
DOCKED: USER  
DOCKED: REMARK  Name = 
DOCKED: REMARK  8 active torsions:
DOCKED: REMARK  status: ('A' for Active; 'I' for Inactive)
DOCKED: REMARK    1  A    between atoms: C_2  and  C_10
DOCKED: REMARK    2  A    between atoms: N_3  and  C_4
DOCKED: REMARK    3  A    between atoms: C_10  and  C_11
DOCKED: REMARK    4  A    between atoms: C_11  and  C_12
DOCKED: REMARK    5  A    between atoms: C_12  and  C_13
DOCKED: REMARK    6  A    between atoms: C_13  and  C_14
DOCKED: REMARK    7  A    between atoms: C_14  and  C_15
DOCKED: REMARK    8  A    between atoms: C_15  and  C_16
DOCKED: REMARK                            x       y       z     vdW  Elec       q    Type
DOCKED: REMARK                         _______ _______ _______ _____ _____    ______ ____
DOCKED: USER                              x       y       z     vdW  Elec       q    Type
DOCKED: USER                           _______ _______ _______ _____ _____    ______ ____
DOCKED: ROOT
DOCKED: ATOM      1  C   UNL     1      38.255  15.335 121.158 -0.27 -0.00    +0.000 C 
DOCKED: ENDROOT
DOCKED: BRANCH   1   3
DOCKED: ATOM      2  O   UNL     1      38.306  15.921 123.471 -0.35 -0.00    +0.000 OA
DOCKED: ATOM      3  C   UNL     1      37.596  15.722 122.448 -0.32 -0.00    +0.000 C 
DOCKED: ATOM      4  N   UNL     1      36.167  15.860 122.509 -0.29 -0.00    +0.000 N 
DOCKED: ATOM      5  H   UNL     1      35.639  15.519 121.751 -0.00 -0.00    +0.000 HD
DOCKED: BRANCH   4   6
DOCKED: ATOM      6  C   UNL     1      35.458  16.465 123.603 -0.37 -0.00    +0.000 A 
DOCKED: ATOM      7  C   UNL     1      35.553  17.852 123.802 -0.27 -0.00    +0.000 A 
DOCKED: ATOM      8  C   UNL     1      34.893  18.461 124.874 -0.27 -0.00    +0.000 A 
DOCKED: ATOM      9  C   UNL     1      34.146  17.689 125.766 -0.35 -0.00    +0.000 A 
DOCKED: ATOM     10  C   UNL     1      34.062  16.305 125.591 -0.41 -0.00    +0.000 A 
DOCKED: ATOM     11  C   UNL     1      34.721  15.692 124.521 -0.50 -0.00    +0.000 A 
DOCKED: ATOM     12  CM  UNL     1      34.806  17.078 124.693 -0.32 -0.00    +0.000 AC
DOCKED: ENDBRANCH   4   6
DOCKED: ENDBRANCH   1   3
DOCKED: BRANCH   1  12
DOCKED: ATOM     13  C   UNL     1      38.418  13.813 121.081 -0.40 -0.00    +0.000 C 
DOCKED: BRANCH  12  13
DOCKED: ATOM     14  C   UNL     1      37.221  13.052 121.678 -0.50 -0.00    +0.000 C 
DOCKED: BRANCH  13  14
DOCKED: ATOM     15  C   UNL     1      37.312  12.859 123.205 -0.59 -0.00    +0.000 C 
DOCKED: BRANCH  14  15
DOCKED: ATOM     16  C   UNL     1      36.513  11.635 123.685 -0.70 -0.00    +0.000 C 
DOCKED: BRANCH  15  16
DOCKED: ATOM     17  C   UNL     1      35.910  10.840 122.519 -0.66 -0.00    +0.000 C 
DOCKED: BRANCH  16  17
DOCKED: ATOM     18  C   UNL     1      36.594   9.517 122.333 -0.71 -0.00    +0.000 C 
DOCKED: ATOM     19  N   UNL     1      36.687   8.591 123.418 -0.64 -0.00    +0.000 N 
DOCKED: ATOM     20  O   UNL     1      37.295   7.395 123.249 -2.30 -0.00    +0.000 OA
DOCKED: ATOM     21  O   UNL     1      37.063   9.211 121.204 -2.74 -0.00    +0.000 OA
DOCKED: ATOM     22  H   UNL     1      36.305   8.826 124.294 -0.29 -0.00    +0.000 HD
DOCKED: ENDBRANCH  16  17
DOCKED: ENDBRANCH  15  16
DOCKED: ENDBRANCH  14  15
DOCKED: ENDBRANCH  13  14
DOCKED: ENDBRANCH  12  13
DOCKED: ENDBRANCH   1  12
DOCKED: TORSDOF 8DOCKED: TER
DOCKED: ENDMDL
________________________________________________________________________________


	BEGINNING GENETIC ALGORITHM DOCKING 53 of 100
Run: 53 Seed: 997735452 74055521 [ Run 53 of 100 GA/GALS ]
Beginning LAMARCKIAN GENETIC ALGORITHM (LGA), with a maximum of 2500000 energy evaluations.

Final-Value: -13.091


	FINAL GENETIC ALGORITHM DOCKED STATE
	_______________________________________________


Detailed state:  trans 38.087 11.442 121.789 quatxyzw 0.768650 0.527130 -0.125632 0.339893 center 0.108 0.248 -0.022 ntor 8 -178.0393 -179.1276 -107.7969 -45.7906 30.0190 -173.1023 66.6647 -176.4096
State:	 38.087  11.442 121.789   0.817  0.561 -0.134 140.259   -178.04 -179.13 -107.80  -45.79   30.02 -173.10   66.66 -176.41

DOCKED: MODEL       53
DOCKED: USER    Run = 53
DOCKED: USER    DPF = ligand_dock.biased.dpf
DOCKED: USER  
DOCKED: USER    Estimated Free Energy of Binding    =   -9.68 kcal/mol  [=(1)+(2)+(3)-(4)]
DOCKED: USER    Estimated Inhibition Constant, Ki   =   80.85 nM (nanomolar)  [Temperature = 298.15 K]
DOCKED: USER    
DOCKED: USER    (1) Final Intermolecular Energy     =  -12.06 kcal/mol
DOCKED: USER        vdW + Hbond + desolv Energy     =  -12.06 kcal/mol
DOCKED: USER        Electrostatic Energy            =   +0.00 kcal/mol
DOCKED: USER    (2) Final Total Internal Energy     =   -1.03 kcal/mol
DOCKED: USER    (3) Torsional Free Energy           =   +2.39 kcal/mol
DOCKED: USER    (4) Unbound System's Energy  [=(2)] =   -1.03 kcal/mol
DOCKED: USER    
DOCKED: USER    
DOCKED: USER    NEWDPF move ligand.dum.pdbqt
DOCKED: USER    NEWDPF about 0.108000 0.248000 -0.022000
DOCKED: USER    NEWDPF tran0 38.087191 11.442090 121.788945
DOCKED: USER    NEWDPF quaternion0 0.768650 0.527130 -0.125632 0.339893
DOCKED: USER    NEWDPF axisangle0 0.817309 0.560500 -0.133585 140.259245
DOCKED: USER    NEWDPF quat0 0.817309 0.560500 -0.133585 140.259245
DOCKED: USER    NEWDPF dihe0 -178.04 -179.13 -107.80 -45.79 30.02 -173.10 66.66 -176.41 
DOCKED: USER  keepresnum = 1 
DOCKED: USER  
DOCKED: REMARK  Name = 
DOCKED: REMARK  8 active torsions:
DOCKED: REMARK  status: ('A' for Active; 'I' for Inactive)
DOCKED: REMARK    1  A    between atoms: C_2  and  C_10
DOCKED: REMARK    2  A    between atoms: N_3  and  C_4
DOCKED: REMARK    3  A    between atoms: C_10  and  C_11
DOCKED: REMARK    4  A    between atoms: C_11  and  C_12
DOCKED: REMARK    5  A    between atoms: C_12  and  C_13
DOCKED: REMARK    6  A    between atoms: C_13  and  C_14
DOCKED: REMARK    7  A    between atoms: C_14  and  C_15
DOCKED: REMARK    8  A    between atoms: C_15  and  C_16
DOCKED: REMARK                            x       y       z     vdW  Elec       q    Type
DOCKED: REMARK                         _______ _______ _______ _____ _____    ______ ____
DOCKED: USER                              x       y       z     vdW  Elec       q    Type
DOCKED: USER                           _______ _______ _______ _____ _____    ______ ____
DOCKED: ROOT
DOCKED: ATOM      1  C   UNL     1      37.066  11.357 122.881 -0.63 -0.00    +0.000 C 
DOCKED: ENDROOT
DOCKED: BRANCH   1   3
DOCKED: ATOM      2  O   UNL     1      36.892   9.527 121.360 -2.30 -0.00    +0.000 OA
DOCKED: ATOM      3  C   UNL     1      36.376  10.146 122.330 -0.68 -0.00    +0.000 C 
DOCKED: ATOM      4  N   UNL     1      35.137   9.702 122.906 -0.58 -0.00    +0.000 N 
DOCKED: ATOM      5  H   UNL     1      34.676  10.308 123.529 -0.42 -0.00    +0.000 HD
DOCKED: BRANCH   4   6
DOCKED: ATOM      6  C   UNL     1      34.528   8.429 122.634 -0.61 -0.00    +0.000 A 
DOCKED: ATOM      7  C   UNL     1      34.618   7.404 123.589 -0.64 -0.00    +0.000 A 
DOCKED: ATOM      8  C   UNL     1      34.055   6.149 123.338 -0.60 -0.00    +0.000 A 
DOCKED: ATOM      9  C   UNL     1      33.411   5.901 122.124 -0.56 -0.00    +0.000 A 
DOCKED: ATOM     10  C   UNL     1      33.333   6.906 121.157 -0.41 -0.00    +0.000 A 
DOCKED: ATOM     11  C   UNL     1      33.895   8.163 121.404 -0.58 -0.00    +0.000 A 
DOCKED: ATOM     12  CM  UNL     1      33.974   7.158 122.374 +0.00 -0.00    +0.000 AC
DOCKED: ENDBRANCH   4   6
DOCKED: ENDBRANCH   1   3
DOCKED: BRANCH   1  12
DOCKED: ATOM     13  C   UNL     1      36.742  12.588 122.026 -0.54 -0.00    +0.000 C 
DOCKED: BRANCH  12  13
DOCKED: ATOM     14  C   UNL     1      37.993  13.227 121.399 -0.44 -0.00    +0.000 C 
DOCKED: BRANCH  13  14
DOCKED: ATOM     15  C   UNL     1      38.411  14.551 122.070 -0.42 -0.00    +0.000 C 
DOCKED: BRANCH  14  15
DOCKED: ATOM     16  C   UNL     1      37.463  15.709 121.709 -0.26 -0.00    +0.000 C 
DOCKED: BRANCH  15  16
DOCKED: ATOM     17  C   UNL     1      36.941  16.443 122.952 -0.30 -0.00    +0.000 C 
DOCKED: BRANCH  16  17
DOCKED: ATOM     18  C   UNL     1      35.473  16.214 123.160 -0.41 -0.00    +0.000 C 
DOCKED: ATOM     19  N   UNL     1      35.013  15.049 123.849 -0.55 -0.00    +0.000 N 
DOCKED: ATOM     20  O   UNL     1      33.690  14.846 124.046 -0.68 -0.00    +0.000 OA
DOCKED: ATOM     21  O   UNL     1      34.644  17.070 122.750 -0.41 -0.00    +0.000 OA
DOCKED: ATOM     22  H   UNL     1      35.664  14.390 124.183 -0.05 -0.00    +0.000 HD
DOCKED: ENDBRANCH  16  17
DOCKED: ENDBRANCH  15  16
DOCKED: ENDBRANCH  14  15
DOCKED: ENDBRANCH  13  14
DOCKED: ENDBRANCH  12  13
DOCKED: ENDBRANCH   1  12
DOCKED: TORSDOF 8DOCKED: TER
DOCKED: ENDMDL
________________________________________________________________________________


	BEGINNING GENETIC ALGORITHM DOCKING 54 of 100
Run: 54 Seed: 1439158987 1592115313 [ Run 54 of 100 GA/GALS ]
Beginning LAMARCKIAN GENETIC ALGORITHM (LGA), with a maximum of 2500000 energy evaluations.

Final-Value: -13.563


	FINAL GENETIC ALGORITHM DOCKED STATE
	_______________________________________________


Detailed state:  trans 37.936 11.762 121.913 quatxyzw 0.779809 0.624126 -0.026678 -0.040647 center 0.108 0.248 -0.022 ntor 8 -58.0379 -140.8017 3.5375 -29.1199 172.6639 -178.3488 82.0180 149.0388
State:	 37.936  11.762 121.913   0.780  0.625 -0.027 -175.341    -58.04 -140.80    3.54  -29.12  172.66 -178.35   82.02  149.04

DOCKED: MODEL       54
DOCKED: USER    Run = 54
DOCKED: USER    DPF = ligand_dock.biased.dpf
DOCKED: USER  
DOCKED: USER    Estimated Free Energy of Binding    =  -10.41 kcal/mol  [=(1)+(2)+(3)-(4)]
DOCKED: USER    Estimated Inhibition Constant, Ki   =   23.29 nM (nanomolar)  [Temperature = 298.15 K]
DOCKED: USER    
DOCKED: USER    (1) Final Intermolecular Energy     =  -12.80 kcal/mol
DOCKED: USER        vdW + Hbond + desolv Energy     =  -12.80 kcal/mol
DOCKED: USER        Electrostatic Energy            =   +0.00 kcal/mol
DOCKED: USER    (2) Final Total Internal Energy     =   -0.76 kcal/mol
DOCKED: USER    (3) Torsional Free Energy           =   +2.39 kcal/mol
DOCKED: USER    (4) Unbound System's Energy  [=(2)] =   -0.76 kcal/mol
DOCKED: USER    
DOCKED: USER    
DOCKED: USER    NEWDPF move ligand.dum.pdbqt
DOCKED: USER    NEWDPF about 0.108000 0.248000 -0.022000
DOCKED: USER    NEWDPF tran0 37.935521 11.761969 121.913410
DOCKED: USER    NEWDPF quaternion0 0.779809 0.624126 -0.026678 -0.040647
DOCKED: USER    NEWDPF axisangle0 0.780454 0.624642 -0.026701 -175.340856
DOCKED: USER    NEWDPF quat0 0.780454 0.624642 -0.026701 -175.340856
DOCKED: USER    NEWDPF dihe0 -58.04 -140.80 3.54 -29.12 172.66 -178.35 82.02 149.04 
DOCKED: USER  keepresnum = 1 
DOCKED: USER  
DOCKED: REMARK  Name = 
DOCKED: REMARK  8 active torsions:
DOCKED: REMARK  status: ('A' for Active; 'I' for Inactive)
DOCKED: REMARK    1  A    between atoms: C_2  and  C_10
DOCKED: REMARK    2  A    between atoms: N_3  and  C_4
DOCKED: REMARK    3  A    between atoms: C_10  and  C_11
DOCKED: REMARK    4  A    between atoms: C_11  and  C_12
DOCKED: REMARK    5  A    between atoms: C_12  and  C_13
DOCKED: REMARK    6  A    between atoms: C_13  and  C_14
DOCKED: REMARK    7  A    between atoms: C_14  and  C_15
DOCKED: REMARK    8  A    between atoms: C_15  and  C_16
DOCKED: REMARK                            x       y       z     vdW  Elec       q    Type
DOCKED: REMARK                         _______ _______ _______ _____ _____    ______ ____
DOCKED: USER                              x       y       z     vdW  Elec       q    Type
DOCKED: USER                           _______ _______ _______ _____ _____    ______ ____
DOCKED: ROOT
DOCKED: ATOM      1  C   UNL     1      36.461  11.794 122.173 -0.61 -0.00    +0.000 C 
DOCKED: ENDROOT
DOCKED: BRANCH   1   3
DOCKED: ATOM      2  O   UNL     1      37.062   9.664 121.279 -2.26 -0.00    +0.000 OA
DOCKED: ATOM      3  C   UNL     1      36.260  10.318 121.999 -0.57 -0.00    +0.000 C 
DOCKED: ATOM      4  N   UNL     1      35.158   9.663 122.649 -0.60 -0.00    +0.000 N 
DOCKED: ATOM      5  H   UNL     1      34.455  10.228 123.043 -0.36 -0.00    +0.000 HD
DOCKED: BRANCH   4   6
DOCKED: ATOM      6  C   UNL     1      35.015   8.238 122.761 -0.61 -0.00    +0.000 A 
DOCKED: ATOM      7  C   UNL     1      33.733   7.668 122.707 -0.64 -0.00    +0.000 A 
DOCKED: ATOM      8  C   UNL     1      33.565   6.286 122.839 -0.67 -0.00    +0.000 A 
DOCKED: ATOM      9  C   UNL     1      34.675   5.462 123.041 -0.37 -0.00    +0.000 A 
DOCKED: ATOM     10  C   UNL     1      35.954   6.020 123.118 -0.61 -0.00    +0.000 A 
DOCKED: ATOM     11  C   UNL     1      36.126   7.402 122.987 -0.69 -0.00    +0.000 A 
DOCKED: ATOM     12  CM  UNL     1      34.845   6.846 122.909 +0.00 -0.00    +0.000 AC
DOCKED: ENDBRANCH   4   6
DOCKED: ENDBRANCH   1   3
DOCKED: BRANCH   1  12
DOCKED: ATOM     13  C   UNL     1      36.715  12.458 120.816 -0.45 -0.00    +0.000 C 
DOCKED: BRANCH  12  13
DOCKED: ATOM     14  C   UNL     1      38.194  12.823 120.596 -0.43 -0.00    +0.000 C 
DOCKED: BRANCH  13  14
DOCKED: ATOM     15  C   UNL     1      38.459  14.342 120.584 -0.34 -0.00    +0.000 C 
DOCKED: BRANCH  14  15
DOCKED: ATOM     16  C   UNL     1      38.272  14.975 121.975 -0.37 -0.00    +0.000 C 
DOCKED: BRANCH  15  16
DOCKED: ATOM     17  C   UNL     1      39.264  16.116 122.235 -0.27 -0.00    +0.000 C 
DOCKED: BRANCH  16  17
DOCKED: ATOM     18  C   UNL     1      40.653  15.603 122.476 -0.42 -0.00    +0.000 C 
DOCKED: ATOM     19  N   UNL     1      41.592  16.380 123.222 -0.39 -0.00    +0.000 N 
DOCKED: ATOM     20  O   UNL     1      42.842  15.915 123.448 -1.06 +0.00    +0.000 OA
DOCKED: ATOM     21  O   UNL     1      40.983  14.467 122.041 -1.07 -0.00    +0.000 OA
DOCKED: ATOM     22  H   UNL     1      41.327  17.260 123.575 -0.02 -0.00    +0.000 HD
DOCKED: ENDBRANCH  16  17
DOCKED: ENDBRANCH  15  16
DOCKED: ENDBRANCH  14  15
DOCKED: ENDBRANCH  13  14
DOCKED: ENDBRANCH  12  13
DOCKED: ENDBRANCH   1  12
DOCKED: TORSDOF 8DOCKED: TER
DOCKED: ENDMDL
________________________________________________________________________________


	BEGINNING GENETIC ALGORITHM DOCKING 55 of 100
Run: 55 Seed: 820793606 2044672174 [ Run 55 of 100 GA/GALS ]
Beginning LAMARCKIAN GENETIC ALGORITHM (LGA), with a maximum of 2500000 energy evaluations.

Final-Value: -13.862


	FINAL GENETIC ALGORITHM DOCKED STATE
	_______________________________________________


Detailed state:  trans 39.148 15.137 120.878 quatxyzw -0.741840 -0.216079 0.450002 0.447752 center 0.108 0.248 -0.022 ntor 8 -164.0349 31.1292 -96.2422 -84.1472 -126.8261 -177.4634 -174.2029 179.7065
State:	 39.148  15.137 120.878  -0.830 -0.242  0.503 126.801   -164.03   31.13  -96.24  -84.15 -126.83 -177.46 -174.20  179.71

DOCKED: MODEL       55
DOCKED: USER    Run = 55
DOCKED: USER    DPF = ligand_dock.biased.dpf
DOCKED: USER  
DOCKED: USER    Estimated Free Energy of Binding    =  -10.35 kcal/mol  [=(1)+(2)+(3)-(4)]
DOCKED: USER    Estimated Inhibition Constant, Ki   =   25.84 nM (nanomolar)  [Temperature = 298.15 K]
DOCKED: USER    
DOCKED: USER    (1) Final Intermolecular Energy     =  -12.74 kcal/mol
DOCKED: USER        vdW + Hbond + desolv Energy     =  -12.74 kcal/mol
DOCKED: USER        Electrostatic Energy            =   +0.00 kcal/mol
DOCKED: USER    (2) Final Total Internal Energy     =   -1.12 kcal/mol
DOCKED: USER    (3) Torsional Free Energy           =   +2.39 kcal/mol
DOCKED: USER    (4) Unbound System's Energy  [=(2)] =   -1.12 kcal/mol
DOCKED: USER    
DOCKED: USER    
DOCKED: USER    NEWDPF move ligand.dum.pdbqt
DOCKED: USER    NEWDPF about 0.108000 0.248000 -0.022000
DOCKED: USER    NEWDPF tran0 39.148240 15.137416 120.877831
DOCKED: USER    NEWDPF quaternion0 -0.741840 -0.216079 0.450002 0.447752
DOCKED: USER    NEWDPF axisangle0 -0.829652 -0.241657 0.503269 126.800911
DOCKED: USER    NEWDPF quat0 -0.829652 -0.241657 0.503269 126.800911
DOCKED: USER    NEWDPF dihe0 -164.03 31.13 -96.24 -84.15 -126.83 -177.46 -174.20 179.71 
DOCKED: USER  keepresnum = 1 
DOCKED: USER  
DOCKED: REMARK  Name = 
DOCKED: REMARK  8 active torsions:
DOCKED: REMARK  status: ('A' for Active; 'I' for Inactive)
DOCKED: REMARK    1  A    between atoms: C_2  and  C_10
DOCKED: REMARK    2  A    between atoms: N_3  and  C_4
DOCKED: REMARK    3  A    between atoms: C_10  and  C_11
DOCKED: REMARK    4  A    between atoms: C_11  and  C_12
DOCKED: REMARK    5  A    between atoms: C_12  and  C_13
DOCKED: REMARK    6  A    between atoms: C_13  and  C_14
DOCKED: REMARK    7  A    between atoms: C_14  and  C_15
DOCKED: REMARK    8  A    between atoms: C_15  and  C_16
DOCKED: REMARK                            x       y       z     vdW  Elec       q    Type
DOCKED: REMARK                         _______ _______ _______ _____ _____    ______ ____
DOCKED: USER                              x       y       z     vdW  Elec       q    Type
DOCKED: USER                           _______ _______ _______ _____ _____    ______ ____
DOCKED: ROOT
DOCKED: ATOM      1  C   UNL     1      38.079  16.127 120.529 -0.18 -0.00    +0.000 C 
DOCKED: ENDROOT
DOCKED: BRANCH   1   3
DOCKED: ATOM      2  O   UNL     1      37.736  15.159 122.683 -0.38 -0.00    +0.000 OA
DOCKED: ATOM      3  C   UNL     1      37.284  15.917 121.782 -0.25 -0.00    +0.000 C 
DOCKED: ATOM      4  N   UNL     1      36.018  16.576 121.946 -0.24 -0.00    +0.000 N 
DOCKED: ATOM      5  H   UNL     1      35.616  17.004 121.156 -0.01 -0.00    +0.000 HD
DOCKED: BRANCH   4   6
DOCKED: ATOM      6  C   UNL     1      35.300  16.652 123.189 -0.35 -0.00    +0.000 A 
DOCKED: ATOM      7  C   UNL     1      35.105  17.903 123.796 -0.30 -0.00    +0.000 A 
DOCKED: ATOM      8  C   UNL     1      34.432  18.002 125.018 -0.33 -0.00    +0.000 A 
DOCKED: ATOM      9  C   UNL     1      33.960  16.850 125.652 -0.37 -0.00    +0.000 A 
DOCKED: ATOM     10  C   UNL     1      34.167  15.597 125.068 -0.43 -0.00    +0.000 A 
DOCKED: ATOM     11  C   UNL     1      34.840  15.494 123.846 -0.51 -0.00    +0.000 A 
DOCKED: ATOM     12  CM  UNL     1      34.634  16.750 124.428 -0.17 -0.00    +0.000 AC
DOCKED: ENDBRANCH   4   6
DOCKED: ENDBRANCH   1   3
DOCKED: BRANCH   1  12
DOCKED: ATOM     13  C   UNL     1      37.928  14.920 119.596 -0.26 -0.00    +0.000 C 
DOCKED: BRANCH  12  13
DOCKED: ATOM     14  C   UNL     1      37.023  13.822 120.180 -0.33 -0.00    +0.000 C 
DOCKED: BRANCH  13  14
DOCKED: ATOM     15  C   UNL     1      37.785  12.540 120.574 -0.51 -0.00    +0.000 C 
DOCKED: BRANCH  14  15
DOCKED: ATOM     16  C   UNL     1      37.447  12.080 122.004 -0.45 -0.00    +0.000 C 
DOCKED: BRANCH  15  16
DOCKED: ATOM     17  C   UNL     1      36.249  11.123 122.041 -0.61 -0.00    +0.000 C 
DOCKED: BRANCH  16  17
DOCKED: ATOM     18  C   UNL     1      36.682   9.689 122.123 -0.68 -0.00    +0.000 C 
DOCKED: ATOM     19  N   UNL     1      36.706   9.011 123.381 -0.58 -0.00    +0.000 N 
DOCKED: ATOM     20  O   UNL     1      37.088   7.715 123.455 -2.69 -0.00    +0.000 OA
DOCKED: ATOM     21  O   UNL     1      36.999   9.073 121.071 -2.70 -0.00    +0.000 OA
DOCKED: ATOM     22  H   UNL     1      36.442   9.490 124.199 -0.40 -0.00    +0.000 HD
DOCKED: ENDBRANCH  16  17
DOCKED: ENDBRANCH  15  16
DOCKED: ENDBRANCH  14  15
DOCKED: ENDBRANCH  13  14
DOCKED: ENDBRANCH  12  13
DOCKED: ENDBRANCH   1  12
DOCKED: TORSDOF 8DOCKED: TER
DOCKED: ENDMDL
________________________________________________________________________________


	BEGINNING GENETIC ALGORITHM DOCKING 56 of 100
Run: 56 Seed: 87002085 1461009350 [ Run 56 of 100 GA/GALS ]
Beginning LAMARCKIAN GENETIC ALGORITHM (LGA), with a maximum of 2500000 energy evaluations.

Final-Value: -12.796


	FINAL GENETIC ALGORITHM DOCKED STATE
	_______________________________________________


Detailed state:  trans 38.731 15.050 121.511 quatxyzw 0.414599 0.226012 -0.542896 -0.694471 center 0.108 0.248 -0.022 ntor 8 93.1463 -179.6598 23.9715 -62.3331 158.9680 24.5956 153.0940 -162.3311
State:	 38.731  15.050 121.511   0.576  0.314 -0.755 -92.030     93.15 -179.66   23.97  -62.33  158.97   24.60  153.09 -162.33

DOCKED: MODEL       56
DOCKED: USER    Run = 56
DOCKED: USER    DPF = ligand_dock.biased.dpf
DOCKED: USER  
DOCKED: USER    Estimated Free Energy of Binding    =   -9.20 kcal/mol  [=(1)+(2)+(3)-(4)]
DOCKED: USER    Estimated Inhibition Constant, Ki   =  179.91 nM (nanomolar)  [Temperature = 298.15 K]
DOCKED: USER    
DOCKED: USER    (1) Final Intermolecular Energy     =  -11.59 kcal/mol
DOCKED: USER        vdW + Hbond + desolv Energy     =  -11.59 kcal/mol
DOCKED: USER        Electrostatic Energy            =   +0.00 kcal/mol
DOCKED: USER    (2) Final Total Internal Energy     =   -1.21 kcal/mol
DOCKED: USER    (3) Torsional Free Energy           =   +2.39 kcal/mol
DOCKED: USER    (4) Unbound System's Energy  [=(2)] =   -1.21 kcal/mol
DOCKED: USER    
DOCKED: USER    
DOCKED: USER    NEWDPF move ligand.dum.pdbqt
DOCKED: USER    NEWDPF about 0.108000 0.248000 -0.022000
DOCKED: USER    NEWDPF tran0 38.731119 15.050005 121.511280
DOCKED: USER    NEWDPF quaternion0 0.414599 0.226012 -0.542896 -0.694471
DOCKED: USER    NEWDPF axisangle0 0.576216 0.314115 -0.754524 -92.029850
DOCKED: USER    NEWDPF quat0 0.576216 0.314115 -0.754524 -92.029850
DOCKED: USER    NEWDPF dihe0 93.15 -179.66 23.97 -62.33 158.97 24.60 153.09 -162.33 
DOCKED: USER  keepresnum = 1 
DOCKED: USER  
DOCKED: REMARK  Name = 
DOCKED: REMARK  8 active torsions:
DOCKED: REMARK  status: ('A' for Active; 'I' for Inactive)
DOCKED: REMARK    1  A    between atoms: C_2  and  C_10
DOCKED: REMARK    2  A    between atoms: N_3  and  C_4
DOCKED: REMARK    3  A    between atoms: C_10  and  C_11
DOCKED: REMARK    4  A    between atoms: C_11  and  C_12
DOCKED: REMARK    5  A    between atoms: C_12  and  C_13
DOCKED: REMARK    6  A    between atoms: C_13  and  C_14
DOCKED: REMARK    7  A    between atoms: C_14  and  C_15
DOCKED: REMARK    8  A    between atoms: C_15  and  C_16
DOCKED: REMARK                            x       y       z     vdW  Elec       q    Type
DOCKED: REMARK                         _______ _______ _______ _____ _____    ______ ____
DOCKED: USER                              x       y       z     vdW  Elec       q    Type
DOCKED: USER                           _______ _______ _______ _____ _____    ______ ____
DOCKED: ROOT
DOCKED: ATOM      1  C   UNL     1      37.317  15.360 121.126 -0.26 -0.00    +0.000 C 
DOCKED: ENDROOT
DOCKED: BRANCH   1   3
DOCKED: ATOM      2  O   UNL     1      37.836  16.389 123.215 -0.30 -0.00    +0.000 OA
DOCKED: ATOM      3  C   UNL     1      36.937  15.937 122.456 -0.30 -0.00    +0.000 C 
DOCKED: ATOM      4  N   UNL     1      35.557  15.969 122.855 -0.34 -0.00    +0.000 N 
DOCKED: ATOM      5  H   UNL     1      34.912  15.445 122.326 +0.01 -0.00    +0.000 HD
DOCKED: BRANCH   4   6
DOCKED: ATOM      6  C   UNL     1      35.055  16.718 123.975 -0.40 -0.00    +0.000 A 
DOCKED: ATOM      7  C   UNL     1      34.323  16.054 124.974 -0.47 -0.00    +0.000 A 
DOCKED: ATOM      8  C   UNL     1      33.803  16.764 126.060 -0.36 -0.00    +0.000 A 
DOCKED: ATOM      9  C   UNL     1      33.995  18.145 126.152 -0.31 -0.00    +0.000 A 
DOCKED: ATOM     10  C   UNL     1      34.703  18.818 125.154 -0.25 -0.00    +0.000 A 
DOCKED: ATOM     11  C   UNL     1      35.225  18.113 124.064 -0.28 -0.00    +0.000 A 
DOCKED: ATOM     12  CM  UNL     1      34.517  17.435 125.063 -0.40 -0.00    +0.000 AC
DOCKED: ENDBRANCH   4   6
DOCKED: ENDBRANCH   1   3
DOCKED: BRANCH   1  12
DOCKED: ATOM     13  C   UNL     1      37.456  13.836 121.229 -0.42 -0.00    +0.000 C 
DOCKED: BRANCH  12  13
DOCKED: ATOM     14  C   UNL     1      37.975  13.375 122.602 -0.45 -0.00    +0.000 C 
DOCKED: BRANCH  13  14
DOCKED: ATOM     15  C   UNL     1      36.852  13.063 123.613 -0.56 -0.00    +0.000 C 
DOCKED: BRANCH  14  15
DOCKED: ATOM     16  C   UNL     1      35.858  12.020 123.072 -0.61 -0.00    +0.000 C 
DOCKED: BRANCH  15  16
DOCKED: ATOM     17  C   UNL     1      35.943  10.687 123.826 -0.18 -0.00    +0.000 C 
DOCKED: BRANCH  16  17
DOCKED: ATOM     18  C   UNL     1      36.489   9.590 122.960 -0.69 -0.00    +0.000 C 
DOCKED: ATOM     19  N   UNL     1      36.769   9.829 121.579 -0.54 -0.00    +0.000 N 
DOCKED: ATOM     20  O   UNL     1      37.271   8.843 120.800 -2.52 -0.00    +0.000 OA
DOCKED: ATOM     21  O   UNL     1      36.730   8.460 123.464 -1.93 -0.00    +0.000 OA
DOCKED: ATOM     22  H   UNL     1      36.597  10.718 121.193 -0.02 -0.00    +0.000 HD
DOCKED: ENDBRANCH  16  17
DOCKED: ENDBRANCH  15  16
DOCKED: ENDBRANCH  14  15
DOCKED: ENDBRANCH  13  14
DOCKED: ENDBRANCH  12  13
DOCKED: ENDBRANCH   1  12
DOCKED: TORSDOF 8DOCKED: TER
DOCKED: ENDMDL
________________________________________________________________________________


	BEGINNING GENETIC ALGORITHM DOCKING 57 of 100
Run: 57 Seed: 997324400 1536562700 [ Run 57 of 100 GA/GALS ]
Beginning LAMARCKIAN GENETIC ALGORITHM (LGA), with a maximum of 2500000 energy evaluations.

Final-Value: -13.899


	FINAL GENETIC ALGORITHM DOCKED STATE
	_______________________________________________


Detailed state:  trans 38.573 14.159 119.830 quatxyzw -0.277651 -0.572453 -0.199413 -0.745280 center 0.108 0.248 -0.022 ntor 8 144.8789 79.4241 -85.4085 118.6039 -161.6295 167.0645 11.9730 -86.9005
State:	 38.573  14.159 119.830  -0.416 -0.859 -0.299 -83.634    144.88   79.42  -85.41  118.60 -161.63  167.06   11.97  -86.90

DOCKED: MODEL       57
DOCKED: USER    Run = 57
DOCKED: USER    DPF = ligand_dock.biased.dpf
DOCKED: USER  
DOCKED: USER    Estimated Free Energy of Binding    =  -10.49 kcal/mol  [=(1)+(2)+(3)-(4)]
DOCKED: USER    Estimated Inhibition Constant, Ki   =   20.30 nM (nanomolar)  [Temperature = 298.15 K]
DOCKED: USER    
DOCKED: USER    (1) Final Intermolecular Energy     =  -12.88 kcal/mol
DOCKED: USER        vdW + Hbond + desolv Energy     =  -12.88 kcal/mol
DOCKED: USER        Electrostatic Energy            =   +0.00 kcal/mol
DOCKED: USER    (2) Final Total Internal Energy     =   -1.02 kcal/mol
DOCKED: USER    (3) Torsional Free Energy           =   +2.39 kcal/mol
DOCKED: USER    (4) Unbound System's Energy  [=(2)] =   -1.02 kcal/mol
DOCKED: USER    
DOCKED: USER    
DOCKED: USER    NEWDPF move ligand.dum.pdbqt
DOCKED: USER    NEWDPF about 0.108000 0.248000 -0.022000
DOCKED: USER    NEWDPF tran0 38.572538 14.159095 119.829744
DOCKED: USER    NEWDPF quaternion0 -0.277651 -0.572453 -0.199413 -0.745280
DOCKED: USER    NEWDPF axisangle0 -0.416423 -0.858570 -0.299082 -83.633773
DOCKED: USER    NEWDPF quat0 -0.416423 -0.858570 -0.299082 -83.633773
DOCKED: USER    NEWDPF dihe0 144.88 79.42 -85.41 118.60 -161.63 167.06 11.97 -86.90 
DOCKED: USER  keepresnum = 1 
DOCKED: USER  
DOCKED: REMARK  Name = 
DOCKED: REMARK  8 active torsions:
DOCKED: REMARK  status: ('A' for Active; 'I' for Inactive)
DOCKED: REMARK    1  A    between atoms: C_2  and  C_10
DOCKED: REMARK    2  A    between atoms: N_3  and  C_4
DOCKED: REMARK    3  A    between atoms: C_10  and  C_11
DOCKED: REMARK    4  A    between atoms: C_11  and  C_12
DOCKED: REMARK    5  A    between atoms: C_12  and  C_13
DOCKED: REMARK    6  A    between atoms: C_13  and  C_14
DOCKED: REMARK    7  A    between atoms: C_14  and  C_15
DOCKED: REMARK    8  A    between atoms: C_15  and  C_16
DOCKED: REMARK                            x       y       z     vdW  Elec       q    Type
DOCKED: REMARK                         _______ _______ _______ _____ _____    ______ ____
DOCKED: USER                              x       y       z     vdW  Elec       q    Type
DOCKED: USER                           _______ _______ _______ _____ _____    ______ ____
DOCKED: ROOT
DOCKED: ATOM      1  C   UNL     1      37.808  12.874 119.739 -0.43 -0.00    +0.000 C 
DOCKED: ENDROOT
DOCKED: BRANCH   1   3
DOCKED: ATOM      2  O   UNL     1      37.827  12.622 117.366 -0.47 -0.00    +0.000 OA
DOCKED: ATOM      3  C   UNL     1      37.262  13.137 118.368 -0.38 -0.00    +0.000 C 
DOCKED: ATOM      4  N   UNL     1      36.104  13.974 118.206 -0.36 -0.00    +0.000 N 
DOCKED: ATOM      5  H   UNL     1      35.807  14.503 118.982 -0.02 -0.00    +0.000 HD
DOCKED: BRANCH   4   6
DOCKED: ATOM      6  C   UNL     1      35.352  14.088 116.987 -0.32 -0.00    +0.000 A 
DOCKED: ATOM      7  C   UNL     1      33.966  13.858 117.010 -0.24 -0.00    +0.000 A 
DOCKED: ATOM      8  C   UNL     1      33.215  13.939 115.833 -0.33 -0.00    +0.000 A 
DOCKED: ATOM      9  C   UNL     1      33.843  14.234 114.621 -0.23 -0.00    +0.000 A 
DOCKED: ATOM     10  C   UNL     1      35.224  14.443 114.582 -0.21 -0.00    +0.000 A 
DOCKED: ATOM     11  C   UNL     1      35.979  14.363 115.757 -0.26 -0.00    +0.000 A 
DOCKED: ATOM     12  CM  UNL     1      34.596  14.154 115.798 +0.00 -0.00    +0.000 AC
DOCKED: ENDBRANCH   4   6
DOCKED: ENDBRANCH   1   3
DOCKED: BRANCH   1  12
DOCKED: ATOM     13  C   UNL     1      37.109  13.767 120.770 -0.36 -0.00    +0.000 C 
DOCKED: BRANCH  12  13
DOCKED: ATOM     14  C   UNL     1      37.722  13.650 122.176 -0.49 -0.00    +0.000 C 
DOCKED: BRANCH  13  14
DOCKED: ATOM     15  C   UNL     1      36.692  13.303 123.271 -0.60 -0.00    +0.000 C 
DOCKED: BRANCH  14  15
DOCKED: ATOM     16  C   UNL     1      36.631  11.791 123.552 -0.70 -0.00    +0.000 C 
DOCKED: BRANCH  15  16
DOCKED: ATOM     17  C   UNL     1      36.061  11.001 122.367 -0.66 -0.00    +0.000 C 
DOCKED: BRANCH  16  17
DOCKED: ATOM     18  C   UNL     1      36.679   9.639 122.256 -0.70 -0.00    +0.000 C 
DOCKED: ATOM     19  N   UNL     1      36.805   8.804 123.409 -0.61 -0.00    +0.000 N 
DOCKED: ATOM     20  O   UNL     1      37.353   7.572 123.308 -2.42 -0.00    +0.000 OA
DOCKED: ATOM     21  O   UNL     1      37.064   9.218 121.131 -2.74 -0.00    +0.000 OA
DOCKED: ATOM     22  H   UNL     1      36.488   9.128 124.283 -0.34 -0.00    +0.000 HD
DOCKED: ENDBRANCH  16  17
DOCKED: ENDBRANCH  15  16
DOCKED: ENDBRANCH  14  15
DOCKED: ENDBRANCH  13  14
DOCKED: ENDBRANCH  12  13
DOCKED: ENDBRANCH   1  12
DOCKED: TORSDOF 8DOCKED: TER
DOCKED: ENDMDL
________________________________________________________________________________


	BEGINNING GENETIC ALGORITHM DOCKING 58 of 100
Run: 58 Seed: 1363706610 1249986409 [ Run 58 of 100 GA/GALS ]
Beginning LAMARCKIAN GENETIC ALGORITHM (LGA), with a maximum of 2500000 energy evaluations.

Final-Value: -13.717


	FINAL GENETIC ALGORITHM DOCKED STATE
	_______________________________________________


Detailed state:  trans 38.704 16.182 121.674 quatxyzw 0.512254 0.277403 -0.494962 -0.644714 center 0.108 0.248 -0.022 ntor 8 -164.3675 158.6921 -153.8797 5.1383 -179.9831 53.1312 158.4571 -160.4330
State:	 38.704  16.182 121.674   0.670  0.363 -0.647 -99.712   -164.37  158.69 -153.88    5.14 -179.98   53.13  158.46 -160.43

DOCKED: MODEL       58
DOCKED: USER    Run = 58
DOCKED: USER    DPF = ligand_dock.biased.dpf
DOCKED: USER  
DOCKED: USER    Estimated Free Energy of Binding    =  -10.35 kcal/mol  [=(1)+(2)+(3)-(4)]
DOCKED: USER    Estimated Inhibition Constant, Ki   =   25.82 nM (nanomolar)  [Temperature = 298.15 K]
DOCKED: USER    
DOCKED: USER    (1) Final Intermolecular Energy     =  -12.74 kcal/mol
DOCKED: USER        vdW + Hbond + desolv Energy     =  -12.74 kcal/mol
DOCKED: USER        Electrostatic Energy            =   +0.00 kcal/mol
DOCKED: USER    (2) Final Total Internal Energy     =   -0.98 kcal/mol
DOCKED: USER    (3) Torsional Free Energy           =   +2.39 kcal/mol
DOCKED: USER    (4) Unbound System's Energy  [=(2)] =   -0.98 kcal/mol
DOCKED: USER    
DOCKED: USER    
DOCKED: USER    NEWDPF move ligand.dum.pdbqt
DOCKED: USER    NEWDPF about 0.108000 0.248000 -0.022000
DOCKED: USER    NEWDPF tran0 38.704001 16.182349 121.673602
DOCKED: USER    NEWDPF quaternion0 0.512254 0.277403 -0.494962 -0.644714
DOCKED: USER    NEWDPF axisangle0 0.670118 0.362891 -0.647496 -99.711548
DOCKED: USER    NEWDPF quat0 0.670118 0.362891 -0.647496 -99.711548
DOCKED: USER    NEWDPF dihe0 -164.37 158.69 -153.88 5.14 -179.98 53.13 158.46 -160.43 
DOCKED: USER  keepresnum = 1 
DOCKED: USER  
DOCKED: REMARK  Name = 
DOCKED: REMARK  8 active torsions:
DOCKED: REMARK  status: ('A' for Active; 'I' for Inactive)
DOCKED: REMARK    1  A    between atoms: C_2  and  C_10
DOCKED: REMARK    2  A    between atoms: N_3  and  C_4
DOCKED: REMARK    3  A    between atoms: C_10  and  C_11
DOCKED: REMARK    4  A    between atoms: C_11  and  C_12
DOCKED: REMARK    5  A    between atoms: C_12  and  C_13
DOCKED: REMARK    6  A    between atoms: C_13  and  C_14
DOCKED: REMARK    7  A    between atoms: C_14  and  C_15
DOCKED: REMARK    8  A    between atoms: C_15  and  C_16
DOCKED: REMARK                            x       y       z     vdW  Elec       q    Type
DOCKED: REMARK                         _______ _______ _______ _____ _____    ______ ____
DOCKED: USER                              x       y       z     vdW  Elec       q    Type
DOCKED: USER                           _______ _______ _______ _____ _____    ______ ____
DOCKED: ROOT
DOCKED: ATOM      1  C   UNL     1      37.306  16.573 121.304 -0.18 -0.00    +0.000 C 
DOCKED: ENDROOT
DOCKED: BRANCH   1   3
DOCKED: ATOM      2  O   UNL     1      37.698  17.080 123.603 -0.27 -0.00    +0.000 OA
DOCKED: ATOM      3  C   UNL     1      36.849  16.795 122.715 -0.26 -0.00    +0.000 C 
DOCKED: ATOM      4  N   UNL     1      35.455  16.679 123.044 -0.32 -0.00    +0.000 N 
DOCKED: ATOM      5  H   UNL     1      34.856  16.277 122.374 -0.02 -0.00    +0.000 HD
DOCKED: BRANCH   4   6
DOCKED: ATOM      6  C   UNL     1      34.877  17.112 124.286 -0.38 -0.00    +0.000 A 
DOCKED: ATOM      7  C   UNL     1      35.023  18.452 124.682 -0.27 -0.00    +0.000 A 
DOCKED: ATOM      8  C   UNL     1      34.491  18.893 125.898 -0.24 -0.00    +0.000 A 
DOCKED: ATOM      9  C   UNL     1      33.824  17.998 126.737 -0.29 -0.00    +0.000 A 
DOCKED: ATOM     10  C   UNL     1      33.692  16.658 126.363 -0.38 -0.00    +0.000 A 
DOCKED: ATOM     11  C   UNL     1      34.222  16.212 125.148 -0.44 -0.00    +0.000 A 
DOCKED: ATOM     12  CM  UNL     1      34.355  17.554 125.519 -0.32 -0.00    +0.000 AC
DOCKED: ENDBRANCH   4   6
DOCKED: ENDBRANCH   1   3
DOCKED: BRANCH   1  12
DOCKED: ATOM     13  C   UNL     1      37.466  15.074 121.028 -0.29 -0.00    +0.000 C 
DOCKED: BRANCH  12  13
DOCKED: ATOM     14  C   UNL     1      37.796  14.264 122.294 -0.45 -0.00    +0.000 C 
DOCKED: BRANCH  13  14
DOCKED: ATOM     15  C   UNL     1      36.750  13.178 122.620 -0.55 -0.00    +0.000 C 
DOCKED: BRANCH  14  15
DOCKED: ATOM     16  C   UNL     1      36.891  11.944 121.711 -0.57 -0.00    +0.000 C 
DOCKED: BRANCH  15  16
DOCKED: ATOM     17  C   UNL     1      35.869  10.851 122.048 -0.54 -0.00    +0.000 C 
DOCKED: BRANCH  16  17
DOCKED: ATOM     18  C   UNL     1      36.506   9.495 122.123 -0.68 -0.00    +0.000 C 
DOCKED: ATOM     19  N   UNL     1      36.877   8.938 123.386 -0.60 -0.00    +0.000 N 
DOCKED: ATOM     20  O   UNL     1      37.443   7.711 123.456 -2.60 -0.00    +0.000 OA
DOCKED: ATOM     21  O   UNL     1      36.689   8.833 121.067 -2.60 -0.00    +0.000 OA
DOCKED: ATOM     22  H   UNL     1      36.717   9.450 124.211 -0.49 -0.00    +0.000 HD
DOCKED: ENDBRANCH  16  17
DOCKED: ENDBRANCH  15  16
DOCKED: ENDBRANCH  14  15
DOCKED: ENDBRANCH  13  14
DOCKED: ENDBRANCH  12  13
DOCKED: ENDBRANCH   1  12
DOCKED: TORSDOF 8DOCKED: TER
DOCKED: ENDMDL
________________________________________________________________________________


	BEGINNING GENETIC ALGORITHM DOCKING 59 of 100
Run: 59 Seed: 1195059180 477299645 [ Run 59 of 100 GA/GALS ]
Beginning LAMARCKIAN GENETIC ALGORITHM (LGA), with a maximum of 2500000 energy evaluations.

Final-Value: -12.398


	FINAL GENETIC ALGORITHM DOCKED STATE
	_______________________________________________


Detailed state:  trans 37.251 15.343 124.927 quatxyzw -0.402900 0.568533 0.546735 0.464244 center 0.108 0.248 -0.022 ntor 8 -178.7340 -172.6785 -177.9741 125.4279 -3.4968 -75.3539 10.1465 -33.5891
State:	 37.251  15.343 124.927  -0.455  0.642  0.617 124.677   -178.73 -172.68 -177.97  125.43   -3.50  -75.35   10.15  -33.59

DOCKED: MODEL       59
DOCKED: USER    Run = 59
DOCKED: USER    DPF = ligand_dock.biased.dpf
DOCKED: USER  
DOCKED: USER    Estimated Free Energy of Binding    =   -9.20 kcal/mol  [=(1)+(2)+(3)-(4)]
DOCKED: USER    Estimated Inhibition Constant, Ki   =  179.90 nM (nanomolar)  [Temperature = 298.15 K]
DOCKED: USER    
DOCKED: USER    (1) Final Intermolecular Energy     =  -11.59 kcal/mol
DOCKED: USER        vdW + Hbond + desolv Energy     =  -11.59 kcal/mol
DOCKED: USER        Electrostatic Energy            =   +0.00 kcal/mol
DOCKED: USER    (2) Final Total Internal Energy     =   -0.81 kcal/mol
DOCKED: USER    (3) Torsional Free Energy           =   +2.39 kcal/mol
DOCKED: USER    (4) Unbound System's Energy  [=(2)] =   -0.81 kcal/mol
DOCKED: USER    
DOCKED: USER    
DOCKED: USER    NEWDPF move ligand.dum.pdbqt
DOCKED: USER    NEWDPF about 0.108000 0.248000 -0.022000
DOCKED: USER    NEWDPF tran0 37.251439 15.343359 124.927033
DOCKED: USER    NEWDPF quaternion0 -0.402900 0.568533 0.546735 0.464244
DOCKED: USER    NEWDPF axisangle0 -0.454890 0.641897 0.617286 124.677354
DOCKED: USER    NEWDPF quat0 -0.454890 0.641897 0.617286 124.677354
DOCKED: USER    NEWDPF dihe0 -178.73 -172.68 -177.97 125.43 -3.50 -75.35 10.15 -33.59 
DOCKED: USER  keepresnum = 1 
DOCKED: USER  
DOCKED: REMARK  Name = 
DOCKED: REMARK  8 active torsions:
DOCKED: REMARK  status: ('A' for Active; 'I' for Inactive)
DOCKED: REMARK    1  A    between atoms: C_2  and  C_10
DOCKED: REMARK    2  A    between atoms: N_3  and  C_4
DOCKED: REMARK    3  A    between atoms: C_10  and  C_11
DOCKED: REMARK    4  A    between atoms: C_11  and  C_12
DOCKED: REMARK    5  A    between atoms: C_12  and  C_13
DOCKED: REMARK    6  A    between atoms: C_13  and  C_14
DOCKED: REMARK    7  A    between atoms: C_14  and  C_15
DOCKED: REMARK    8  A    between atoms: C_15  and  C_16
DOCKED: REMARK                            x       y       z     vdW  Elec       q    Type
DOCKED: REMARK                         _______ _______ _______ _____ _____    ______ ____
DOCKED: USER                              x       y       z     vdW  Elec       q    Type
DOCKED: USER                           _______ _______ _______ _____ _____    ______ ____
DOCKED: ROOT
DOCKED: ATOM      1  C   UNL     1      37.524  15.470 123.460 -0.35 -0.00    +0.000 C 
DOCKED: ENDROOT
DOCKED: BRANCH   1   3
DOCKED: ATOM      2  O   UNL     1      38.293  17.561 122.604 -0.15 -0.00    +0.000 OA
DOCKED: ATOM      3  C   UNL     1      37.583  16.968 123.460 -0.26 -0.00    +0.000 C 
DOCKED: ATOM      4  N   UNL     1      36.835  17.714 124.435 -0.22 -0.00    +0.000 N 
DOCKED: ATOM      5  H   UNL     1      36.447  17.220 125.194 -0.02 -0.00    +0.000 HD
DOCKED: BRANCH   4   6
DOCKED: ATOM      6  C   UNL     1      36.615  19.133 124.374 -0.16 -0.00    +0.000 A 
DOCKED: ATOM      7  C   UNL     1      36.486  19.756 123.122 -0.15 -0.00    +0.000 A 
DOCKED: ATOM      8  C   UNL     1      36.296  21.139 123.035 -0.11 -0.00    +0.000 A 
DOCKED: ATOM      9  C   UNL     1      36.249  21.914 124.196 -0.13 -0.00    +0.000 A 
DOCKED: ATOM     10  C   UNL     1      36.397  21.307 125.446 -0.09 -0.00    +0.000 A 
DOCKED: ATOM     11  C   UNL     1      36.588  19.925 125.538 -0.12 -0.00    +0.000 A 
DOCKED: ATOM     12  CM  UNL     1      36.439  20.529 124.285 +0.00 -0.00    +0.000 AC
DOCKED: ENDBRANCH   4   6
DOCKED: ENDBRANCH   1   3
DOCKED: BRANCH   1  12
DOCKED: ATOM     13  C   UNL     1      36.077  14.995 123.632 -0.49 -0.00    +0.000 C 
DOCKED: BRANCH  12  13
DOCKED: ATOM     14  C   UNL     1      35.958  13.465 123.738 -0.59 -0.00    +0.000 C 
DOCKED: BRANCH  13  14
DOCKED: ATOM     15  C   UNL     1      37.278  12.722 123.448 -0.60 -0.00    +0.000 C 
DOCKED: BRANCH  14  15
DOCKED: ATOM     16  C   UNL     1      37.258  12.016 122.081 -0.51 -0.00    +0.000 C 
DOCKED: BRANCH  15  16
DOCKED: ATOM     17  C   UNL     1      36.150  10.959 121.987 -0.58 -0.00    +0.000 C 
DOCKED: BRANCH  16  17
DOCKED: ATOM     18  C   UNL     1      36.697   9.566 122.085 -0.69 -0.00    +0.000 C 
DOCKED: ATOM     19  N   UNL     1      36.954   8.977 123.362 -0.61 -0.00    +0.000 N 
DOCKED: ATOM     20  O   UNL     1      37.439   7.717 123.452 -2.60 -0.00    +0.000 OA
DOCKED: ATOM     21  O   UNL     1      36.905   8.902 121.034 -2.67 -0.00    +0.000 OA
DOCKED: ATOM     22  H   UNL     1      36.775   9.492 124.182 -0.50 -0.00    +0.000 HD
DOCKED: ENDBRANCH  16  17
DOCKED: ENDBRANCH  15  16
DOCKED: ENDBRANCH  14  15
DOCKED: ENDBRANCH  13  14
DOCKED: ENDBRANCH  12  13
DOCKED: ENDBRANCH   1  12
DOCKED: TORSDOF 8DOCKED: TER
DOCKED: ENDMDL
________________________________________________________________________________


	BEGINNING GENETIC ALGORITHM DOCKING 60 of 100
Run: 60 Seed: 880739041 1865862604 [ Run 60 of 100 GA/GALS ]
Beginning LAMARCKIAN GENETIC ALGORITHM (LGA), with a maximum of 2500000 energy evaluations.

Final-Value: -13.426


	FINAL GENETIC ALGORITHM DOCKED STATE
	_______________________________________________


Detailed state:  trans 36.693 17.150 123.078 quatxyzw -0.173918 0.645772 -0.259130 0.696838 center 0.108 0.248 -0.022 ntor 8 -174.9286 156.8000 25.9656 85.9317 -14.9391 39.4420 -147.6547 -172.5096
State:	 36.693  17.150 123.078  -0.242  0.900 -0.361 91.652   -174.93  156.80   25.97   85.93  -14.94   39.44 -147.65 -172.51

DOCKED: MODEL       60
DOCKED: USER    Run = 60
DOCKED: USER    DPF = ligand_dock.biased.dpf
DOCKED: USER  
DOCKED: USER    Estimated Free Energy of Binding    =   -9.74 kcal/mol  [=(1)+(2)+(3)-(4)]
DOCKED: USER    Estimated Inhibition Constant, Ki   =   72.67 nM (nanomolar)  [Temperature = 298.15 K]
DOCKED: USER    
DOCKED: USER    (1) Final Intermolecular Energy     =  -12.13 kcal/mol
DOCKED: USER        vdW + Hbond + desolv Energy     =  -12.13 kcal/mol
DOCKED: USER        Electrostatic Energy            =   +0.00 kcal/mol
DOCKED: USER    (2) Final Total Internal Energy     =   -1.30 kcal/mol
DOCKED: USER    (3) Torsional Free Energy           =   +2.39 kcal/mol
DOCKED: USER    (4) Unbound System's Energy  [=(2)] =   -1.30 kcal/mol
DOCKED: USER    
DOCKED: USER    
DOCKED: USER    NEWDPF move ligand.dum.pdbqt
DOCKED: USER    NEWDPF about 0.108000 0.248000 -0.022000
DOCKED: USER    NEWDPF tran0 36.692623 17.149956 123.078300
DOCKED: USER    NEWDPF quaternion0 -0.173918 0.645772 -0.259130 0.696838
DOCKED: USER    NEWDPF axisangle0 -0.242487 0.900371 -0.361293 91.652352
DOCKED: USER    NEWDPF quat0 -0.242487 0.900371 -0.361293 91.652352
DOCKED: USER    NEWDPF dihe0 -174.93 156.80 25.97 85.93 -14.94 39.44 -147.65 -172.51 
DOCKED: USER  keepresnum = 1 
DOCKED: USER  
DOCKED: REMARK  Name = 
DOCKED: REMARK  8 active torsions:
DOCKED: REMARK  status: ('A' for Active; 'I' for Inactive)
DOCKED: REMARK    1  A    between atoms: C_2  and  C_10
DOCKED: REMARK    2  A    between atoms: N_3  and  C_4
DOCKED: REMARK    3  A    between atoms: C_10  and  C_11
DOCKED: REMARK    4  A    between atoms: C_11  and  C_12
DOCKED: REMARK    5  A    between atoms: C_12  and  C_13
DOCKED: REMARK    6  A    between atoms: C_13  and  C_14
DOCKED: REMARK    7  A    between atoms: C_14  and  C_15
DOCKED: REMARK    8  A    between atoms: C_15  and  C_16
DOCKED: REMARK                            x       y       z     vdW  Elec       q    Type
DOCKED: REMARK                         _______ _______ _______ _____ _____    ______ ____
DOCKED: USER                              x       y       z     vdW  Elec       q    Type
DOCKED: USER                           _______ _______ _______ _____ _____    ______ ____
DOCKED: ROOT
DOCKED: ATOM      1  C   UNL     1      37.748  16.107 122.868 -0.30 -0.00    +0.000 C 
DOCKED: ENDROOT
DOCKED: BRANCH   1   3
DOCKED: ATOM      2  O   UNL     1      36.596  16.607 120.839 -0.20 -0.00    +0.000 OA
DOCKED: ATOM      3  C   UNL     1      37.377  15.823 121.444 -0.24 -0.00    +0.000 C 
DOCKED: ATOM      4  N   UNL     1      37.909  14.664 120.782 -0.28 -0.00    +0.000 N 
DOCKED: ATOM      5  H   UNL     1      38.359  13.985 121.335 -0.01 -0.00    +0.000 HD
DOCKED: BRANCH   4   6
DOCKED: ATOM      6  C   UNL     1      37.830  14.432 119.366 -0.26 -0.00    +0.000 A 
DOCKED: ATOM      7  C   UNL     1      37.217  13.260 118.893 -0.38 -0.00    +0.000 A 
DOCKED: ATOM      8  C   UNL     1      37.150  13.000 117.521 -0.23 -0.00    +0.000 A 
DOCKED: ATOM      9  C   UNL     1      37.707  13.899 116.609 -0.34 -0.00    +0.000 A 
DOCKED: ATOM     10  C   UNL     1      38.338  15.058 117.069 -0.19 -0.00    +0.000 A 
DOCKED: ATOM     11  C   UNL     1      38.408  15.323 118.440 -0.16 -0.00    +0.000 A 
DOCKED: ATOM     12  CM  UNL     1      37.775  14.162 117.983 +0.00 -0.00    +0.000 AC
DOCKED: ENDBRANCH   4   6
DOCKED: ENDBRANCH   1   3
DOCKED: BRANCH   1  12
DOCKED: ATOM     13  C   UNL     1      36.693  15.527 123.817 -0.36 -0.00    +0.000 C 
DOCKED: BRANCH  12  13
DOCKED: ATOM     14  C   UNL     1      35.942  14.327 123.215 -0.47 -0.00    +0.000 C 
DOCKED: BRANCH  13  14
DOCKED: ATOM     15  C   UNL     1      36.353  12.972 123.827 -0.61 -0.00    +0.000 C 
DOCKED: BRANCH  14  15
DOCKED: ATOM     16  C   UNL     1      36.965  12.024 122.780 -0.63 -0.00    +0.000 C 
DOCKED: BRANCH  15  16
DOCKED: ATOM     17  C   UNL     1      35.959  10.978 122.282 -0.63 -0.00    +0.000 C 
DOCKED: BRANCH  16  17
DOCKED: ATOM     18  C   UNL     1      36.567   9.608 122.215 -0.69 -0.00    +0.000 C 
DOCKED: ATOM     19  N   UNL     1      36.556   8.754 123.361 -0.62 -0.00    +0.000 N 
DOCKED: ATOM     20  O   UNL     1      37.095   7.515 123.299 -2.48 -0.00    +0.000 OA
DOCKED: ATOM     21  O   UNL     1      37.064   9.199 121.131 -2.74 -0.00    +0.000 OA
DOCKED: ATOM     22  H   UNL     1      36.152   9.070 124.201 -0.28 -0.00    +0.000 HD
DOCKED: ENDBRANCH  16  17
DOCKED: ENDBRANCH  15  16
DOCKED: ENDBRANCH  14  15
DOCKED: ENDBRANCH  13  14
DOCKED: ENDBRANCH  12  13
DOCKED: ENDBRANCH   1  12
DOCKED: TORSDOF 8DOCKED: TER
DOCKED: ENDMDL
________________________________________________________________________________


	BEGINNING GENETIC ALGORITHM DOCKING 61 of 100
Run: 61 Seed: 1939649137 182683576 [ Run 61 of 100 GA/GALS ]
Beginning LAMARCKIAN GENETIC ALGORITHM (LGA), with a maximum of 2500000 energy evaluations.

Final-Value: -12.539


	FINAL GENETIC ALGORITHM DOCKED STATE
	_______________________________________________


Detailed state:  trans 37.844 11.735 123.111 quatxyzw -0.777236 -0.560416 -0.175969 0.225552 center 0.108 0.248 -0.022 ntor 8 -139.6294 -144.7212 179.6108 174.0018 -96.6492 167.3288 8.4761 114.6801
State:	 37.844  11.735 123.111  -0.798 -0.575 -0.181 153.929   -139.63 -144.72  179.61  174.00  -96.65  167.33    8.48  114.68

DOCKED: MODEL       61
DOCKED: USER    Run = 61
DOCKED: USER    DPF = ligand_dock.biased.dpf
DOCKED: USER  
DOCKED: USER    Estimated Free Energy of Binding    =   -9.19 kcal/mol  [=(1)+(2)+(3)-(4)]
DOCKED: USER    Estimated Inhibition Constant, Ki   =  183.39 nM (nanomolar)  [Temperature = 298.15 K]
DOCKED: USER    
DOCKED: USER    (1) Final Intermolecular Energy     =  -11.58 kcal/mol
DOCKED: USER        vdW + Hbond + desolv Energy     =  -11.58 kcal/mol
DOCKED: USER        Electrostatic Energy            =   +0.00 kcal/mol
DOCKED: USER    (2) Final Total Internal Energy     =   -0.96 kcal/mol
DOCKED: USER    (3) Torsional Free Energy           =   +2.39 kcal/mol
DOCKED: USER    (4) Unbound System's Energy  [=(2)] =   -0.96 kcal/mol
DOCKED: USER    
DOCKED: USER    
DOCKED: USER    NEWDPF move ligand.dum.pdbqt
DOCKED: USER    NEWDPF about 0.108000 0.248000 -0.022000
DOCKED: USER    NEWDPF tran0 37.843717 11.735156 123.111238
DOCKED: USER    NEWDPF quaternion0 -0.777236 -0.560416 -0.175969 0.225552
DOCKED: USER    NEWDPF axisangle0 -0.797794 -0.575239 -0.180624 153.929338
DOCKED: USER    NEWDPF quat0 -0.797794 -0.575239 -0.180624 153.929338
DOCKED: USER    NEWDPF dihe0 -139.63 -144.72 179.61 174.00 -96.65 167.33 8.48 114.68 
DOCKED: USER  keepresnum = 1 
DOCKED: USER  
DOCKED: REMARK  Name = 
DOCKED: REMARK  8 active torsions:
DOCKED: REMARK  status: ('A' for Active; 'I' for Inactive)
DOCKED: REMARK    1  A    between atoms: C_2  and  C_10
DOCKED: REMARK    2  A    between atoms: N_3  and  C_4
DOCKED: REMARK    3  A    between atoms: C_10  and  C_11
DOCKED: REMARK    4  A    between atoms: C_11  and  C_12
DOCKED: REMARK    5  A    between atoms: C_12  and  C_13
DOCKED: REMARK    6  A    between atoms: C_13  and  C_14
DOCKED: REMARK    7  A    between atoms: C_14  and  C_15
DOCKED: REMARK    8  A    between atoms: C_15  and  C_16
DOCKED: REMARK                            x       y       z     vdW  Elec       q    Type
DOCKED: REMARK                         _______ _______ _______ _____ _____    ______ ____
DOCKED: USER                              x       y       z     vdW  Elec       q    Type
DOCKED: USER                           _______ _______ _______ _____ _____    ______ ____
DOCKED: ROOT
DOCKED: ATOM      1  C   UNL     1      36.462  11.864 122.547 -0.64 -0.00    +0.000 C 
DOCKED: ENDROOT
DOCKED: BRANCH   1   3
DOCKED: ATOM      2  O   UNL     1      37.056   9.779 121.551 -1.93 -0.00    +0.000 OA
DOCKED: ATOM      3  C   UNL     1      36.270  10.395 122.320 -0.67 -0.00    +0.000 C 
DOCKED: ATOM      4  N   UNL     1      35.193   9.704 122.974 -0.59 -0.00    +0.000 N 
DOCKED: ATOM      5  H   UNL     1      34.497  10.245 123.412 -0.41 -0.00    +0.000 HD
DOCKED: BRANCH   4   6
DOCKED: ATOM      6  C   UNL     1      35.067   8.273 123.034 -0.61 -0.00    +0.000 A 
DOCKED: ATOM      7  C   UNL     1      36.226   7.480 123.045 -0.69 -0.00    +0.000 A 
DOCKED: ATOM      8  C   UNL     1      36.130   6.085 123.077 -0.59 -0.00    +0.000 A 
DOCKED: ATOM      9  C   UNL     1      34.877   5.470 123.083 -0.52 -0.00    +0.000 A 
DOCKED: ATOM     10  C   UNL     1      33.717   6.248 123.050 -0.68 -0.00    +0.000 A 
DOCKED: ATOM     11  C   UNL     1      33.808   7.644 123.017 -0.62 -0.00    +0.000 A 
DOCKED: ATOM     12  CM  UNL     1      34.971   6.867 123.051 +0.00 -0.00    +0.000 AC
DOCKED: ENDBRANCH   4   6
DOCKED: ENDBRANCH   1   3
DOCKED: BRANCH   1  12
DOCKED: ATOM     13  C   UNL     1      37.447  12.436 121.520 -0.51 -0.00    +0.000 C 
DOCKED: BRANCH  12  13
DOCKED: ATOM     14  C   UNL     1      37.734  13.932 121.735 -0.44 -0.00    +0.000 C 
DOCKED: BRANCH  13  14
DOCKED: ATOM     15  C   UNL     1      37.481  14.794 120.481 -0.30 -0.00    +0.000 C 
DOCKED: BRANCH  14  15
DOCKED: ATOM     16  C   UNL     1      37.293  16.282 120.828 -0.19 -0.00    +0.000 C 
DOCKED: BRANCH  15  16
DOCKED: ATOM     17  C   UNL     1      37.104  16.510 122.333 -0.24 -0.00    +0.000 C 
DOCKED: BRANCH  16  17
DOCKED: ATOM     18  C   UNL     1      35.718  16.151 122.782 -0.35 -0.00    +0.000 C 
DOCKED: ATOM     19  N   UNL     1      35.519  15.178 123.809 -0.50 -0.00    +0.000 N 
DOCKED: ATOM     20  O   UNL     1      34.270  14.860 124.221 -0.66 -0.00    +0.000 OA
DOCKED: ATOM     21  O   UNL     1      34.725  16.734 122.268 -0.39 -0.00    +0.000 OA
DOCKED: ATOM     22  H   UNL     1      36.297  14.736 124.221 -0.04 -0.00    +0.000 HD
DOCKED: ENDBRANCH  16  17
DOCKED: ENDBRANCH  15  16
DOCKED: ENDBRANCH  14  15
DOCKED: ENDBRANCH  13  14
DOCKED: ENDBRANCH  12  13
DOCKED: ENDBRANCH   1  12
DOCKED: TORSDOF 8DOCKED: TER
DOCKED: ENDMDL
________________________________________________________________________________


	BEGINNING GENETIC ALGORITHM DOCKING 62 of 100
Run: 62 Seed: 1074288640 1197208545 [ Run 62 of 100 GA/GALS ]
Beginning LAMARCKIAN GENETIC ALGORITHM (LGA), with a maximum of 2500000 energy evaluations.

Final-Value: -12.897


	FINAL GENETIC ALGORITHM DOCKED STATE
	_______________________________________________


Detailed state:  trans 38.147 11.270 121.734 quatxyzw 0.788847 0.525517 -0.124037 0.293542 center 0.108 0.248 -0.022 ntor 8 -140.2540 -174.0881 85.6264 -154.1281 -135.6962 92.6402 9.8410 -179.6415
State:	 38.147  11.270 121.734   0.825  0.550 -0.130 145.860   -140.25 -174.09   85.63 -154.13 -135.70   92.64    9.84 -179.64

DOCKED: MODEL       62
DOCKED: USER    Run = 62
DOCKED: USER    DPF = ligand_dock.biased.dpf
DOCKED: USER  
DOCKED: USER    Estimated Free Energy of Binding    =   -9.57 kcal/mol  [=(1)+(2)+(3)-(4)]
DOCKED: USER    Estimated Inhibition Constant, Ki   =   96.11 nM (nanomolar)  [Temperature = 298.15 K]
DOCKED: USER    
DOCKED: USER    (1) Final Intermolecular Energy     =  -11.96 kcal/mol
DOCKED: USER        vdW + Hbond + desolv Energy     =  -11.96 kcal/mol
DOCKED: USER        Electrostatic Energy            =   +0.00 kcal/mol
DOCKED: USER    (2) Final Total Internal Energy     =   -0.94 kcal/mol
DOCKED: USER    (3) Torsional Free Energy           =   +2.39 kcal/mol
DOCKED: USER    (4) Unbound System's Energy  [=(2)] =   -0.94 kcal/mol
DOCKED: USER    
DOCKED: USER    
DOCKED: USER    NEWDPF move ligand.dum.pdbqt
DOCKED: USER    NEWDPF about 0.108000 0.248000 -0.022000
DOCKED: USER    NEWDPF tran0 38.147055 11.269876 121.733833
DOCKED: USER    NEWDPF quaternion0 0.788847 0.525517 -0.124037 0.293542
DOCKED: USER    NEWDPF axisangle0 0.825200 0.549735 -0.129753 145.859704
DOCKED: USER    NEWDPF quat0 0.825200 0.549735 -0.129753 145.859704
DOCKED: USER    NEWDPF dihe0 -140.25 -174.09 85.63 -154.13 -135.70 92.64 9.84 -179.64 
DOCKED: USER  keepresnum = 1 
DOCKED: USER  
DOCKED: REMARK  Name = 
DOCKED: REMARK  8 active torsions:
DOCKED: REMARK  status: ('A' for Active; 'I' for Inactive)
DOCKED: REMARK    1  A    between atoms: C_2  and  C_10
DOCKED: REMARK    2  A    between atoms: N_3  and  C_4
DOCKED: REMARK    3  A    between atoms: C_10  and  C_11
DOCKED: REMARK    4  A    between atoms: C_11  and  C_12
DOCKED: REMARK    5  A    between atoms: C_12  and  C_13
DOCKED: REMARK    6  A    between atoms: C_13  and  C_14
DOCKED: REMARK    7  A    between atoms: C_14  and  C_15
DOCKED: REMARK    8  A    between atoms: C_15  and  C_16
DOCKED: REMARK                            x       y       z     vdW  Elec       q    Type
DOCKED: REMARK                         _______ _______ _______ _____ _____    ______ ____
DOCKED: USER                              x       y       z     vdW  Elec       q    Type
DOCKED: USER                           _______ _______ _______ _____ _____    ______ ____
DOCKED: ROOT
DOCKED: ATOM      1  C   UNL     1      37.066  11.288 122.771 -0.61 -0.00    +0.000 C 
DOCKED: ENDROOT
DOCKED: BRANCH   1   3
DOCKED: ATOM      2  O   UNL     1      36.918   9.372 121.356 -2.43 -0.00    +0.000 OA
DOCKED: ATOM      3  C   UNL     1      36.389  10.042 122.284 -0.67 -0.00    +0.000 C 
DOCKED: ATOM      4  N   UNL     1      35.148   9.624 122.874 -0.59 -0.00    +0.000 N 
DOCKED: ATOM      5  H   UNL     1      34.677  10.263 123.457 -0.42 -0.00    +0.000 HD
DOCKED: BRANCH   4   6
DOCKED: ATOM      6  C   UNL     1      34.548   8.334 122.671 -0.61 -0.00    +0.000 A 
DOCKED: ATOM      7  C   UNL     1      34.140   7.960 121.380 -0.56 -0.00    +0.000 A 
DOCKED: ATOM      8  C   UNL     1      33.532   6.720 121.160 -0.38 -0.00    +0.000 A 
DOCKED: ATOM      9  C   UNL     1      33.312   5.849 122.229 -0.60 -0.00    +0.000 A 
DOCKED: ATOM     10  C   UNL     1      33.695   6.218 123.521 -0.59 -0.00    +0.000 A 
DOCKED: ATOM     11  C   UNL     1      34.303   7.458 123.746 -0.56 -0.00    +0.000 A 
DOCKED: ATOM     12  CM  UNL     1      33.921   7.090 122.451 +0.00 -0.00    +0.000 AC
DOCKED: ENDBRANCH   4   6
DOCKED: ENDBRANCH   1   3
DOCKED: BRANCH   1  12
DOCKED: ATOM     13  C   UNL     1      36.809  12.446 121.799 -0.54 -0.00    +0.000 C 
DOCKED: BRANCH  12  13
DOCKED: ATOM     14  C   UNL     1      37.552  13.734 122.193 -0.48 -0.00    +0.000 C 
DOCKED: BRANCH  13  14
DOCKED: ATOM     15  C   UNL     1      37.724  14.728 121.026 -0.32 -0.00    +0.000 C 
DOCKED: BRANCH  14  15
DOCKED: ATOM     16  C   UNL     1      37.076  16.091 121.324 -0.22 -0.00    +0.000 C 
DOCKED: BRANCH  15  16
DOCKED: ATOM     17  C   UNL     1      36.852  16.314 122.826 -0.30 -0.00    +0.000 C 
DOCKED: BRANCH  16  17
DOCKED: ATOM     18  C   UNL     1      35.404  16.194 123.198 -0.41 -0.00    +0.000 C 
DOCKED: ATOM     19  N   UNL     1      34.983  15.238 124.173 -0.56 -0.00    +0.000 N 
DOCKED: ATOM     20  O   UNL     1      33.678  15.136 124.516 -0.62 -0.00    +0.000 OA
DOCKED: ATOM     21  O   UNL     1      34.558  16.963 122.666 -0.43 -0.00    +0.000 OA
DOCKED: ATOM     22  H   UNL     1      35.648  14.651 124.599 -0.05 -0.00    +0.000 HD
DOCKED: ENDBRANCH  16  17
DOCKED: ENDBRANCH  15  16
DOCKED: ENDBRANCH  14  15
DOCKED: ENDBRANCH  13  14
DOCKED: ENDBRANCH  12  13
DOCKED: ENDBRANCH   1  12
DOCKED: TORSDOF 8DOCKED: TER
DOCKED: ENDMDL
________________________________________________________________________________


	BEGINNING GENETIC ALGORITHM DOCKING 63 of 100
Run: 63 Seed: 820564992 425621648 [ Run 63 of 100 GA/GALS ]
Beginning LAMARCKIAN GENETIC ALGORITHM (LGA), with a maximum of 2500000 energy evaluations.

Final-Value: -12.820


	FINAL GENETIC ALGORITHM DOCKED STATE
	_______________________________________________


Detailed state:  trans 37.970 11.360 123.249 quatxyzw -0.828180 -0.512537 -0.173787 0.145676 center 0.108 0.248 -0.022 ntor 8 -85.1097 45.7785 25.7856 -59.8067 -29.4415 -17.0505 -34.0548 108.5611
State:	 37.970  11.360 123.249  -0.837 -0.518 -0.176 163.247    -85.11   45.78   25.79  -59.81  -29.44  -17.05  -34.05  108.56

DOCKED: MODEL       63
DOCKED: USER    Run = 63
DOCKED: USER    DPF = ligand_dock.biased.dpf
DOCKED: USER  
DOCKED: USER    Estimated Free Energy of Binding    =   -9.63 kcal/mol  [=(1)+(2)+(3)-(4)]
DOCKED: USER    Estimated Inhibition Constant, Ki   =   86.81 nM (nanomolar)  [Temperature = 298.15 K]
DOCKED: USER    
DOCKED: USER    (1) Final Intermolecular Energy     =  -12.02 kcal/mol
DOCKED: USER        vdW + Hbond + desolv Energy     =  -12.02 kcal/mol
DOCKED: USER        Electrostatic Energy            =   +0.00 kcal/mol
DOCKED: USER    (2) Final Total Internal Energy     =   -0.80 kcal/mol
DOCKED: USER    (3) Torsional Free Energy           =   +2.39 kcal/mol
DOCKED: USER    (4) Unbound System's Energy  [=(2)] =   -0.80 kcal/mol
DOCKED: USER    
DOCKED: USER    
DOCKED: USER    NEWDPF move ligand.dum.pdbqt
DOCKED: USER    NEWDPF about 0.108000 0.248000 -0.022000
DOCKED: USER    NEWDPF tran0 37.969943 11.360317 123.249487
DOCKED: USER    NEWDPF quaternion0 -0.828180 -0.512537 -0.173787 0.145676
DOCKED: USER    NEWDPF axisangle0 -0.837110 -0.518064 -0.175661 163.247120
DOCKED: USER    NEWDPF quat0 -0.837110 -0.518064 -0.175661 163.247120
DOCKED: USER    NEWDPF dihe0 -85.11 45.78 25.79 -59.81 -29.44 -17.05 -34.05 108.56 
DOCKED: USER  keepresnum = 1 
DOCKED: USER  
DOCKED: REMARK  Name = 
DOCKED: REMARK  8 active torsions:
DOCKED: REMARK  status: ('A' for Active; 'I' for Inactive)
DOCKED: REMARK    1  A    between atoms: C_2  and  C_10
DOCKED: REMARK    2  A    between atoms: N_3  and  C_4
DOCKED: REMARK    3  A    between atoms: C_10  and  C_11
DOCKED: REMARK    4  A    between atoms: C_11  and  C_12
DOCKED: REMARK    5  A    between atoms: C_12  and  C_13
DOCKED: REMARK    6  A    between atoms: C_13  and  C_14
DOCKED: REMARK    7  A    between atoms: C_14  and  C_15
DOCKED: REMARK    8  A    between atoms: C_15  and  C_16
DOCKED: REMARK                            x       y       z     vdW  Elec       q    Type
DOCKED: REMARK                         _______ _______ _______ _____ _____    ______ ____
DOCKED: USER                              x       y       z     vdW  Elec       q    Type
DOCKED: USER                           _______ _______ _______ _____ _____    ______ ____
DOCKED: ROOT
DOCKED: ATOM      1  C   UNL     1      36.570  11.714 122.849 -0.67 -0.00    +0.000 C 
DOCKED: ENDROOT
DOCKED: BRANCH   1   3
DOCKED: ATOM      2  O   UNL     1      36.768   9.819 121.413 -1.90 -0.00    +0.000 OA
DOCKED: ATOM      3  C   UNL     1      36.198  10.328 122.415 -0.67 -0.00    +0.000 C 
DOCKED: ATOM      4  N   UNL     1      35.197   9.595 123.140 -0.57 -0.00    +0.000 N 
DOCKED: ATOM      5  H   UNL     1      34.648  10.087 123.793 -0.49 -0.00    +0.000 HD
DOCKED: BRANCH   4   6
DOCKED: ATOM      6  C   UNL     1      34.946   8.189 122.977 -0.61 -0.00    +0.000 A 
DOCKED: ATOM      7  C   UNL     1      33.658   7.757 122.622 -0.63 -0.00    +0.000 A 
DOCKED: ATOM      8  C   UNL     1      33.382   6.393 122.481 -0.62 -0.00    +0.000 A 
DOCKED: ATOM      9  C   UNL     1      34.385   5.449 122.708 -0.29 -0.00    +0.000 A 
DOCKED: ATOM     10  C   UNL     1      35.665   5.866 123.082 -0.63 -0.00    +0.000 A 
DOCKED: ATOM     11  C   UNL     1      35.946   7.228 123.225 -0.66 -0.00    +0.000 A 
DOCKED: ATOM     12  CM  UNL     1      34.663   6.814 122.849 +0.00 -0.00    +0.000 AC
DOCKED: ENDBRANCH   4   6
DOCKED: ENDBRANCH   1   3
DOCKED: BRANCH   1  12
DOCKED: ATOM     13  C   UNL     1      37.527  12.349 121.834 -0.44 -0.00    +0.000 C 
DOCKED: BRANCH  12  13
DOCKED: ATOM     14  C   UNL     1      37.223  13.835 121.575 -0.41 -0.00    +0.000 C 
DOCKED: BRANCH  13  14
DOCKED: ATOM     15  C   UNL     1      37.080  14.669 122.865 -0.45 -0.00    +0.000 C 
DOCKED: BRANCH  14  15
DOCKED: ATOM     16  C   UNL     1      35.831  15.568 122.839 -0.34 -0.00    +0.000 C 
DOCKED: BRANCH  15  16
DOCKED: ATOM     17  C   UNL     1      34.795  15.156 123.893 -0.58 -0.00    +0.000 C 
DOCKED: BRANCH  16  17
DOCKED: ATOM     18  C   UNL     1      34.633  16.203 124.955 -0.49 -0.00    +0.000 C 
DOCKED: ATOM     19  N   UNL     1      33.671  16.035 125.998 -0.48 -0.00    +0.000 N 
DOCKED: ATOM     20  O   UNL     1      33.531  16.973 126.962 -0.56 -0.00    +0.000 OA
DOCKED: ATOM     21  O   UNL     1      35.373  17.224 124.942 -0.36 -0.00    +0.000 OA
DOCKED: ATOM     22  H   UNL     1      33.106  15.229 126.015 -0.16 -0.00    +0.000 HD
DOCKED: ENDBRANCH  16  17
DOCKED: ENDBRANCH  15  16
DOCKED: ENDBRANCH  14  15
DOCKED: ENDBRANCH  13  14
DOCKED: ENDBRANCH  12  13
DOCKED: ENDBRANCH   1  12
DOCKED: TORSDOF 8DOCKED: TER
DOCKED: ENDMDL
________________________________________________________________________________


	BEGINNING GENETIC ALGORITHM DOCKING 64 of 100
Run: 64 Seed: 456000911 1160347868 [ Run 64 of 100 GA/GALS ]
Beginning LAMARCKIAN GENETIC ALGORITHM (LGA), with a maximum of 2500000 energy evaluations.

Final-Value: -13.017


	FINAL GENETIC ALGORITHM DOCKED STATE
	_______________________________________________


Detailed state:  trans 38.975 14.009 119.483 quatxyzw -0.149497 -0.047430 0.520807 0.839143 center 0.108 0.248 -0.022 ntor 8 174.6633 33.6016 -74.4089 165.1796 -32.3273 -175.5636 -115.5170 -51.9346
State:	 38.975  14.009 119.483  -0.275 -0.087  0.958 65.901    174.66   33.60  -74.41  165.18  -32.33 -175.56 -115.52  -51.93

DOCKED: MODEL       64
DOCKED: USER    Run = 64
DOCKED: USER    DPF = ligand_dock.biased.dpf
DOCKED: USER  
DOCKED: USER    Estimated Free Energy of Binding    =   -9.50 kcal/mol  [=(1)+(2)+(3)-(4)]
DOCKED: USER    Estimated Inhibition Constant, Ki   =  109.60 nM (nanomolar)  [Temperature = 298.15 K]
DOCKED: USER    
DOCKED: USER    (1) Final Intermolecular Energy     =  -11.88 kcal/mol
DOCKED: USER        vdW + Hbond + desolv Energy     =  -11.88 kcal/mol
DOCKED: USER        Electrostatic Energy            =   +0.00 kcal/mol
DOCKED: USER    (2) Final Total Internal Energy     =   -1.14 kcal/mol
DOCKED: USER    (3) Torsional Free Energy           =   +2.39 kcal/mol
DOCKED: USER    (4) Unbound System's Energy  [=(2)] =   -1.14 kcal/mol
DOCKED: USER    
DOCKED: USER    
DOCKED: USER    NEWDPF move ligand.dum.pdbqt
DOCKED: USER    NEWDPF about 0.108000 0.248000 -0.022000
DOCKED: USER    NEWDPF tran0 38.975031 14.008992 119.483374
DOCKED: USER    NEWDPF quaternion0 -0.149497 -0.047430 0.520807 0.839143
DOCKED: USER    NEWDPF axisangle0 -0.274856 -0.087202 0.957523 65.900538
DOCKED: USER    NEWDPF quat0 -0.274856 -0.087202 0.957523 65.900538
DOCKED: USER    NEWDPF dihe0 174.66 33.60 -74.41 165.18 -32.33 -175.56 -115.52 -51.93 
DOCKED: USER  keepresnum = 1 
DOCKED: USER  
DOCKED: REMARK  Name = 
DOCKED: REMARK  8 active torsions:
DOCKED: REMARK  status: ('A' for Active; 'I' for Inactive)
DOCKED: REMARK    1  A    between atoms: C_2  and  C_10
DOCKED: REMARK    2  A    between atoms: N_3  and  C_4
DOCKED: REMARK    3  A    between atoms: C_10  and  C_11
DOCKED: REMARK    4  A    between atoms: C_11  and  C_12
DOCKED: REMARK    5  A    between atoms: C_12  and  C_13
DOCKED: REMARK    6  A    between atoms: C_13  and  C_14
DOCKED: REMARK    7  A    between atoms: C_14  and  C_15
DOCKED: REMARK    8  A    between atoms: C_15  and  C_16
DOCKED: REMARK                            x       y       z     vdW  Elec       q    Type
DOCKED: REMARK                         _______ _______ _______ _____ _____    ______ ____
DOCKED: USER                              x       y       z     vdW  Elec       q    Type
DOCKED: USER                           _______ _______ _______ _____ _____    ______ ____
DOCKED: ROOT
DOCKED: ATOM      1  C   UNL     1      37.575  13.771 119.007 -0.37 -0.00    +0.000 C 
DOCKED: ENDROOT
DOCKED: BRANCH   1   3
DOCKED: ATOM      2  O   UNL     1      36.226  15.739 119.022 -0.21 -0.00    +0.000 OA
DOCKED: ATOM      3  C   UNL     1      36.996  14.982 119.673 -0.24 -0.00    +0.000 C 
DOCKED: ATOM      4  N   UNL     1      37.323  15.272 121.042 -0.23 -0.00    +0.000 N 
DOCKED: ATOM      5  H   UNL     1      38.064  14.771 121.454 +0.00 -0.00    +0.000 HD
DOCKED: BRANCH   4   6
DOCKED: ATOM      6  C   UNL     1      36.639  16.245 121.850 -0.21 -0.00    +0.000 A 
DOCKED: ATOM      7  C   UNL     1      36.308  15.927 123.177 -0.34 -0.00    +0.000 A 
DOCKED: ATOM      8  C   UNL     1      35.621  16.846 123.975 -0.33 -0.00    +0.000 A 
DOCKED: ATOM      9  C   UNL     1      35.244  18.085 123.451 -0.28 -0.00    +0.000 A 
DOCKED: ATOM     10  C   UNL     1      35.549  18.404 122.125 -0.24 -0.00    +0.000 A 
DOCKED: ATOM     11  C   UNL     1      36.236  17.487 121.323 -0.18 -0.00    +0.000 A 
DOCKED: ATOM     12  CM  UNL     1      35.933  17.165 122.650 +0.00 -0.00    +0.000 AC
DOCKED: ENDBRANCH   4   6
DOCKED: ENDBRANCH   1   3
DOCKED: BRANCH   1  12
DOCKED: ATOM     13  C   UNL     1      37.908  12.698 120.050 -0.45 -0.00    +0.000 C 
DOCKED: BRANCH  12  13
DOCKED: ATOM     14  C   UNL     1      36.682  12.266 120.875 -0.46 -0.00    +0.000 C 
DOCKED: BRANCH  13  14
DOCKED: ATOM     15  C   UNL     1      36.715  12.762 122.335 -0.55 -0.00    +0.000 C 
DOCKED: BRANCH  14  15
DOCKED: ATOM     16  C   UNL     1      36.310  11.662 123.332 -0.70 -0.00    +0.000 C 
DOCKED: BRANCH  15  16
DOCKED: ATOM     17  C   UNL     1      35.498  10.543 122.666 -0.64 -0.00    +0.000 C 
DOCKED: BRANCH  16  17
DOCKED: ATOM     18  C   UNL     1      36.340   9.332 122.388 -0.72 -0.00    +0.000 C 
DOCKED: ATOM     19  N   UNL     1      36.688   8.435 123.444 -0.66 -0.00    +0.000 N 
DOCKED: ATOM     20  O   UNL     1      37.439   7.338 123.193 -2.15 -0.00    +0.000 OA
DOCKED: ATOM     21  O   UNL     1      36.717   9.093 121.209 -2.63 -0.00    +0.000 OA
DOCKED: ATOM     22  H   UNL     1      36.378   8.615 124.360 -0.29 -0.00    +0.000 HD
DOCKED: ENDBRANCH  16  17
DOCKED: ENDBRANCH  15  16
DOCKED: ENDBRANCH  14  15
DOCKED: ENDBRANCH  13  14
DOCKED: ENDBRANCH  12  13
DOCKED: ENDBRANCH   1  12
DOCKED: TORSDOF 8DOCKED: TER
DOCKED: ENDMDL
________________________________________________________________________________


	BEGINNING GENETIC ALGORITHM DOCKING 65 of 100
Run: 65 Seed: 874583650 1884058113 [ Run 65 of 100 GA/GALS ]
Beginning LAMARCKIAN GENETIC ALGORITHM (LGA), with a maximum of 2500000 energy evaluations.

Final-Value: -13.050


	FINAL GENETIC ALGORITHM DOCKED STATE
	_______________________________________________


Detailed state:  trans 37.846 15.639 118.605 quatxyzw -0.051524 -0.281109 -0.119256 -0.950842 center 0.108 0.248 -0.022 ntor 8 -75.2510 -133.9522 -8.9418 78.8306 28.1790 -143.8953 -28.8926 -167.8801
State:	 37.846  15.639 118.605  -0.166 -0.908 -0.385 -36.079    -75.25 -133.95   -8.94   78.83   28.18 -143.90  -28.89 -167.88

DOCKED: MODEL       65
DOCKED: USER    Run = 65
DOCKED: USER    DPF = ligand_dock.biased.dpf
DOCKED: USER  
DOCKED: USER    Estimated Free Energy of Binding    =   -9.86 kcal/mol  [=(1)+(2)+(3)-(4)]
DOCKED: USER    Estimated Inhibition Constant, Ki   =   58.80 nM (nanomolar)  [Temperature = 298.15 K]
DOCKED: USER    
DOCKED: USER    (1) Final Intermolecular Energy     =  -12.25 kcal/mol
DOCKED: USER        vdW + Hbond + desolv Energy     =  -12.25 kcal/mol
DOCKED: USER        Electrostatic Energy            =   +0.00 kcal/mol
DOCKED: USER    (2) Final Total Internal Energy     =   -0.80 kcal/mol
DOCKED: USER    (3) Torsional Free Energy           =   +2.39 kcal/mol
DOCKED: USER    (4) Unbound System's Energy  [=(2)] =   -0.80 kcal/mol
DOCKED: USER    
DOCKED: USER    
DOCKED: USER    NEWDPF move ligand.dum.pdbqt
DOCKED: USER    NEWDPF about 0.108000 0.248000 -0.022000
DOCKED: USER    NEWDPF tran0 37.845545 15.638936 118.605127
DOCKED: USER    NEWDPF quaternion0 -0.051524 -0.281109 -0.119256 -0.950842
DOCKED: USER    NEWDPF axisangle0 -0.166382 -0.907753 -0.385100 -36.079325
DOCKED: USER    NEWDPF quat0 -0.166382 -0.907753 -0.385100 -36.079325
DOCKED: USER    NEWDPF dihe0 -75.25 -133.95 -8.94 78.83 28.18 -143.90 -28.89 -167.88 
DOCKED: USER  keepresnum = 1 
DOCKED: USER  
DOCKED: REMARK  Name = 
DOCKED: REMARK  8 active torsions:
DOCKED: REMARK  status: ('A' for Active; 'I' for Inactive)
DOCKED: REMARK    1  A    between atoms: C_2  and  C_10
DOCKED: REMARK    2  A    between atoms: N_3  and  C_4
DOCKED: REMARK    3  A    between atoms: C_10  and  C_11
DOCKED: REMARK    4  A    between atoms: C_11  and  C_12
DOCKED: REMARK    5  A    between atoms: C_12  and  C_13
DOCKED: REMARK    6  A    between atoms: C_13  and  C_14
DOCKED: REMARK    7  A    between atoms: C_14  and  C_15
DOCKED: REMARK    8  A    between atoms: C_15  and  C_16
DOCKED: REMARK                            x       y       z     vdW  Elec       q    Type
DOCKED: REMARK                         _______ _______ _______ _____ _____    ______ ____
DOCKED: USER                              x       y       z     vdW  Elec       q    Type
DOCKED: USER                           _______ _______ _______ _____ _____    ______ ____
DOCKED: ROOT
DOCKED: ATOM      1  C   UNL     1      37.364  14.267 118.246 -0.34 -0.00    +0.000 C 
DOCKED: ENDROOT
DOCKED: BRANCH   1   3
DOCKED: ATOM      2  O   UNL     1      35.882  15.937 117.403 -0.17 -0.00    +0.000 OA
DOCKED: ATOM      3  C   UNL     1      36.042  14.724 117.706 -0.31 -0.00    +0.000 C 
DOCKED: ATOM      4  N   UNL     1      34.970  13.780 117.542 -0.35 -0.00    +0.000 N 
DOCKED: ATOM      5  H   UNL     1      35.069  12.894 117.959 -0.09 -0.00    +0.000 HD
DOCKED: BRANCH   4   6
DOCKED: ATOM      6  C   UNL     1      33.764  14.045 116.807 -0.30 -0.00    +0.000 A 
DOCKED: ATOM      7  C   UNL     1      32.612  13.290 117.080 -0.35 -0.00    +0.000 A 
DOCKED: ATOM      8  C   UNL     1      31.432  13.511 116.361 -0.46 -0.00    +0.000 A 
DOCKED: ATOM      9  C   UNL     1      31.397  14.478 115.355 -0.28 -0.00    +0.000 A 
DOCKED: ATOM     10  C   UNL     1      32.543  15.222 115.060 -0.19 -0.00    +0.000 A 
DOCKED: ATOM     11  C   UNL     1      33.725  15.003 115.775 -0.22 -0.00    +0.000 A 
DOCKED: ATOM     12  CM  UNL     1      32.579  14.258 116.073 +0.00 -0.00    +0.000 AC
DOCKED: ENDBRANCH   4   6
DOCKED: ENDBRANCH   1   3
DOCKED: BRANCH   1  12
DOCKED: ATOM     13  C   UNL     1      37.379  14.377 119.775 -0.32 -0.00    +0.000 C 
DOCKED: BRANCH  12  13
DOCKED: ATOM     14  C   UNL     1      38.187  13.253 120.447 -0.42 -0.00    +0.000 C 
DOCKED: BRANCH  13  14
DOCKED: ATOM     15  C   UNL     1      37.442  11.903 120.496 -0.53 -0.00    +0.000 C 
DOCKED: BRANCH  14  15
DOCKED: ATOM     16  C   UNL     1      36.335  11.889 121.565 -0.50 -0.00    +0.000 C 
DOCKED: BRANCH  15  16
DOCKED: ATOM     17  C   UNL     1      36.707  11.028 122.779 -0.67 -0.00    +0.000 C 
DOCKED: BRANCH  16  17
DOCKED: ATOM     18  C   UNL     1      36.807   9.574 122.422 -0.68 -0.00    +0.000 C 
DOCKED: ATOM     19  N   UNL     1      36.995   8.590 123.441 -0.66 -0.00    +0.000 N 
DOCKED: ATOM     20  O   UNL     1      37.075   7.278 123.122 -2.26 -0.00    +0.000 OA
DOCKED: ATOM     21  O   UNL     1      36.695   9.218 121.218 -2.62 -0.00    +0.000 OA
DOCKED: ATOM     22  H   UNL     1      37.065   8.869 124.382 -0.53 -0.00    +0.000 HD
DOCKED: ENDBRANCH  16  17
DOCKED: ENDBRANCH  15  16
DOCKED: ENDBRANCH  14  15
DOCKED: ENDBRANCH  13  14
DOCKED: ENDBRANCH  12  13
DOCKED: ENDBRANCH   1  12
DOCKED: TORSDOF 8DOCKED: TER
DOCKED: ENDMDL
________________________________________________________________________________


	BEGINNING GENETIC ALGORITHM DOCKING 66 of 100
Run: 66 Seed: 97439121 127010715 [ Run 66 of 100 GA/GALS ]
Beginning LAMARCKIAN GENETIC ALGORITHM (LGA), with a maximum of 2500000 energy evaluations.

Final-Value: -13.378


	FINAL GENETIC ALGORITHM DOCKED STATE
	_______________________________________________


Detailed state:  trans 38.361 10.929 122.436 quatxyzw 0.872439 0.481550 0.074450 -0.037648 center 0.108 0.248 -0.022 ntor 8 -87.9223 86.9032 69.4871 39.8605 93.5175 73.1103 -65.3453 139.6692
State:	 38.361  10.929 122.436   0.873  0.482  0.075 -175.685    -87.92   86.90   69.49   39.86   93.52   73.11  -65.35  139.67

DOCKED: MODEL       66
DOCKED: USER    Run = 66
DOCKED: USER    DPF = ligand_dock.biased.dpf
DOCKED: USER  
DOCKED: USER    Estimated Free Energy of Binding    =  -10.20 kcal/mol  [=(1)+(2)+(3)-(4)]
DOCKED: USER    Estimated Inhibition Constant, Ki   =   33.36 nM (nanomolar)  [Temperature = 298.15 K]
DOCKED: USER    
DOCKED: USER    (1) Final Intermolecular Energy     =  -12.59 kcal/mol
DOCKED: USER        vdW + Hbond + desolv Energy     =  -12.59 kcal/mol
DOCKED: USER        Electrostatic Energy            =   +0.00 kcal/mol
DOCKED: USER    (2) Final Total Internal Energy     =   -0.79 kcal/mol
DOCKED: USER    (3) Torsional Free Energy           =   +2.39 kcal/mol
DOCKED: USER    (4) Unbound System's Energy  [=(2)] =   -0.79 kcal/mol
DOCKED: USER    
DOCKED: USER    
DOCKED: USER    NEWDPF move ligand.dum.pdbqt
DOCKED: USER    NEWDPF about 0.108000 0.248000 -0.022000
DOCKED: USER    NEWDPF tran0 38.361051 10.928623 122.436174
DOCKED: USER    NEWDPF quaternion0 0.872439 0.481550 0.074450 -0.037648
DOCKED: USER    NEWDPF axisangle0 0.873058 0.481891 0.074503 -175.684835
DOCKED: USER    NEWDPF quat0 0.873058 0.481891 0.074503 -175.684835
DOCKED: USER    NEWDPF dihe0 -87.92 86.90 69.49 39.86 93.52 73.11 -65.35 139.67 
DOCKED: USER  keepresnum = 1 
DOCKED: USER  
DOCKED: REMARK  Name = 
DOCKED: REMARK  8 active torsions:
DOCKED: REMARK  status: ('A' for Active; 'I' for Inactive)
DOCKED: REMARK    1  A    between atoms: C_2  and  C_10
DOCKED: REMARK    2  A    between atoms: N_3  and  C_4
DOCKED: REMARK    3  A    between atoms: C_10  and  C_11
DOCKED: REMARK    4  A    between atoms: C_11  and  C_12
DOCKED: REMARK    5  A    between atoms: C_12  and  C_13
DOCKED: REMARK    6  A    between atoms: C_13  and  C_14
DOCKED: REMARK    7  A    between atoms: C_14  and  C_15
DOCKED: REMARK    8  A    between atoms: C_15  and  C_16
DOCKED: REMARK                            x       y       z     vdW  Elec       q    Type
DOCKED: REMARK                         _______ _______ _______ _____ _____    ______ ____
DOCKED: USER                              x       y       z     vdW  Elec       q    Type
DOCKED: USER                           _______ _______ _______ _____ _____    ______ ____
DOCKED: ROOT
DOCKED: ATOM      1  C   UNL     1      36.949  11.426 122.480 -0.61 -0.00    +0.000 C 
DOCKED: ENDROOT
DOCKED: BRANCH   1   3
DOCKED: ATOM      2  O   UNL     1      36.941   9.400 121.219 -2.53 -0.00    +0.000 OA
DOCKED: ATOM      3  C   UNL     1      36.334  10.128 122.050 -0.60 -0.00    +0.000 C 
DOCKED: ATOM      4  N   UNL     1      35.062   9.726 122.584 -0.59 -0.00    +0.000 N 
DOCKED: ATOM      5  H   UNL     1      34.538  10.397 123.079 -0.33 -0.00    +0.000 HD
DOCKED: BRANCH   4   6
DOCKED: ATOM      6  C   UNL     1      34.505   8.409 122.444 -0.61 -0.00    +0.000 A 
DOCKED: ATOM      7  C   UNL     1      33.886   8.048 121.236 -0.57 -0.00    +0.000 A 
DOCKED: ATOM      8  C   UNL     1      33.314   6.781 121.084 -0.40 -0.00    +0.000 A 
DOCKED: ATOM      9  C   UNL     1      33.342   5.868 122.141 -0.58 -0.00    +0.000 A 
DOCKED: ATOM     10  C   UNL     1      33.936   6.224 123.354 -0.66 -0.00    +0.000 A 
DOCKED: ATOM     11  C   UNL     1      34.508   7.490 123.512 -0.65 -0.00    +0.000 A 
DOCKED: ATOM     12  CM  UNL     1      33.915   7.137 122.295 +0.00 -0.00    +0.000 AC
DOCKED: ENDBRANCH   4   6
DOCKED: ENDBRANCH   1   3
DOCKED: BRANCH   1  12
DOCKED: ATOM     13  C   UNL     1      37.650  12.100 121.295 -0.35 -0.00    +0.000 C 
DOCKED: BRANCH  12  13
DOCKED: ATOM     14  C   UNL     1      36.905  13.348 120.790 -0.32 -0.00    +0.000 C 
DOCKED: BRANCH  13  14
DOCKED: ATOM     15  C   UNL     1      37.842  14.510 120.402 -0.32 -0.00    +0.000 C 
DOCKED: BRANCH  14  15
DOCKED: ATOM     16  C   UNL     1      39.297  14.250 120.832 -0.25 -0.00    +0.000 C 
DOCKED: BRANCH  15  16
DOCKED: ATOM     17  C   UNL     1      40.026  15.539 121.232 -0.28 -0.00    +0.000 C 
DOCKED: BRANCH  16  17
DOCKED: ATOM     18  C   UNL     1      41.151  15.271 122.188 -0.47 -0.00    +0.000 C 
DOCKED: ATOM     19  N   UNL     1      42.027  16.326 122.589 -0.38 -0.00    +0.000 N 
DOCKED: ATOM     20  O   UNL     1      43.037  16.087 123.458 -1.01 +0.00    +0.000 OA
DOCKED: ATOM     21  O   UNL     1      41.304  14.113 122.661 -1.07 +0.00    +0.000 OA
DOCKED: ATOM     22  H   UNL     1      41.895  17.233 122.231 -0.00 -0.00    +0.000 HD
DOCKED: ENDBRANCH  16  17
DOCKED: ENDBRANCH  15  16
DOCKED: ENDBRANCH  14  15
DOCKED: ENDBRANCH  13  14
DOCKED: ENDBRANCH  12  13
DOCKED: ENDBRANCH   1  12
DOCKED: TORSDOF 8DOCKED: TER
DOCKED: ENDMDL
________________________________________________________________________________


	BEGINNING GENETIC ALGORITHM DOCKING 67 of 100
Run: 67 Seed: 905687616 767018854 [ Run 67 of 100 GA/GALS ]
Beginning LAMARCKIAN GENETIC ALGORITHM (LGA), with a maximum of 2500000 energy evaluations.

Final-Value: -12.474


	FINAL GENETIC ALGORITHM DOCKED STATE
	_______________________________________________


Detailed state:  trans 37.265 14.663 123.392 quatxyzw 0.292929 -0.129078 -0.845016 -0.428345 center 0.108 0.248 -0.022 ntor 8 128.3085 -173.9059 -87.6271 36.2306 -161.7496 -171.6465 97.9476 74.6056
State:	 37.265  14.663 123.392   0.324 -0.143 -0.935 -129.275    128.31 -173.91  -87.63   36.23 -161.75 -171.65   97.95   74.61

DOCKED: MODEL       67
DOCKED: USER    Run = 67
DOCKED: USER    DPF = ligand_dock.biased.dpf
DOCKED: USER  
DOCKED: USER    Estimated Free Energy of Binding    =   -9.26 kcal/mol  [=(1)+(2)+(3)-(4)]
DOCKED: USER    Estimated Inhibition Constant, Ki   =  162.17 nM (nanomolar)  [Temperature = 298.15 K]
DOCKED: USER    
DOCKED: USER    (1) Final Intermolecular Energy     =  -11.65 kcal/mol
DOCKED: USER        vdW + Hbond + desolv Energy     =  -11.65 kcal/mol
DOCKED: USER        Electrostatic Energy            =   +0.00 kcal/mol
DOCKED: USER    (2) Final Total Internal Energy     =   -0.82 kcal/mol
DOCKED: USER    (3) Torsional Free Energy           =   +2.39 kcal/mol
DOCKED: USER    (4) Unbound System's Energy  [=(2)] =   -0.82 kcal/mol
DOCKED: USER    
DOCKED: USER    
DOCKED: USER    NEWDPF move ligand.dum.pdbqt
DOCKED: USER    NEWDPF about 0.108000 0.248000 -0.022000
DOCKED: USER    NEWDPF tran0 37.264658 14.663468 123.391996
DOCKED: USER    NEWDPF quaternion0 0.292929 -0.129078 -0.845016 -0.428345
DOCKED: USER    NEWDPF axisangle0 0.324174 -0.142846 -0.935150 -129.274856
DOCKED: USER    NEWDPF quat0 0.324174 -0.142846 -0.935150 -129.274856
DOCKED: USER    NEWDPF dihe0 128.31 -173.91 -87.63 36.23 -161.75 -171.65 97.95 74.61 
DOCKED: USER  keepresnum = 1 
DOCKED: USER  
DOCKED: REMARK  Name = 
DOCKED: REMARK  8 active torsions:
DOCKED: REMARK  status: ('A' for Active; 'I' for Inactive)
DOCKED: REMARK    1  A    between atoms: C_2  and  C_10
DOCKED: REMARK    2  A    between atoms: N_3  and  C_4
DOCKED: REMARK    3  A    between atoms: C_10  and  C_11
DOCKED: REMARK    4  A    between atoms: C_11  and  C_12
DOCKED: REMARK    5  A    between atoms: C_12  and  C_13
DOCKED: REMARK    6  A    between atoms: C_13  and  C_14
DOCKED: REMARK    7  A    between atoms: C_14  and  C_15
DOCKED: REMARK    8  A    between atoms: C_15  and  C_16
DOCKED: REMARK                            x       y       z     vdW  Elec       q    Type
DOCKED: REMARK                         _______ _______ _______ _____ _____    ______ ____
DOCKED: USER                              x       y       z     vdW  Elec       q    Type
DOCKED: USER                           _______ _______ _______ _____ _____    ______ ____
DOCKED: ROOT
DOCKED: ATOM      1  C   UNL     1      36.645  15.788 122.621 -0.34 -0.00    +0.000 C 
DOCKED: ENDROOT
DOCKED: BRANCH   1   3
DOCKED: ATOM      2  O   UNL     1      36.476  17.406 124.367 -0.29 -0.00    +0.000 OA
DOCKED: ATOM      3  C   UNL     1      37.207  16.874 123.488 -0.27 -0.00    +0.000 C 
DOCKED: ATOM      4  N   UNL     1      38.568  17.301 123.311 -0.21 -0.00    +0.000 N 
DOCKED: ATOM      5  H   UNL     1      39.043  16.999 122.504 +0.00 -0.00    +0.000 HD
DOCKED: BRANCH   4   6
DOCKED: ATOM      6  C   UNL     1      39.280  18.138 124.237 -0.19 -0.00    +0.000 A 
DOCKED: ATOM      7  C   UNL     1      40.494  17.686 124.781 -0.20 -0.00    +0.000 A 
DOCKED: ATOM      8  C   UNL     1      41.194  18.471 125.702 -0.27 -0.00    +0.000 A 
DOCKED: ATOM      9  C   UNL     1      40.681  19.708 126.100 -0.16 -0.00    +0.000 A 
DOCKED: ATOM     10  C   UNL     1      39.465  20.159 125.582 -0.08 -0.00    +0.000 A 
DOCKED: ATOM     11  C   UNL     1      38.761  19.377 124.660 -0.11 -0.00    +0.000 A 
DOCKED: ATOM     12  CM  UNL     1      39.979  18.923 125.177 +0.00 -0.00    +0.000 AC
DOCKED: ENDBRANCH   4   6
DOCKED: ENDBRANCH   1   3
DOCKED: BRANCH   1  12
DOCKED: ATOM     13  C   UNL     1      35.524  15.047 123.357 -0.46 -0.00    +0.000 C 
DOCKED: BRANCH  12  13
DOCKED: ATOM     14  C   UNL     1      36.040  13.873 124.207 -0.42 -0.00    +0.000 C 
DOCKED: BRANCH  13  14
DOCKED: ATOM     15  C   UNL     1      35.766  12.491 123.581 -0.54 -0.00    +0.000 C 
DOCKED: BRANCH  14  15
DOCKED: ATOM     16  C   UNL     1      36.964  11.975 122.764 -0.63 -0.00    +0.000 C 
DOCKED: BRANCH  15  16
DOCKED: ATOM     17  C   UNL     1      36.532  11.074 121.600 -0.46 -0.00    +0.000 C 
DOCKED: BRANCH  16  17
DOCKED: ATOM     18  C   UNL     1      36.830   9.629 121.872 -0.61 -0.00    +0.000 C 
DOCKED: ATOM     19  N   UNL     1      36.814   9.126 123.209 -0.63 -0.00    +0.000 N 
DOCKED: ATOM     20  O   UNL     1      37.073   7.821 123.455 -2.66 -0.00    +0.000 OA
DOCKED: ATOM     21  O   UNL     1      37.069   8.850 120.911 -2.71 -0.00    +0.000 OA
DOCKED: ATOM     22  H   UNL     1      36.611   9.733 123.957 -0.41 -0.00    +0.000 HD
DOCKED: ENDBRANCH  16  17
DOCKED: ENDBRANCH  15  16
DOCKED: ENDBRANCH  14  15
DOCKED: ENDBRANCH  13  14
DOCKED: ENDBRANCH  12  13
DOCKED: ENDBRANCH   1  12
DOCKED: TORSDOF 8DOCKED: TER
DOCKED: ENDMDL
________________________________________________________________________________


	BEGINNING GENETIC ALGORITHM DOCKING 68 of 100
Run: 68 Seed: 1700574679 114316814 [ Run 68 of 100 GA/GALS ]
Beginning LAMARCKIAN GENETIC ALGORITHM (LGA), with a maximum of 2500000 energy evaluations.

Final-Value: -13.365


	FINAL GENETIC ALGORITHM DOCKED STATE
	_______________________________________________


Detailed state:  trans 36.070 15.605 121.704 quatxyzw 0.104874 -0.657946 0.726218 0.169458 center 0.108 0.248 -0.022 ntor 8 -145.7900 130.0873 -154.6760 -148.9750 -12.5381 -156.9969 179.6716 -1.2641
State:	 36.070  15.605 121.704   0.106 -0.668  0.737 160.487   -145.79  130.09 -154.68 -148.98  -12.54 -157.00  179.67   -1.26

DOCKED: MODEL       68
DOCKED: USER    Run = 68
DOCKED: USER    DPF = ligand_dock.biased.dpf
DOCKED: USER  
DOCKED: USER    Estimated Free Energy of Binding    =   -9.90 kcal/mol  [=(1)+(2)+(3)-(4)]
DOCKED: USER    Estimated Inhibition Constant, Ki   =   55.37 nM (nanomolar)  [Temperature = 298.15 K]
DOCKED: USER    
DOCKED: USER    (1) Final Intermolecular Energy     =  -12.29 kcal/mol
DOCKED: USER        vdW + Hbond + desolv Energy     =  -12.29 kcal/mol
DOCKED: USER        Electrostatic Energy            =   +0.00 kcal/mol
DOCKED: USER    (2) Final Total Internal Energy     =   -1.08 kcal/mol
DOCKED: USER    (3) Torsional Free Energy           =   +2.39 kcal/mol
DOCKED: USER    (4) Unbound System's Energy  [=(2)] =   -1.08 kcal/mol
DOCKED: USER    
DOCKED: USER    
DOCKED: USER    NEWDPF move ligand.dum.pdbqt
DOCKED: USER    NEWDPF about 0.108000 0.248000 -0.022000
DOCKED: USER    NEWDPF tran0 36.069603 15.604942 121.704153
DOCKED: USER    NEWDPF quaternion0 0.104874 -0.657946 0.726218 0.169458
DOCKED: USER    NEWDPF axisangle0 0.106413 -0.667601 0.736875 160.487418
DOCKED: USER    NEWDPF quat0 0.106413 -0.667601 0.736875 160.487418
DOCKED: USER    NEWDPF dihe0 -145.79 130.09 -154.68 -148.98 -12.54 -157.00 179.67 -1.26 
DOCKED: USER  keepresnum = 1 
DOCKED: USER  
DOCKED: REMARK  Name = 
DOCKED: REMARK  8 active torsions:
DOCKED: REMARK  status: ('A' for Active; 'I' for Inactive)
DOCKED: REMARK    1  A    between atoms: C_2  and  C_10
DOCKED: REMARK    2  A    between atoms: N_3  and  C_4
DOCKED: REMARK    3  A    between atoms: C_10  and  C_11
DOCKED: REMARK    4  A    between atoms: C_11  and  C_12
DOCKED: REMARK    5  A    between atoms: C_12  and  C_13
DOCKED: REMARK    6  A    between atoms: C_13  and  C_14
DOCKED: REMARK    7  A    between atoms: C_14  and  C_15
DOCKED: REMARK    8  A    between atoms: C_15  and  C_16
DOCKED: REMARK                            x       y       z     vdW  Elec       q    Type
DOCKED: REMARK                         _______ _______ _______ _____ _____    ______ ____
DOCKED: USER                              x       y       z     vdW  Elec       q    Type
DOCKED: USER                           _______ _______ _______ _____ _____    ______ ____
DOCKED: ROOT
DOCKED: ATOM      1  C   UNL     1      36.103  16.090 123.121 -0.38 -0.00    +0.000 C 
DOCKED: ENDROOT
DOCKED: BRANCH   1   3
DOCKED: ATOM      2  O   UNL     1      38.126  16.730 124.212 -0.27 -0.00    +0.000 OA
DOCKED: ATOM      3  C   UNL     1      37.579  16.353 123.141 -0.29 -0.00    +0.000 C 
DOCKED: ATOM      4  N   UNL     1      38.354  16.178 121.943 -0.19 -0.00    +0.000 N 
DOCKED: ATOM      5  H   UNL     1      37.869  16.067 121.093 +0.01 -0.00    +0.000 HD
DOCKED: BRANCH   4   6
DOCKED: ATOM      6  C   UNL     1      39.790  16.153 121.905 -0.23 -0.00    +0.000 A 
DOCKED: ATOM      7  C   UNL     1      40.483  15.221 122.695 -0.38 -0.00    +0.000 A 
DOCKED: ATOM      8  C   UNL     1      41.881  15.193 122.694 -0.50 -0.00    +0.000 A 
DOCKED: ATOM      9  C   UNL     1      42.600  16.105 121.918 -0.34 -0.00    +0.000 A 
DOCKED: ATOM     10  C   UNL     1      41.921  17.050 121.145 -0.16 -0.00    +0.000 A 
DOCKED: ATOM     11  C   UNL     1      40.523  17.083 121.142 -0.12 -0.00    +0.000 A 
DOCKED: ATOM     12  CM  UNL     1      41.200  16.134 121.917 +0.00 -0.00    +0.000 AC
DOCKED: ENDBRANCH   4   6
DOCKED: ENDBRANCH   1   3
DOCKED: BRANCH   1  12
DOCKED: ATOM     13  C   UNL     1      35.832  14.582 123.145 -0.41 -0.00    +0.000 C 
DOCKED: BRANCH  12  13
DOCKED: ATOM     14  C   UNL     1      37.115  13.742 123.023 -0.54 -0.00    +0.000 C 
DOCKED: BRANCH  13  14
DOCKED: ATOM     15  C   UNL     1      37.497  13.407 121.566 -0.47 -0.00    +0.000 C 
DOCKED: BRANCH  14  15
DOCKED: ATOM     16  C   UNL     1      37.442  11.895 121.284 -0.48 -0.00    +0.000 C 
DOCKED: BRANCH  15  16
DOCKED: ATOM     17  C   UNL     1      36.486  11.160 122.233 -0.64 -0.00    +0.000 C 
DOCKED: BRANCH  16  17
DOCKED: ATOM     18  C   UNL     1      36.745   9.682 122.251 -0.68 -0.00    +0.000 C 
DOCKED: ATOM     19  N   UNL     1      37.178   9.038 123.451 -0.54 -0.00    +0.000 N 
DOCKED: ATOM     20  O   UNL     1      37.403   7.704 123.472 -2.60 -0.00    +0.000 OA
DOCKED: ATOM     21  O   UNL     1      36.551   9.002 121.208 -2.46 -0.00    +0.000 OA
DOCKED: ATOM     22  H   UNL     1      37.312   9.569 124.269 -0.61 -0.00    +0.000 HD
DOCKED: ENDBRANCH  16  17
DOCKED: ENDBRANCH  15  16
DOCKED: ENDBRANCH  14  15
DOCKED: ENDBRANCH  13  14
DOCKED: ENDBRANCH  12  13
DOCKED: ENDBRANCH   1  12
DOCKED: TORSDOF 8DOCKED: TER
DOCKED: ENDMDL
________________________________________________________________________________


	BEGINNING GENETIC ALGORITHM DOCKING 69 of 100
Run: 69 Seed: 207002407 272434677 [ Run 69 of 100 GA/GALS ]
Beginning LAMARCKIAN GENETIC ALGORITHM (LGA), with a maximum of 2500000 energy evaluations.

Final-Value: -13.542


	FINAL GENETIC ALGORITHM DOCKED STATE
	_______________________________________________


Detailed state:  trans 36.873 15.932 123.702 quatxyzw 0.544535 0.268903 -0.391415 -0.691352 center 0.108 0.248 -0.022 ntor 8 -159.3718 -178.1621 -58.2668 74.2914 156.3604 96.3707 84.8007 111.3728
State:	 36.873  15.932 123.702   0.754  0.372 -0.542 -92.526   -159.37 -178.16  -58.27   74.29  156.36   96.37   84.80  111.37

DOCKED: MODEL       69
DOCKED: USER    Run = 69
DOCKED: USER    DPF = ligand_dock.biased.dpf
DOCKED: USER  
DOCKED: USER    Estimated Free Energy of Binding    =  -10.44 kcal/mol  [=(1)+(2)+(3)-(4)]
DOCKED: USER    Estimated Inhibition Constant, Ki   =   22.16 nM (nanomolar)  [Temperature = 298.15 K]
DOCKED: USER    
DOCKED: USER    (1) Final Intermolecular Energy     =  -12.83 kcal/mol
DOCKED: USER        vdW + Hbond + desolv Energy     =  -12.83 kcal/mol
DOCKED: USER        Electrostatic Energy            =   +0.00 kcal/mol
DOCKED: USER    (2) Final Total Internal Energy     =   -0.71 kcal/mol
DOCKED: USER    (3) Torsional Free Energy           =   +2.39 kcal/mol
DOCKED: USER    (4) Unbound System's Energy  [=(2)] =   -0.71 kcal/mol
DOCKED: USER    
DOCKED: USER    
DOCKED: USER    NEWDPF move ligand.dum.pdbqt
DOCKED: USER    NEWDPF about 0.108000 0.248000 -0.022000
DOCKED: USER    NEWDPF tran0 36.873147 15.931548 123.701862
DOCKED: USER    NEWDPF quaternion0 0.544535 0.268903 -0.391415 -0.691352
DOCKED: USER    NEWDPF axisangle0 0.753663 0.372175 -0.541737 -92.525573
DOCKED: USER    NEWDPF quat0 0.753663 0.372175 -0.541737 -92.525573
DOCKED: USER    NEWDPF dihe0 -159.37 -178.16 -58.27 74.29 156.36 96.37 84.80 111.37 
DOCKED: USER  keepresnum = 1 
DOCKED: USER  
DOCKED: REMARK  Name = 
DOCKED: REMARK  8 active torsions:
DOCKED: REMARK  status: ('A' for Active; 'I' for Inactive)
DOCKED: REMARK    1  A    between atoms: C_2  and  C_10
DOCKED: REMARK    2  A    between atoms: N_3  and  C_4
DOCKED: REMARK    3  A    between atoms: C_10  and  C_11
DOCKED: REMARK    4  A    between atoms: C_11  and  C_12
DOCKED: REMARK    5  A    between atoms: C_12  and  C_13
DOCKED: REMARK    6  A    between atoms: C_13  and  C_14
DOCKED: REMARK    7  A    between atoms: C_14  and  C_15
DOCKED: REMARK    8  A    between atoms: C_15  and  C_16
DOCKED: REMARK                            x       y       z     vdW  Elec       q    Type
DOCKED: REMARK                         _______ _______ _______ _____ _____    ______ ____
DOCKED: USER                              x       y       z     vdW  Elec       q    Type
DOCKED: USER                           _______ _______ _______ _____ _____    ______ ____
DOCKED: ROOT
DOCKED: ATOM      1  C   UNL     1      35.515  16.131 123.103 -0.40 -0.00    +0.000 C 
DOCKED: ENDROOT
DOCKED: BRANCH   1   3
DOCKED: ATOM      2  O   UNL     1      34.791  15.197 125.176 -0.54 -0.00    +0.000 OA
DOCKED: ATOM      3  C   UNL     1      34.796  16.203 124.416 -0.52 -0.00    +0.000 C 
DOCKED: ATOM      4  N   UNL     1      34.118  17.412 124.796 -0.41 -0.00    +0.000 N 
DOCKED: ATOM      5  H   UNL     1      33.986  18.102 124.107 -0.02 -0.00    +0.000 HD
DOCKED: BRANCH   4   6
DOCKED: ATOM      6  C   UNL     1      33.621  17.680 126.118 -0.33 -0.00    +0.000 A 
DOCKED: ATOM      7  C   UNL     1      33.506  19.011 126.553 -0.24 -0.00    +0.000 A 
DOCKED: ATOM      8  C   UNL     1      33.049  19.297 127.843 -0.15 -0.00    +0.000 A 
DOCKED: ATOM      9  C   UNL     1      32.718  18.258 128.716 -0.18 -0.00    +0.000 A 
DOCKED: ATOM     10  C   UNL     1      32.849  16.930 128.301 -0.36 -0.00    +0.000 A 
DOCKED: ATOM     11  C   UNL     1      33.306  16.638 127.012 -0.39 -0.00    +0.000 A 
DOCKED: ATOM     12  CM  UNL     1      33.175  17.969 127.424 +0.00 -0.00    +0.000 AC
DOCKED: ENDBRANCH   4   6
DOCKED: ENDBRANCH   1   3
DOCKED: BRANCH   1  12
DOCKED: ATOM     13  C   UNL     1      35.951  14.690 122.815 -0.26 -0.00    +0.000 C 
DOCKED: BRANCH  12  13
DOCKED: ATOM     14  C   UNL     1      37.441  14.446 123.110 -0.48 -0.00    +0.000 C 
DOCKED: BRANCH  13  14
DOCKED: ATOM     15  C   UNL     1      37.811  12.952 123.222 -0.47 -0.00    +0.000 C 
DOCKED: BRANCH  14  15
DOCKED: ATOM     16  C   UNL     1      37.351  12.147 121.994 -0.50 -0.00    +0.000 C 
DOCKED: BRANCH  15  16
DOCKED: ATOM     17  C   UNL     1      36.225  11.161 122.333 -0.66 -0.00    +0.000 C 
DOCKED: BRANCH  16  17
DOCKED: ATOM     18  C   UNL     1      36.690   9.736 122.262 -0.69 -0.00    +0.000 C 
DOCKED: ATOM     19  N   UNL     1      36.972   9.006 123.457 -0.58 -0.00    +0.000 N 
DOCKED: ATOM     20  O   UNL     1      37.383   7.719 123.395 -2.57 -0.00    +0.000 OA
DOCKED: ATOM     21  O   UNL     1      36.806   9.173 121.140 -2.65 -0.00    +0.000 OA
DOCKED: ATOM     22  H   UNL     1      36.865   9.443 124.333 -0.43 -0.00    +0.000 HD
DOCKED: ENDBRANCH  16  17
DOCKED: ENDBRANCH  15  16
DOCKED: ENDBRANCH  14  15
DOCKED: ENDBRANCH  13  14
DOCKED: ENDBRANCH  12  13
DOCKED: ENDBRANCH   1  12
DOCKED: TORSDOF 8DOCKED: TER
DOCKED: ENDMDL
________________________________________________________________________________


	BEGINNING GENETIC ALGORITHM DOCKING 70 of 100
Run: 70 Seed: 755563637 1096982057 [ Run 70 of 100 GA/GALS ]
Beginning LAMARCKIAN GENETIC ALGORITHM (LGA), with a maximum of 2500000 energy evaluations.

Final-Value: -13.254


	FINAL GENETIC ALGORITHM DOCKED STATE
	_______________________________________________


Detailed state:  trans 37.614 11.780 122.908 quatxyzw -0.742816 -0.546153 -0.222437 0.316958 center 0.108 0.248 -0.022 ntor 8 11.4740 111.4751 179.7100 -176.4637 -5.1355 15.8707 0.7335 105.9463
State:	 37.614  11.780 122.908  -0.783 -0.576 -0.235 143.042     11.47  111.48  179.71 -176.46   -5.14   15.87    0.73  105.95

DOCKED: MODEL       70
DOCKED: USER    Run = 70
DOCKED: USER    DPF = ligand_dock.biased.dpf
DOCKED: USER  
DOCKED: USER    Estimated Free Energy of Binding    =  -10.03 kcal/mol  [=(1)+(2)+(3)-(4)]
DOCKED: USER    Estimated Inhibition Constant, Ki   =   44.73 nM (nanomolar)  [Temperature = 298.15 K]
DOCKED: USER    
DOCKED: USER    (1) Final Intermolecular Energy     =  -12.41 kcal/mol
DOCKED: USER        vdW + Hbond + desolv Energy     =  -12.41 kcal/mol
DOCKED: USER        Electrostatic Energy            =   +0.00 kcal/mol
DOCKED: USER    (2) Final Total Internal Energy     =   -0.84 kcal/mol
DOCKED: USER    (3) Torsional Free Energy           =   +2.39 kcal/mol
DOCKED: USER    (4) Unbound System's Energy  [=(2)] =   -0.84 kcal/mol
DOCKED: USER    
DOCKED: USER    
DOCKED: USER    NEWDPF move ligand.dum.pdbqt
DOCKED: USER    NEWDPF about 0.108000 0.248000 -0.022000
DOCKED: USER    NEWDPF tran0 37.613866 11.780086 122.908291
DOCKED: USER    NEWDPF quaternion0 -0.742816 -0.546153 -0.222437 0.316958
DOCKED: USER    NEWDPF axisangle0 -0.783198 -0.575844 -0.234529 143.041885
DOCKED: USER    NEWDPF quat0 -0.783198 -0.575844 -0.234529 143.041885
DOCKED: USER    NEWDPF dihe0 11.47 111.48 179.71 -176.46 -5.14 15.87 0.73 105.95 
DOCKED: USER  keepresnum = 1 
DOCKED: USER  
DOCKED: REMARK  Name = 
DOCKED: REMARK  8 active torsions:
DOCKED: REMARK  status: ('A' for Active; 'I' for Inactive)
DOCKED: REMARK    1  A    between atoms: C_2  and  C_10
DOCKED: REMARK    2  A    between atoms: N_3  and  C_4
DOCKED: REMARK    3  A    between atoms: C_10  and  C_11
DOCKED: REMARK    4  A    between atoms: C_11  and  C_12
DOCKED: REMARK    5  A    between atoms: C_12  and  C_13
DOCKED: REMARK    6  A    between atoms: C_13  and  C_14
DOCKED: REMARK    7  A    between atoms: C_14  and  C_15
DOCKED: REMARK    8  A    between atoms: C_15  and  C_16
DOCKED: REMARK                            x       y       z     vdW  Elec       q    Type
DOCKED: REMARK                         _______ _______ _______ _____ _____    ______ ____
DOCKED: USER                              x       y       z     vdW  Elec       q    Type
DOCKED: USER                           _______ _______ _______ _____ _____    ______ ____
DOCKED: ROOT
DOCKED: ATOM      1  C   UNL     1      36.367  11.832 122.079 -0.59 -0.00    +0.000 C 
DOCKED: ENDROOT
DOCKED: BRANCH   1   3
DOCKED: ATOM      2  O   UNL     1      37.048   9.686 121.287 -2.22 -0.00    +0.000 OA
DOCKED: ATOM      3  C   UNL     1      36.215  10.345 121.968 -0.55 -0.00    +0.000 C 
DOCKED: ATOM      4  N   UNL     1      35.126   9.684 122.633 -0.59 -0.00    +0.000 N 
DOCKED: ATOM      5  H   UNL     1      34.400  10.243 122.994 -0.35 -0.00    +0.000 HD
DOCKED: BRANCH   4   6
DOCKED: ATOM      6  C   UNL     1      35.027   8.261 122.806 -0.61 -0.00    +0.000 A 
DOCKED: ATOM      7  C   UNL     1      36.200   7.500 122.935 -0.69 -0.00    +0.000 A 
DOCKED: ATOM      8  C   UNL     1      36.132   6.111 123.080 -0.60 -0.00    +0.000 A 
DOCKED: ATOM      9  C   UNL     1      34.892   5.467 123.082 -0.52 -0.00    +0.000 A 
DOCKED: ATOM     10  C   UNL     1      33.719   6.211 122.933 -0.67 -0.00    +0.000 A 
DOCKED: ATOM     11  C   UNL     1      33.783   7.601 122.787 -0.64 -0.00    +0.000 A 
DOCKED: ATOM     12  CM  UNL     1      34.959   6.859 122.937 +0.00 -0.00    +0.000 AC
DOCKED: ENDBRANCH   4   6
DOCKED: ENDBRANCH   1   3
DOCKED: BRANCH   1  12
DOCKED: ATOM     13  C   UNL     1      37.534  12.313 121.209 -0.49 -0.00    +0.000 C 
DOCKED: BRANCH  12  13
DOCKED: ATOM     14  C   UNL     1      37.662  13.846 121.174 -0.42 -0.00    +0.000 C 
DOCKED: BRANCH  13  14
DOCKED: ATOM     15  C   UNL     1      38.426  14.428 122.382 -0.45 -0.00    +0.000 C 
DOCKED: BRANCH  14  15
DOCKED: ATOM     16  C   UNL     1      37.494  15.175 123.352 -0.38 -0.00    +0.000 C 
DOCKED: BRANCH  15  16
DOCKED: ATOM     17  C   UNL     1      36.044  15.217 122.853 -0.36 -0.00    +0.000 C 
DOCKED: BRANCH  16  17
DOCKED: ATOM     18  C   UNL     1      35.142  15.929 123.817 -0.51 -0.00    +0.000 C 
DOCKED: ATOM     19  N   UNL     1      34.543  15.224 124.906 -0.54 -0.00    +0.000 N 
DOCKED: ATOM     20  O   UNL     1      33.738  15.867 125.782 -0.86 -0.00    +0.000 OA
DOCKED: ATOM     21  O   UNL     1      34.936  17.165 123.681 -0.39 -0.00    +0.000 OA
DOCKED: ATOM     22  H   UNL     1      34.720  14.262 125.020 +0.00 -0.00    +0.000 HD
DOCKED: ENDBRANCH  16  17
DOCKED: ENDBRANCH  15  16
DOCKED: ENDBRANCH  14  15
DOCKED: ENDBRANCH  13  14
DOCKED: ENDBRANCH  12  13
DOCKED: ENDBRANCH   1  12
DOCKED: TORSDOF 8DOCKED: TER
DOCKED: ENDMDL
________________________________________________________________________________


	BEGINNING GENETIC ALGORITHM DOCKING 71 of 100
Run: 71 Seed: 1522009546 1626453068 [ Run 71 of 100 GA/GALS ]
Beginning LAMARCKIAN GENETIC ALGORITHM (LGA), with a maximum of 2500000 energy evaluations.

Final-Value: -12.395


	FINAL GENETIC ALGORITHM DOCKED STATE
	_______________________________________________


Detailed state:  trans 35.607 14.865 122.855 quatxyzw -0.297249 0.693140 -0.527001 0.391753 center 0.108 0.248 -0.022 ntor 8 -58.3063 177.3986 -150.8810 115.7679 -88.5442 32.8141 -179.8109 27.6741
State:	 35.607  14.865 122.855  -0.323  0.753 -0.573 133.873    -58.31  177.40 -150.88  115.77  -88.54   32.81 -179.81   27.67

DOCKED: MODEL       71
DOCKED: USER    Run = 71
DOCKED: USER    DPF = ligand_dock.biased.dpf
DOCKED: USER  
DOCKED: USER    Estimated Free Energy of Binding    =   -8.93 kcal/mol  [=(1)+(2)+(3)-(4)]
DOCKED: USER    Estimated Inhibition Constant, Ki   =  283.12 nM (nanomolar)  [Temperature = 298.15 K]
DOCKED: USER    
DOCKED: USER    (1) Final Intermolecular Energy     =  -11.32 kcal/mol
DOCKED: USER        vdW + Hbond + desolv Energy     =  -11.32 kcal/mol
DOCKED: USER        Electrostatic Energy            =   +0.00 kcal/mol
DOCKED: USER    (2) Final Total Internal Energy     =   -1.08 kcal/mol
DOCKED: USER    (3) Torsional Free Energy           =   +2.39 kcal/mol
DOCKED: USER    (4) Unbound System's Energy  [=(2)] =   -1.08 kcal/mol
DOCKED: USER    
DOCKED: USER    
DOCKED: USER    NEWDPF move ligand.dum.pdbqt
DOCKED: USER    NEWDPF about 0.108000 0.248000 -0.022000
DOCKED: USER    NEWDPF tran0 35.607153 14.865370 122.854737
DOCKED: USER    NEWDPF quaternion0 -0.297249 0.693140 -0.527001 0.391753
DOCKED: USER    NEWDPF axisangle0 -0.323072 0.753355 -0.572783 133.872711
DOCKED: USER    NEWDPF quat0 -0.323072 0.753355 -0.572783 133.872711
DOCKED: USER    NEWDPF dihe0 -58.31 177.40 -150.88 115.77 -88.54 32.81 -179.81 27.67 
DOCKED: USER  keepresnum = 1 
DOCKED: USER  
DOCKED: REMARK  Name = 
DOCKED: REMARK  8 active torsions:
DOCKED: REMARK  status: ('A' for Active; 'I' for Inactive)
DOCKED: REMARK    1  A    between atoms: C_2  and  C_10
DOCKED: REMARK    2  A    between atoms: N_3  and  C_4
DOCKED: REMARK    3  A    between atoms: C_10  and  C_11
DOCKED: REMARK    4  A    between atoms: C_11  and  C_12
DOCKED: REMARK    5  A    between atoms: C_12  and  C_13
DOCKED: REMARK    6  A    between atoms: C_13  and  C_14
DOCKED: REMARK    7  A    between atoms: C_14  and  C_15
DOCKED: REMARK    8  A    between atoms: C_15  and  C_16
DOCKED: REMARK                            x       y       z     vdW  Elec       q    Type
DOCKED: REMARK                         _______ _______ _______ _____ _____    ______ ____
DOCKED: USER                              x       y       z     vdW  Elec       q    Type
DOCKED: USER                           _______ _______ _______ _____ _____    ______ ____
DOCKED: ROOT
DOCKED: ATOM      1  C   UNL     1      37.020  14.745 123.337 -0.45 -0.00    +0.000 C 
DOCKED: ENDROOT
DOCKED: BRANCH   1   3
DOCKED: ATOM      2  O   UNL     1      38.607  13.716 121.881 -0.59 -0.00    +0.000 OA
DOCKED: ATOM      3  C   UNL     1      37.604  14.473 121.983 -0.40 -0.00    +0.000 C 
DOCKED: ATOM      4  N   UNL     1      37.020  15.077 120.817 -0.24 -0.00    +0.000 N 
DOCKED: ATOM      5  H   UNL     1      36.364  15.799 120.952 -0.01 -0.00    +0.000 HD
DOCKED: BRANCH   4   6
DOCKED: ATOM      6  C   UNL     1      37.328  14.694 119.466 -0.25 -0.00    +0.000 A 
DOCKED: ATOM      7  C   UNL     1      37.076  13.377 119.050 -0.39 -0.00    +0.000 A 
DOCKED: ATOM      8  C   UNL     1      37.390  12.972 117.749 -0.29 -0.00    +0.000 A 
DOCKED: ATOM      9  C   UNL     1      37.973  13.875 116.856 -0.32 -0.00    +0.000 A 
DOCKED: ATOM     10  C   UNL     1      38.248  15.183 117.266 -0.18 -0.00    +0.000 A 
DOCKED: ATOM     11  C   UNL     1      37.936  15.591 118.567 -0.15 -0.00    +0.000 A 
DOCKED: ATOM     12  CM  UNL     1      37.659  14.282 118.159 +0.00 -0.00    +0.000 AC
DOCKED: ENDBRANCH   4   6
DOCKED: ENDBRANCH   1   3
DOCKED: BRANCH   1  12
DOCKED: ATOM     13  C   UNL     1      36.245  13.521 123.836 -0.57 -0.00    +0.000 C 
DOCKED: BRANCH  12  13
DOCKED: ATOM     14  C   UNL     1      36.143  12.406 122.780 -0.56 -0.00    +0.000 C 
DOCKED: BRANCH  13  14
DOCKED: ATOM     15  C   UNL     1      37.162  11.266 122.986 -0.54 -0.00    +0.000 C 
DOCKED: BRANCH  14  15
DOCKED: ATOM     16  C   UNL     1      36.849  10.042 122.107 -0.62 -0.00    +0.000 C 
DOCKED: BRANCH  15  16
DOCKED: ATOM     17  C   UNL     1      35.589   9.299 122.570 -0.68 -0.00    +0.000 C 
DOCKED: BRANCH  16  17
DOCKED: ATOM     18  C   UNL     1      35.905   7.917 123.060 -0.76 -0.00    +0.000 C 
DOCKED: ATOM     19  N   UNL     1      34.903   6.898 123.050 -0.68 -0.00    +0.000 N 
DOCKED: ATOM     20  O   UNL     1      35.190   5.649 123.483 -0.98 -0.00    +0.000 OA
DOCKED: ATOM     21  O   UNL     1      37.071   7.647 123.456 -2.65 -0.00    +0.000 OA
DOCKED: ATOM     22  H   UNL     1      33.998   7.107 122.725 -0.02 -0.00    +0.000 HD
DOCKED: ENDBRANCH  16  17
DOCKED: ENDBRANCH  15  16
DOCKED: ENDBRANCH  14  15
DOCKED: ENDBRANCH  13  14
DOCKED: ENDBRANCH  12  13
DOCKED: ENDBRANCH   1  12
DOCKED: TORSDOF 8DOCKED: TER
DOCKED: ENDMDL
________________________________________________________________________________


	BEGINNING GENETIC ALGORITHM DOCKING 72 of 100
Run: 72 Seed: 200892712 84634907 [ Run 72 of 100 GA/GALS ]
Beginning LAMARCKIAN GENETIC ALGORITHM (LGA), with a maximum of 2500000 energy evaluations.

Final-Value: -13.028


	FINAL GENETIC ALGORITHM DOCKED STATE
	_______________________________________________


Detailed state:  trans 36.687 15.471 121.116 quatxyzw -0.157464 0.610413 -0.776247 0.006494 center 0.108 0.248 -0.022 ntor 8 -87.2854 -171.6019 103.3404 123.3346 38.5549 -172.9044 -172.2933 -162.5489
State:	 36.687  15.471 121.116  -0.157  0.610 -0.776 179.256    -87.29 -171.60  103.34  123.33   38.55 -172.90 -172.29 -162.55

DOCKED: MODEL       72
DOCKED: USER    Run = 72
DOCKED: USER    DPF = ligand_dock.biased.dpf
DOCKED: USER  
DOCKED: USER    Estimated Free Energy of Binding    =   -9.68 kcal/mol  [=(1)+(2)+(3)-(4)]
DOCKED: USER    Estimated Inhibition Constant, Ki   =   80.28 nM (nanomolar)  [Temperature = 298.15 K]
DOCKED: USER    
DOCKED: USER    (1) Final Intermolecular Energy     =  -12.07 kcal/mol
DOCKED: USER        vdW + Hbond + desolv Energy     =  -12.07 kcal/mol
DOCKED: USER        Electrostatic Energy            =   +0.00 kcal/mol
DOCKED: USER    (2) Final Total Internal Energy     =   -0.96 kcal/mol
DOCKED: USER    (3) Torsional Free Energy           =   +2.39 kcal/mol
DOCKED: USER    (4) Unbound System's Energy  [=(2)] =   -0.96 kcal/mol
DOCKED: USER    
DOCKED: USER    
DOCKED: USER    NEWDPF move ligand.dum.pdbqt
DOCKED: USER    NEWDPF about 0.108000 0.248000 -0.022000
DOCKED: USER    NEWDPF tran0 36.686806 15.470979 121.116150
DOCKED: USER    NEWDPF quaternion0 -0.157464 0.610413 -0.776247 0.006494
DOCKED: USER    NEWDPF axisangle0 -0.157467 0.610426 -0.776263 179.255865
DOCKED: USER    NEWDPF quat0 -0.157467 0.610426 -0.776263 179.255865
DOCKED: USER    NEWDPF dihe0 -87.29 -171.60 103.34 123.33 38.55 -172.90 -172.29 -162.55 
DOCKED: USER  keepresnum = 1 
DOCKED: USER  
DOCKED: REMARK  Name = 
DOCKED: REMARK  8 active torsions:
DOCKED: REMARK  status: ('A' for Active; 'I' for Inactive)
DOCKED: REMARK    1  A    between atoms: C_2  and  C_10
DOCKED: REMARK    2  A    between atoms: N_3  and  C_4
DOCKED: REMARK    3  A    between atoms: C_10  and  C_11
DOCKED: REMARK    4  A    between atoms: C_11  and  C_12
DOCKED: REMARK    5  A    between atoms: C_12  and  C_13
DOCKED: REMARK    6  A    between atoms: C_13  and  C_14
DOCKED: REMARK    7  A    between atoms: C_14  and  C_15
DOCKED: REMARK    8  A    between atoms: C_15  and  C_16
DOCKED: REMARK                            x       y       z     vdW  Elec       q    Type
DOCKED: REMARK                         _______ _______ _______ _____ _____    ______ ____
DOCKED: USER                              x       y       z     vdW  Elec       q    Type
DOCKED: USER                           _______ _______ _______ _____ _____    ______ ____
DOCKED: ROOT
DOCKED: ATOM      1  C   UNL     1      37.214  16.156 122.340 -0.27 -0.00    +0.000 C 
DOCKED: ENDROOT
DOCKED: BRANCH   1   3
DOCKED: ATOM      2  O   UNL     1      38.938  15.973 120.700 -0.18 -0.00    +0.000 OA
DOCKED: ATOM      3  C   UNL     1      38.652  16.094 121.922 -0.24 -0.00    +0.000 C 
DOCKED: ATOM      4  N   UNL     1      39.690  16.168 122.913 -0.28 -0.00    +0.000 N 
DOCKED: ATOM      5  H   UNL     1      39.432  16.073 123.858 -0.01 -0.00    +0.000 HD
DOCKED: BRANCH   4   6
DOCKED: ATOM      6  C   UNL     1      41.081  16.372 122.615 -0.33 -0.00    +0.000 A 
DOCKED: ATOM      7  C   UNL     1      41.678  15.636 121.578 -0.31 -0.00    +0.000 A 
DOCKED: ATOM      8  C   UNL     1      43.036  15.799 121.284 -0.27 -0.00    +0.000 A 
DOCKED: ATOM      9  C   UNL     1      43.813  16.686 122.033 -0.30 -0.00    +0.000 A 
DOCKED: ATOM     10  C   UNL     1      43.235  17.407 123.081 -0.27 -0.00    +0.000 A 
DOCKED: ATOM     11  C   UNL     1      41.877  17.247 123.378 -0.33 -0.00    +0.000 A 
DOCKED: ATOM     12  CM  UNL     1      42.454  16.524 122.328 +0.00 -0.00    +0.000 AC
DOCKED: ENDBRANCH   4   6
DOCKED: ENDBRANCH   1   3
DOCKED: BRANCH   1  12
DOCKED: ATOM     13  C   UNL     1      36.720  14.765 122.753 -0.43 -0.00    +0.000 C 
DOCKED: BRANCH  12  13
DOCKED: ATOM     14  C   UNL     1      37.820  13.692 122.672 -0.51 -0.00    +0.000 C 
DOCKED: BRANCH  13  14
DOCKED: ATOM     15  C   UNL     1      37.659  12.735 121.473 -0.48 -0.00    +0.000 C 
DOCKED: BRANCH  14  15
DOCKED: ATOM     16  C   UNL     1      36.381  11.884 121.576 -0.51 -0.00    +0.000 C 
DOCKED: BRANCH  15  16
DOCKED: ATOM     17  C   UNL     1      36.392  10.961 122.801 -0.69 -0.00    +0.000 C 
DOCKED: BRANCH  16  17
DOCKED: ATOM     18  C   UNL     1      36.680   9.537 122.423 -0.71 -0.00    +0.000 C 
DOCKED: ATOM     19  N   UNL     1      36.838   8.538 123.433 -0.66 -0.00    +0.000 N 
DOCKED: ATOM     20  O   UNL     1      37.088   7.253 123.094 -2.22 -0.00    +0.000 OA
DOCKED: ATOM     21  O   UNL     1      36.754   9.218 121.206 -2.65 -0.00    +0.000 OA
DOCKED: ATOM     22  H   UNL     1      36.763   8.788 124.382 -0.43 -0.00    +0.000 HD
DOCKED: ENDBRANCH  16  17
DOCKED: ENDBRANCH  15  16
DOCKED: ENDBRANCH  14  15
DOCKED: ENDBRANCH  13  14
DOCKED: ENDBRANCH  12  13
DOCKED: ENDBRANCH   1  12
DOCKED: TORSDOF 8DOCKED: TER
DOCKED: ENDMDL
________________________________________________________________________________


	BEGINNING GENETIC ALGORITHM DOCKING 73 of 100
Run: 73 Seed: 139539087 627189392 [ Run 73 of 100 GA/GALS ]
Beginning LAMARCKIAN GENETIC ALGORITHM (LGA), with a maximum of 2500000 energy evaluations.

Final-Value: -13.314


	FINAL GENETIC ALGORITHM DOCKED STATE
	_______________________________________________


Detailed state:  trans 36.051 14.588 122.414 quatxyzw 0.019471 0.101426 -0.993112 -0.055335 center 0.108 0.248 -0.022 ntor 8 41.3943 95.0225 -172.8947 -9.2032 -59.2119 -41.0375 101.9944 119.1088
State:	 36.051  14.588 122.414   0.020  0.102 -0.995 -173.656     41.39   95.02 -172.89   -9.20  -59.21  -41.04  101.99  119.11

DOCKED: MODEL       73
DOCKED: USER    Run = 73
DOCKED: USER    DPF = ligand_dock.biased.dpf
DOCKED: USER  
DOCKED: USER    Estimated Free Energy of Binding    =  -10.25 kcal/mol  [=(1)+(2)+(3)-(4)]
DOCKED: USER    Estimated Inhibition Constant, Ki   =   30.85 nM (nanomolar)  [Temperature = 298.15 K]
DOCKED: USER    
DOCKED: USER    (1) Final Intermolecular Energy     =  -12.63 kcal/mol
DOCKED: USER        vdW + Hbond + desolv Energy     =  -12.63 kcal/mol
DOCKED: USER        Electrostatic Energy            =   +0.00 kcal/mol
DOCKED: USER    (2) Final Total Internal Energy     =   -0.68 kcal/mol
DOCKED: USER    (3) Torsional Free Energy           =   +2.39 kcal/mol
DOCKED: USER    (4) Unbound System's Energy  [=(2)] =   -0.68 kcal/mol
DOCKED: USER    
DOCKED: USER    
DOCKED: USER    NEWDPF move ligand.dum.pdbqt
DOCKED: USER    NEWDPF about 0.108000 0.248000 -0.022000
DOCKED: USER    NEWDPF tran0 36.051478 14.587834 122.414116
DOCKED: USER    NEWDPF quaternion0 0.019471 0.101426 -0.993112 -0.055335
DOCKED: USER    NEWDPF axisangle0 0.019501 0.101582 -0.994636 -173.655824
DOCKED: USER    NEWDPF quat0 0.019501 0.101582 -0.994636 -173.655824
DOCKED: USER    NEWDPF dihe0 41.39 95.02 -172.89 -9.20 -59.21 -41.04 101.99 119.11 
DOCKED: USER  keepresnum = 1 
DOCKED: USER  
DOCKED: REMARK  Name = 
DOCKED: REMARK  8 active torsions:
DOCKED: REMARK  status: ('A' for Active; 'I' for Inactive)
DOCKED: REMARK    1  A    between atoms: C_2  and  C_10
DOCKED: REMARK    2  A    between atoms: N_3  and  C_4
DOCKED: REMARK    3  A    between atoms: C_10  and  C_11
DOCKED: REMARK    4  A    between atoms: C_11  and  C_12
DOCKED: REMARK    5  A    between atoms: C_12  and  C_13
DOCKED: REMARK    6  A    between atoms: C_13  and  C_14
DOCKED: REMARK    7  A    between atoms: C_14  and  C_15
DOCKED: REMARK    8  A    between atoms: C_15  and  C_16
DOCKED: REMARK                            x       y       z     vdW  Elec       q    Type
DOCKED: REMARK                         _______ _______ _______ _____ _____    ______ ____
DOCKED: USER                              x       y       z     vdW  Elec       q    Type
DOCKED: USER                           _______ _______ _______ _____ _____    ______ ____
DOCKED: ROOT
DOCKED: ATOM      1  C   UNL     1      36.210  16.077 122.447 -0.31 -0.00    +0.000 C 
DOCKED: ENDROOT
DOCKED: BRANCH   1   3
DOCKED: ATOM      2  O   UNL     1      38.041  15.424 123.831 -0.26 -0.00    +0.000 OA
DOCKED: ATOM      3  C   UNL     1      37.666  16.051 122.804 -0.30 -0.00    +0.000 C 
DOCKED: ATOM      4  N   UNL     1      38.619  16.740 121.977 -0.15 -0.00    +0.000 N 
DOCKED: ATOM      5  H   UNL     1      38.273  17.365 121.299 +0.01 -0.00    +0.000 HD
DOCKED: BRANCH   4   6
DOCKED: ATOM      6  C   UNL     1      40.043  16.575 122.073 -0.21 -0.00    +0.000 A 
DOCKED: ATOM      7  C   UNL     1      40.573  15.299 122.326 -0.40 -0.00    +0.000 A 
DOCKED: ATOM      8  C   UNL     1      41.953  15.116 122.449 -0.47 -0.00    +0.000 A 
DOCKED: ATOM      9  C   UNL     1      42.817  16.208 122.336 -0.37 -0.00    +0.000 A 
DOCKED: ATOM     10  C   UNL     1      42.300  17.486 122.106 -0.21 -0.00    +0.000 A 
DOCKED: ATOM     11  C   UNL     1      40.920  17.674 121.983 -0.13 -0.00    +0.000 A 
DOCKED: ATOM     12  CM  UNL     1      41.434  16.393 122.213 +0.00 -0.00    +0.000 AC
DOCKED: ENDBRANCH   4   6
DOCKED: ENDBRANCH   1   3
DOCKED: BRANCH   1  12
DOCKED: ATOM     13  C   UNL     1      35.361  15.666 123.655 -0.50 -0.00    +0.000 C 
DOCKED: BRANCH  12  13
DOCKED: ATOM     14  C   UNL     1      35.225  14.140 123.799 -0.46 -0.00    +0.000 C 
DOCKED: BRANCH  13  14
DOCKED: ATOM     15  C   UNL     1      36.397  13.355 123.174 -0.58 -0.00    +0.000 C 
DOCKED: BRANCH  14  15
DOCKED: ATOM     16  C   UNL     1      36.047  11.874 122.945 -0.65 -0.00    +0.000 C 
DOCKED: BRANCH  15  16
DOCKED: ATOM     17  C   UNL     1      37.036  11.181 121.999 -0.55 -0.00    +0.000 C 
DOCKED: BRANCH  16  17
DOCKED: ATOM     18  C   UNL     1      36.953   9.687 122.101 -0.62 -0.00    +0.000 C 
DOCKED: ATOM     19  N   UNL     1      37.135   9.036 123.361 -0.58 -0.00    +0.000 N 
DOCKED: ATOM     20  O   UNL     1      37.051   7.689 123.457 -2.67 -0.00    +0.000 OA
DOCKED: ATOM     21  O   UNL     1      36.693   9.004 121.074 -2.61 -0.00    +0.000 OA
DOCKED: ATOM     22  H   UNL     1      37.322   9.573 124.165 -0.60 -0.00    +0.000 HD
DOCKED: ENDBRANCH  16  17
DOCKED: ENDBRANCH  15  16
DOCKED: ENDBRANCH  14  15
DOCKED: ENDBRANCH  13  14
DOCKED: ENDBRANCH  12  13
DOCKED: ENDBRANCH   1  12
DOCKED: TORSDOF 8DOCKED: TER
DOCKED: ENDMDL
________________________________________________________________________________


	BEGINNING GENETIC ALGORITHM DOCKING 74 of 100
Run: 74 Seed: 1144521794 1219062776 [ Run 74 of 100 GA/GALS ]
Beginning LAMARCKIAN GENETIC ALGORITHM (LGA), with a maximum of 2500000 energy evaluations.

Final-Value: -12.977


	FINAL GENETIC ALGORITHM DOCKED STATE
	_______________________________________________


Detailed state:  trans 38.437 14.191 121.428 quatxyzw -0.042220 0.269969 -0.961551 -0.027454 center 0.108 0.248 -0.022 ntor 8 -23.7847 144.2966 -165.9118 -149.6063 -50.2760 157.1603 86.9495 161.7040
State:	 38.437  14.191 121.428  -0.042  0.270 -0.962 -176.854    -23.78  144.30 -165.91 -149.61  -50.28  157.16   86.95  161.70

DOCKED: MODEL       74
DOCKED: USER    Run = 74
DOCKED: USER    DPF = ligand_dock.biased.dpf
DOCKED: USER  
DOCKED: USER    Estimated Free Energy of Binding    =   -9.82 kcal/mol  [=(1)+(2)+(3)-(4)]
DOCKED: USER    Estimated Inhibition Constant, Ki   =   63.26 nM (nanomolar)  [Temperature = 298.15 K]
DOCKED: USER    
DOCKED: USER    (1) Final Intermolecular Energy     =  -12.21 kcal/mol
DOCKED: USER        vdW + Hbond + desolv Energy     =  -12.21 kcal/mol
DOCKED: USER        Electrostatic Energy            =   +0.00 kcal/mol
DOCKED: USER    (2) Final Total Internal Energy     =   -0.77 kcal/mol
DOCKED: USER    (3) Torsional Free Energy           =   +2.39 kcal/mol
DOCKED: USER    (4) Unbound System's Energy  [=(2)] =   -0.77 kcal/mol
DOCKED: USER    
DOCKED: USER    
DOCKED: USER    NEWDPF move ligand.dum.pdbqt
DOCKED: USER    NEWDPF about 0.108000 0.248000 -0.022000
DOCKED: USER    NEWDPF tran0 38.436941 14.190961 121.427657
DOCKED: USER    NEWDPF quaternion0 -0.042220 0.269969 -0.961551 -0.027454
DOCKED: USER    NEWDPF axisangle0 -0.042235 0.270071 -0.961914 -176.853598
DOCKED: USER    NEWDPF quat0 -0.042235 0.270071 -0.961914 -176.853598
DOCKED: USER    NEWDPF dihe0 -23.78 144.30 -165.91 -149.61 -50.28 157.16 86.95 161.70 
DOCKED: USER  keepresnum = 1 
DOCKED: USER  
DOCKED: REMARK  Name = 
DOCKED: REMARK  8 active torsions:
DOCKED: REMARK  status: ('A' for Active; 'I' for Inactive)
DOCKED: REMARK    1  A    between atoms: C_2  and  C_10
DOCKED: REMARK    2  A    between atoms: N_3  and  C_4
DOCKED: REMARK    3  A    between atoms: C_10  and  C_11
DOCKED: REMARK    4  A    between atoms: C_11  and  C_12
DOCKED: REMARK    5  A    between atoms: C_12  and  C_13
DOCKED: REMARK    6  A    between atoms: C_13  and  C_14
DOCKED: REMARK    7  A    between atoms: C_14  and  C_15
DOCKED: REMARK    8  A    between atoms: C_15  and  C_16
DOCKED: REMARK                            x       y       z     vdW  Elec       q    Type
DOCKED: REMARK                         _______ _______ _______ _____ _____    ______ ____
DOCKED: USER                              x       y       z     vdW  Elec       q    Type
DOCKED: USER                           _______ _______ _______ _____ _____    ______ ____
DOCKED: ROOT
DOCKED: ATOM      1  C   UNL     1      38.683  15.583 121.923 -0.30 -0.00    +0.000 C 
DOCKED: ENDROOT
DOCKED: BRANCH   1   3
DOCKED: ATOM      2  O   UNL     1      40.680  14.278 121.961 -1.06 +0.00    +0.000 OA
DOCKED: ATOM      3  C   UNL     1      40.170  15.429 122.030 -0.38 -0.00    +0.000 C 
DOCKED: ATOM      4  N   UNL     1      40.999  16.588 122.214 -0.24 -0.00    +0.000 N 
DOCKED: ATOM      5  H   UNL     1      40.559  17.437 122.448 +0.00 -0.00    +0.000 HD
DOCKED: BRANCH   4   6
DOCKED: ATOM      6  C   UNL     1      42.430  16.590 122.076 -0.31 -0.00    +0.000 A 
DOCKED: ATOM      7  C   UNL     1      43.016  15.943 120.976 -0.26 -0.00    +0.000 A 
DOCKED: ATOM      8  C   UNL     1      44.407  15.910 120.832 -0.23 +0.00    +0.000 A 
DOCKED: ATOM      9  C   UNL     1      45.225  16.508 121.793 -0.18 +0.00    +0.000 A 
DOCKED: ATOM     10  C   UNL     1      44.653  17.137 122.902 -0.26 -0.00    +0.000 A 
DOCKED: ATOM     11  C   UNL     1      43.263  17.172 123.051 -0.31 -0.00    +0.000 A 
DOCKED: ATOM     12  CM  UNL     1      43.832  16.543 121.938 +0.00 -0.00    +0.000 AC
DOCKED: ENDBRANCH   4   6
DOCKED: ENDBRANCH   1   3
DOCKED: BRANCH   1  12
DOCKED: ATOM     13  C   UNL     1      37.986  14.801 123.041 -0.42 -0.00    +0.000 C 
DOCKED: BRANCH  12  13
DOCKED: ATOM     14  C   UNL     1      37.455  13.434 122.574 -0.53 -0.00    +0.000 C 
DOCKED: BRANCH  13  14
DOCKED: ATOM     15  C   UNL     1      36.031  13.121 123.076 -0.53 -0.00    +0.000 C 
DOCKED: BRANCH  14  15
DOCKED: ATOM     16  C   UNL     1      35.771  11.608 123.181 -0.64 -0.00    +0.000 C 
DOCKED: BRANCH  15  16
DOCKED: ATOM     17  C   UNL     1      37.068  10.805 123.351 -0.60 -0.00    +0.000 C 
DOCKED: BRANCH  16  17
DOCKED: ATOM     18  C   UNL     1      36.972   9.450 122.713 -0.64 -0.00    +0.000 C 
DOCKED: ATOM     19  N   UNL     1      37.161   8.267 123.493 -0.68 -0.00    +0.000 N 
DOCKED: ATOM     20  O   UNL     1      37.066   7.045 122.921 -1.89 -0.00    +0.000 OA
DOCKED: ATOM     21  O   UNL     1      36.695   9.356 121.487 -2.30 -0.00    +0.000 OA
DOCKED: ATOM     22  H   UNL     1      37.362   8.343 124.454 -0.47 -0.00    +0.000 HD
DOCKED: ENDBRANCH  16  17
DOCKED: ENDBRANCH  15  16
DOCKED: ENDBRANCH  14  15
DOCKED: ENDBRANCH  13  14
DOCKED: ENDBRANCH  12  13
DOCKED: ENDBRANCH   1  12
DOCKED: TORSDOF 8DOCKED: TER
DOCKED: ENDMDL
________________________________________________________________________________


	BEGINNING GENETIC ALGORITHM DOCKING 75 of 100
Run: 75 Seed: 561337384 1661573586 [ Run 75 of 100 GA/GALS ]
Beginning LAMARCKIAN GENETIC ALGORITHM (LGA), with a maximum of 2500000 energy evaluations.

Final-Value: -13.418


	FINAL GENETIC ALGORITHM DOCKED STATE
	_______________________________________________


Detailed state:  trans 35.829 12.188 121.815 quatxyzw 0.135891 0.321101 -0.565273 0.747592 center 0.108 0.248 -0.022 ntor 8 -180.0000 -35.5548 31.9638 91.7017 -106.9736 -156.4080 49.3509 -74.1444
State:	 35.829  12.188 121.815   0.205  0.483 -0.851 83.236   -180.00  -35.55   31.96   91.70 -106.97 -156.41   49.35  -74.14

DOCKED: MODEL       75
DOCKED: USER    Run = 75
DOCKED: USER    DPF = ligand_dock.biased.dpf
DOCKED: USER  
DOCKED: USER    Estimated Free Energy of Binding    =   -9.80 kcal/mol  [=(1)+(2)+(3)-(4)]
DOCKED: USER    Estimated Inhibition Constant, Ki   =   66.09 nM (nanomolar)  [Temperature = 298.15 K]
DOCKED: USER    
DOCKED: USER    (1) Final Intermolecular Energy     =  -12.18 kcal/mol
DOCKED: USER        vdW + Hbond + desolv Energy     =  -12.18 kcal/mol
DOCKED: USER        Electrostatic Energy            =   +0.00 kcal/mol
DOCKED: USER    (2) Final Total Internal Energy     =   -1.24 kcal/mol
DOCKED: USER    (3) Torsional Free Energy           =   +2.39 kcal/mol
DOCKED: USER    (4) Unbound System's Energy  [=(2)] =   -1.24 kcal/mol
DOCKED: USER    
DOCKED: USER    
DOCKED: USER    NEWDPF move ligand.dum.pdbqt
DOCKED: USER    NEWDPF about 0.108000 0.248000 -0.022000
DOCKED: USER    NEWDPF tran0 35.828585 12.188220 121.814758
DOCKED: USER    NEWDPF quaternion0 0.135891 0.321101 -0.565273 0.747592
DOCKED: USER    NEWDPF axisangle0 0.204607 0.483470 -0.851112 83.235550
DOCKED: USER    NEWDPF quat0 0.204607 0.483470 -0.851112 83.235550
DOCKED: USER    NEWDPF dihe0 -180.00 -35.55 31.96 91.70 -106.97 -156.41 49.35 -74.14 
DOCKED: USER  keepresnum = 1 
DOCKED: USER  
DOCKED: REMARK  Name = 
DOCKED: REMARK  8 active torsions:
DOCKED: REMARK  status: ('A' for Active; 'I' for Inactive)
DOCKED: REMARK    1  A    between atoms: C_2  and  C_10
DOCKED: REMARK    2  A    between atoms: N_3  and  C_4
DOCKED: REMARK    3  A    between atoms: C_10  and  C_11
DOCKED: REMARK    4  A    between atoms: C_11  and  C_12
DOCKED: REMARK    5  A    between atoms: C_12  and  C_13
DOCKED: REMARK    6  A    between atoms: C_13  and  C_14
DOCKED: REMARK    7  A    between atoms: C_14  and  C_15
DOCKED: REMARK    8  A    between atoms: C_15  and  C_16
DOCKED: REMARK                            x       y       z     vdW  Elec       q    Type
DOCKED: REMARK                         _______ _______ _______ _____ _____    ______ ____
DOCKED: USER                              x       y       z     vdW  Elec       q    Type
DOCKED: USER                           _______ _______ _______ _____ _____    ______ ____
DOCKED: ROOT
DOCKED: ATOM      1  C   UNL     1      37.044  11.471 122.317 -0.58 -0.00    +0.000 C 
DOCKED: ENDROOT
DOCKED: BRANCH   1   3
DOCKED: ATOM      2  O   UNL     1      37.066   9.425 121.089 -2.56 -0.00    +0.000 OA
DOCKED: ATOM      3  C   UNL     1      36.528  10.097 122.010 -0.62 -0.00    +0.000 C 
DOCKED: ATOM      4  N   UNL     1      35.427   9.560 122.762 -0.60 -0.00    +0.000 N 
DOCKED: ATOM      5  H   UNL     1      34.918  10.177 123.337 -0.33 -0.00    +0.000 HD
DOCKED: BRANCH   4   6
DOCKED: ATOM      6  C   UNL     1      35.020   8.182 122.730 -0.61 -0.00    +0.000 A 
DOCKED: ATOM      7  C   UNL     1      33.745   7.852 122.241 -0.62 -0.00    +0.000 A 
DOCKED: ATOM      8  C   UNL     1      33.317   6.521 122.223 -0.57 -0.00    +0.000 A 
DOCKED: ATOM      9  C   UNL     1      34.150   5.510 122.707 -0.33 -0.00    +0.000 A 
DOCKED: ATOM     10  C   UNL     1      35.412   5.829 123.215 -0.62 -0.00    +0.000 A 
DOCKED: ATOM     11  C   UNL     1      35.845   7.159 123.236 -0.65 -0.00    +0.000 A 
DOCKED: ATOM     12  CM  UNL     1      34.581   6.842 122.726 +0.00 -0.00    +0.000 AC
DOCKED: ENDBRANCH   4   6
DOCKED: ENDBRANCH   1   3
DOCKED: BRANCH   1  12
DOCKED: ATOM     13  C   UNL     1      36.307  12.056 123.527 -0.70 -0.00    +0.000 C 
DOCKED: BRANCH  12  13
DOCKED: ATOM     14  C   UNL     1      35.914  13.531 123.332 -0.53 -0.00    +0.000 C 
DOCKED: BRANCH  13  14
DOCKED: ATOM     15  C   UNL     1      36.998  14.525 123.797 -0.32 -0.00    +0.000 C 
DOCKED: BRANCH  14  15
DOCKED: ATOM     16  C   UNL     1      36.977  15.830 122.983 -0.35 -0.00    +0.000 C 
DOCKED: BRANCH  15  16
DOCKED: ATOM     17  C   UNL     1      37.965  15.802 121.809 -0.26 -0.00    +0.000 C 
DOCKED: BRANCH  16  17
DOCKED: ATOM     18  C   UNL     1      38.126  14.419 121.250 -0.37 -0.00    +0.000 C 
DOCKED: ATOM     19  N   UNL     1      37.180  13.902 120.312 -0.34 -0.00    +0.000 N 
DOCKED: ATOM     20  O   UNL     1      37.329  12.659 119.800 -0.50 -0.00    +0.000 OA
DOCKED: ATOM     21  O   UNL     1      39.120  13.721 121.589 -0.69 -0.00    +0.000 OA
DOCKED: ATOM     22  H   UNL     1      36.413  14.455 120.037 -0.01 -0.00    +0.000 HD
DOCKED: ENDBRANCH  16  17
DOCKED: ENDBRANCH  15  16
DOCKED: ENDBRANCH  14  15
DOCKED: ENDBRANCH  13  14
DOCKED: ENDBRANCH  12  13
DOCKED: ENDBRANCH   1  12
DOCKED: TORSDOF 8DOCKED: TER
DOCKED: ENDMDL
________________________________________________________________________________


	BEGINNING GENETIC ALGORITHM DOCKING 76 of 100
Run: 76 Seed: 738907749 2050860854 [ Run 76 of 100 GA/GALS ]
Beginning LAMARCKIAN GENETIC ALGORITHM (LGA), with a maximum of 2500000 energy evaluations.

Final-Value: -13.904


	FINAL GENETIC ALGORITHM DOCKED STATE
	_______________________________________________


Detailed state:  trans 36.174 14.058 120.914 quatxyzw -0.510577 0.381849 -0.614182 0.465063 center 0.108 0.248 -0.022 ntor 8 104.7235 105.5350 -110.5103 112.5796 161.4889 42.8744 25.6709 99.5244
State:	 36.174  14.058 120.914  -0.577  0.431 -0.694 124.571    104.72  105.53 -110.51  112.58  161.49   42.87   25.67   99.52

DOCKED: MODEL       76
DOCKED: USER    Run = 76
DOCKED: USER    DPF = ligand_dock.biased.dpf
DOCKED: USER  
DOCKED: USER    Estimated Free Energy of Binding    =  -10.72 kcal/mol  [=(1)+(2)+(3)-(4)]
DOCKED: USER    Estimated Inhibition Constant, Ki   =   13.92 nM (nanomolar)  [Temperature = 298.15 K]
DOCKED: USER    
DOCKED: USER    (1) Final Intermolecular Energy     =  -13.10 kcal/mol
DOCKED: USER        vdW + Hbond + desolv Energy     =  -13.10 kcal/mol
DOCKED: USER        Electrostatic Energy            =   +0.00 kcal/mol
DOCKED: USER    (2) Final Total Internal Energy     =   -0.80 kcal/mol
DOCKED: USER    (3) Torsional Free Energy           =   +2.39 kcal/mol
DOCKED: USER    (4) Unbound System's Energy  [=(2)] =   -0.80 kcal/mol
DOCKED: USER    
DOCKED: USER    
DOCKED: USER    NEWDPF move ligand.dum.pdbqt
DOCKED: USER    NEWDPF about 0.108000 0.248000 -0.022000
DOCKED: USER    NEWDPF tran0 36.173543 14.057636 120.914239
DOCKED: USER    NEWDPF quaternion0 -0.510577 0.381849 -0.614182 0.465063
DOCKED: USER    NEWDPF axisangle0 -0.576742 0.431332 -0.693773 124.571457
DOCKED: USER    NEWDPF quat0 -0.576742 0.431332 -0.693773 124.571457
DOCKED: USER    NEWDPF dihe0 104.72 105.53 -110.51 112.58 161.49 42.87 25.67 99.52 
DOCKED: USER  keepresnum = 1 
DOCKED: USER  
DOCKED: REMARK  Name = 
DOCKED: REMARK  8 active torsions:
DOCKED: REMARK  status: ('A' for Active; 'I' for Inactive)
DOCKED: REMARK    1  A    between atoms: C_2  and  C_10
DOCKED: REMARK    2  A    between atoms: N_3  and  C_4
DOCKED: REMARK    3  A    between atoms: C_10  and  C_11
DOCKED: REMARK    4  A    between atoms: C_11  and  C_12
DOCKED: REMARK    5  A    between atoms: C_12  and  C_13
DOCKED: REMARK    6  A    between atoms: C_13  and  C_14
DOCKED: REMARK    7  A    between atoms: C_14  and  C_15
DOCKED: REMARK    8  A    between atoms: C_15  and  C_16
DOCKED: REMARK                            x       y       z     vdW  Elec       q    Type
DOCKED: REMARK                         _______ _______ _______ _____ _____    ______ ____
DOCKED: USER                              x       y       z     vdW  Elec       q    Type
DOCKED: USER                           _______ _______ _______ _____ _____    ______ ____
DOCKED: ROOT
DOCKED: ATOM      1  C   UNL     1      37.496  14.656 120.543 -0.31 -0.00    +0.000 C 
DOCKED: ENDROOT
DOCKED: BRANCH   1   3
DOCKED: ATOM      2  O   UNL     1      37.797  12.837 119.029 -0.47 -0.00    +0.000 OA
DOCKED: ATOM      3  C   UNL     1      37.533  14.062 119.167 -0.35 -0.00    +0.000 C 
DOCKED: ATOM      4  N   UNL     1      37.272  14.889 118.022 -0.22 -0.00    +0.000 N 
DOCKED: ATOM      5  H   UNL     1      37.255  15.865 118.153 +0.00 -0.00    +0.000 HD
DOCKED: BRANCH   4   6
DOCKED: ATOM      6  C   UNL     1      37.031  14.386 116.697 -0.29 -0.00    +0.000 A 
DOCKED: ATOM      7  C   UNL     1      35.713  14.307 116.219 -0.28 -0.00    +0.000 A 
DOCKED: ATOM      8  C   UNL     1      35.451  13.798 114.944 -0.22 -0.00    +0.000 A 
DOCKED: ATOM      9  C   UNL     1      36.501  13.348 114.140 -0.29 -0.00    +0.000 A 
DOCKED: ATOM     10  C   UNL     1      37.814  13.402 114.613 -0.39 -0.00    +0.000 A 
DOCKED: ATOM     11  C   UNL     1      38.081  13.910 115.888 -0.37 -0.00    +0.000 A 
DOCKED: ATOM     12  CM  UNL     1      36.765  13.858 115.417 +0.00 -0.00    +0.000 AC
DOCKED: ENDBRANCH   4   6
DOCKED: ENDBRANCH   1   3
DOCKED: BRANCH   1  12
DOCKED: ATOM     13  C   UNL     1      37.748  13.572 121.597 -0.46 -0.00    +0.000 C 
DOCKED: BRANCH  12  13
DOCKED: ATOM     14  C   UNL     1      37.263  13.978 123.000 -0.52 -0.00    +0.000 C 
DOCKED: BRANCH  13  14
DOCKED: ATOM     15  C   UNL     1      36.026  13.188 123.477 -0.61 -0.00    +0.000 C 
DOCKED: BRANCH  14  15
DOCKED: ATOM     16  C   UNL     1      36.281  11.670 123.502 -0.70 -0.00    +0.000 C 
DOCKED: BRANCH  15  16
DOCKED: ATOM     17  C   UNL     1      36.316  11.062 122.093 -0.63 -0.00    +0.000 C 
DOCKED: BRANCH  16  17
DOCKED: ATOM     18  C   UNL     1      36.725   9.619 122.119 -0.68 -0.00    +0.000 C 
DOCKED: ATOM     19  N   UNL     1      36.881   8.933 123.363 -0.61 -0.00    +0.000 N 
DOCKED: ATOM     20  O   UNL     1      37.241   7.629 123.388 -2.55 -0.00    +0.000 OA
DOCKED: ATOM     21  O   UNL     1      36.905   9.002 121.035 -2.67 -0.00    +0.000 OA
DOCKED: ATOM     22  H   UNL     1      36.724   9.412 124.208 -0.49 -0.00    +0.000 HD
DOCKED: ENDBRANCH  16  17
DOCKED: ENDBRANCH  15  16
DOCKED: ENDBRANCH  14  15
DOCKED: ENDBRANCH  13  14
DOCKED: ENDBRANCH  12  13
DOCKED: ENDBRANCH   1  12
DOCKED: TORSDOF 8DOCKED: TER
DOCKED: ENDMDL
________________________________________________________________________________


	BEGINNING GENETIC ALGORITHM DOCKING 77 of 100
Run: 77 Seed: 105211645 90696273 [ Run 77 of 100 GA/GALS ]
Beginning LAMARCKIAN GENETIC ALGORITHM (LGA), with a maximum of 2500000 energy evaluations.

Final-Value: -13.466


	FINAL GENETIC ALGORITHM DOCKED STATE
	_______________________________________________


Detailed state:  trans 40.225 13.993 123.211 quatxyzw -0.408243 0.349240 0.806770 0.245950 center 0.108 0.248 -0.022 ntor 8 -158.1815 170.6840 -138.8165 -22.3574 -171.6224 140.5547 89.0318 -97.6295
State:	 40.225  13.993 123.211  -0.421  0.360  0.832 151.524   -158.18  170.68 -138.82  -22.36 -171.62  140.55   89.03  -97.63

DOCKED: MODEL       77
DOCKED: USER    Run = 77
DOCKED: USER    DPF = ligand_dock.biased.dpf
DOCKED: USER  
DOCKED: USER    Estimated Free Energy of Binding    =  -10.29 kcal/mol  [=(1)+(2)+(3)-(4)]
DOCKED: USER    Estimated Inhibition Constant, Ki   =   28.85 nM (nanomolar)  [Temperature = 298.15 K]
DOCKED: USER    
DOCKED: USER    (1) Final Intermolecular Energy     =  -12.67 kcal/mol
DOCKED: USER        vdW + Hbond + desolv Energy     =  -12.67 kcal/mol
DOCKED: USER        Electrostatic Energy            =   +0.00 kcal/mol
DOCKED: USER    (2) Final Total Internal Energy     =   -0.79 kcal/mol
DOCKED: USER    (3) Torsional Free Energy           =   +2.39 kcal/mol
DOCKED: USER    (4) Unbound System's Energy  [=(2)] =   -0.79 kcal/mol
DOCKED: USER    
DOCKED: USER    
DOCKED: USER    NEWDPF move ligand.dum.pdbqt
DOCKED: USER    NEWDPF about 0.108000 0.248000 -0.022000
DOCKED: USER    NEWDPF tran0 40.225099 13.992543 123.211429
DOCKED: USER    NEWDPF quaternion0 -0.408243 0.349240 0.806770 0.245950
DOCKED: USER    NEWDPF axisangle0 -0.421181 0.360308 0.832337 151.524028
DOCKED: USER    NEWDPF quat0 -0.421181 0.360308 0.832337 151.524028
DOCKED: USER    NEWDPF dihe0 -158.18 170.68 -138.82 -22.36 -171.62 140.55 89.03 -97.63 
DOCKED: USER  keepresnum = 1 
DOCKED: USER  
DOCKED: REMARK  Name = 
DOCKED: REMARK  8 active torsions:
DOCKED: REMARK  status: ('A' for Active; 'I' for Inactive)
DOCKED: REMARK    1  A    between atoms: C_2  and  C_10
DOCKED: REMARK    2  A    between atoms: N_3  and  C_4
DOCKED: REMARK    3  A    between atoms: C_10  and  C_11
DOCKED: REMARK    4  A    between atoms: C_11  and  C_12
DOCKED: REMARK    5  A    between atoms: C_12  and  C_13
DOCKED: REMARK    6  A    between atoms: C_13  and  C_14
DOCKED: REMARK    7  A    between atoms: C_14  and  C_15
DOCKED: REMARK    8  A    between atoms: C_15  and  C_16
DOCKED: REMARK                            x       y       z     vdW  Elec       q    Type
DOCKED: REMARK                         _______ _______ _______ _____ _____    ______ ____
DOCKED: USER                              x       y       z     vdW  Elec       q    Type
DOCKED: USER                           _______ _______ _______ _____ _____    ______ ____
DOCKED: ROOT
DOCKED: ATOM      1  C   UNL     1      40.466  15.022 122.150 -0.44 -0.00    +0.000 C 
DOCKED: ENDROOT
DOCKED: BRANCH   1   3
DOCKED: ATOM      2  O   UNL     1      42.248  16.058 123.353 -1.13 +0.00    +0.000 OA
DOCKED: ATOM      3  C   UNL     1      41.016  16.056 123.086 -0.38 -0.00    +0.000 C 
DOCKED: ATOM      4  N   UNL     1      40.138  17.032 123.672 -0.26 -0.00    +0.000 N 
DOCKED: ATOM      5  H   UNL     1      39.168  16.886 123.590 -0.01 -0.00    +0.000 HD
DOCKED: BRANCH   4   6
DOCKED: ATOM      6  C   UNL     1      40.584  18.207 124.369 -0.26 -0.00    +0.000 A 
DOCKED: ATOM      7  C   UNL     1      41.143  19.269 123.640 -0.13 -0.00    +0.000 A 
DOCKED: ATOM      8  C   UNL     1      41.607  20.413 124.297 -0.09 -0.00    +0.000 A 
DOCKED: ATOM      9  C   UNL     1      41.531  20.500 125.689 -0.12 -0.00    +0.000 A 
DOCKED: ATOM     10  C   UNL     1      40.996  19.441 126.426 -0.21 -0.00    +0.000 A 
DOCKED: ATOM     11  C   UNL     1      40.531  18.295 125.774 -0.31 -0.00    +0.000 A 
DOCKED: ATOM     12  CM  UNL     1      41.066  19.354 125.032 +0.00 -0.00    +0.000 AC
DOCKED: ENDBRANCH   4   6
DOCKED: ENDBRANCH   1   3
DOCKED: BRANCH   1  12
DOCKED: ATOM     13  C   UNL     1      38.951  14.886 122.341 -0.41 -0.00    +0.000 C 
DOCKED: BRANCH  12  13
DOCKED: ATOM     14  C   UNL     1      38.567  13.716 123.264 -0.22 -0.00    +0.000 C 
DOCKED: BRANCH  13  14
DOCKED: ATOM     15  C   UNL     1      37.172  13.129 122.968 -0.58 -0.00    +0.000 C 
DOCKED: BRANCH  14  15
DOCKED: ATOM     16  C   UNL     1      37.212  12.075 121.848 -0.53 -0.00    +0.000 C 
DOCKED: BRANCH  15  16
DOCKED: ATOM     17  C   UNL     1      36.102  11.026 121.995 -0.58 -0.00    +0.000 C 
DOCKED: BRANCH  16  17
DOCKED: ATOM     18  C   UNL     1      36.658   9.636 122.103 -0.68 -0.00    +0.000 C 
DOCKED: ATOM     19  N   UNL     1      36.697   8.969 123.366 -0.59 -0.00    +0.000 N 
DOCKED: ATOM     20  O   UNL     1      37.190   7.712 123.463 -2.66 -0.00    +0.000 OA
DOCKED: ATOM     21  O   UNL     1      37.066   9.046 121.067 -2.72 -0.00    +0.000 OA
DOCKED: ATOM     22  H   UNL     1      36.362   9.426 124.171 -0.37 -0.00    +0.000 HD
DOCKED: ENDBRANCH  16  17
DOCKED: ENDBRANCH  15  16
DOCKED: ENDBRANCH  14  15
DOCKED: ENDBRANCH  13  14
DOCKED: ENDBRANCH  12  13
DOCKED: ENDBRANCH   1  12
DOCKED: TORSDOF 8DOCKED: TER
DOCKED: ENDMDL
________________________________________________________________________________


	BEGINNING GENETIC ALGORITHM DOCKING 78 of 100
Run: 78 Seed: 164215529 411399592 [ Run 78 of 100 GA/GALS ]
Beginning LAMARCKIAN GENETIC ALGORITHM (LGA), with a maximum of 2500000 energy evaluations.

Final-Value: -14.103


	FINAL GENETIC ALGORITHM DOCKED STATE
	_______________________________________________


Detailed state:  trans 35.799 16.092 122.726 quatxyzw -0.196101 0.435845 -0.292886 -0.828131 center 0.108 0.248 -0.022 ntor 8 -148.1878 161.9702 -27.9498 -179.4179 -46.9553 45.5303 -22.7850 -175.8490
State:	 35.799  16.092 122.726  -0.350  0.778 -0.523 -68.186   -148.19  161.97  -27.95 -179.42  -46.96   45.53  -22.78 -175.85

DOCKED: MODEL       78
DOCKED: USER    Run = 78
DOCKED: USER    DPF = ligand_dock.biased.dpf
DOCKED: USER  
DOCKED: USER    Estimated Free Energy of Binding    =  -11.07 kcal/mol  [=(1)+(2)+(3)-(4)]
DOCKED: USER    Estimated Inhibition Constant, Ki   =    7.70 nM (nanomolar)  [Temperature = 298.15 K]
DOCKED: USER    
DOCKED: USER    (1) Final Intermolecular Energy     =  -13.46 kcal/mol
DOCKED: USER        vdW + Hbond + desolv Energy     =  -13.46 kcal/mol
DOCKED: USER        Electrostatic Energy            =   +0.00 kcal/mol
DOCKED: USER    (2) Final Total Internal Energy     =   -0.65 kcal/mol
DOCKED: USER    (3) Torsional Free Energy           =   +2.39 kcal/mol
DOCKED: USER    (4) Unbound System's Energy  [=(2)] =   -0.65 kcal/mol
DOCKED: USER    
DOCKED: USER    
DOCKED: USER    NEWDPF move ligand.dum.pdbqt
DOCKED: USER    NEWDPF about 0.108000 0.248000 -0.022000
DOCKED: USER    NEWDPF tran0 35.798984 16.092421 122.726177
DOCKED: USER    NEWDPF quaternion0 -0.196101 0.435845 -0.292886 -0.828131
DOCKED: USER    NEWDPF axisangle0 -0.349846 0.777553 -0.522512 -68.185523
DOCKED: USER    NEWDPF quat0 -0.349846 0.777553 -0.522512 -68.185523
DOCKED: USER    NEWDPF dihe0 -148.19 161.97 -27.95 -179.42 -46.96 45.53 -22.78 -175.85 
DOCKED: USER  keepresnum = 1 
DOCKED: USER  
DOCKED: REMARK  Name = 
DOCKED: REMARK  8 active torsions:
DOCKED: REMARK  status: ('A' for Active; 'I' for Inactive)
DOCKED: REMARK    1  A    between atoms: C_2  and  C_10
DOCKED: REMARK    2  A    between atoms: N_3  and  C_4
DOCKED: REMARK    3  A    between atoms: C_10  and  C_11
DOCKED: REMARK    4  A    between atoms: C_11  and  C_12
DOCKED: REMARK    5  A    between atoms: C_12  and  C_13
DOCKED: REMARK    6  A    between atoms: C_13  and  C_14
DOCKED: REMARK    7  A    between atoms: C_14  and  C_15
DOCKED: REMARK    8  A    between atoms: C_15  and  C_16
DOCKED: REMARK                            x       y       z     vdW  Elec       q    Type
DOCKED: REMARK                         _______ _______ _______ _____ _____    ______ ____
DOCKED: USER                              x       y       z     vdW  Elec       q    Type
DOCKED: USER                           _______ _______ _______ _____ _____    ______ ____
DOCKED: ROOT
DOCKED: ATOM      1  C   UNL     1      34.975  15.201 123.603 -0.51 -0.00    +0.000 C 
DOCKED: ENDROOT
DOCKED: BRANCH   1   3
DOCKED: ATOM      2  O   UNL     1      34.903  17.472 124.331 -0.38 -0.00    +0.000 OA
DOCKED: ATOM      3  C   UNL     1      34.620  16.271 124.591 -0.53 -0.00    +0.000 C 
DOCKED: ATOM      4  N   UNL     1      33.966  15.922 125.822 -0.48 -0.00    +0.000 N 
DOCKED: ATOM      5  H   UNL     1      33.931  14.970 126.071 -0.04 -0.00    +0.000 HD
DOCKED: BRANCH   4   6
DOCKED: ATOM      6  C   UNL     1      33.358  16.871 126.714 -0.36 -0.00    +0.000 A 
DOCKED: ATOM      7  C   UNL     1      32.806  16.423 127.925 -0.40 -0.00    +0.000 A 
DOCKED: ATOM      8  C   UNL     1      32.187  17.323 128.798 -0.32 -0.00    +0.000 A 
DOCKED: ATOM      9  C   UNL     1      32.100  18.676 128.463 -0.18 -0.00    +0.000 A 
DOCKED: ATOM     10  C   UNL     1      32.626  19.130 127.251 -0.22 -0.00    +0.000 A 
DOCKED: ATOM     11  C   UNL     1      33.246  18.234 126.374 -0.28 -0.00    +0.000 A 
DOCKED: ATOM     12  CM  UNL     1      32.720  17.776 127.587 +0.00 -0.00    +0.000 AC
DOCKED: ENDBRANCH   4   6
DOCKED: ENDBRANCH   1   3
DOCKED: BRANCH   1  12
DOCKED: ATOM     13  C   UNL     1      36.444  14.795 123.765 -0.46 -0.00    +0.000 C 
DOCKED: BRANCH  12  13
DOCKED: ATOM     14  C   UNL     1      36.709  13.334 123.362 -0.60 -0.00    +0.000 C 
DOCKED: BRANCH  13  14
DOCKED: ATOM     15  C   UNL     1      37.580  13.192 122.097 -0.50 -0.00    +0.000 C 
DOCKED: BRANCH  14  15
DOCKED: ATOM     16  C   UNL     1      37.254  11.911 121.308 -0.52 -0.00    +0.000 C 
DOCKED: BRANCH  15  16
DOCKED: ATOM     17  C   UNL     1      36.242  11.019 122.039 -0.61 -0.00    +0.000 C 
DOCKED: BRANCH  16  17
DOCKED: ATOM     18  C   UNL     1      36.708   9.595 122.117 -0.69 -0.00    +0.000 C 
DOCKED: ATOM     19  N   UNL     1      37.022   9.004 123.379 -0.60 -0.00    +0.000 N 
DOCKED: ATOM     20  O   UNL     1      37.433   7.717 123.452 -2.60 -0.00    +0.000 OA
DOCKED: ATOM     21  O   UNL     1      36.795   8.909 121.063 -2.64 -0.00    +0.000 OA
DOCKED: ATOM     22  H   UNL     1      36.937   9.537 124.202 -0.55 -0.00    +0.000 HD
DOCKED: ENDBRANCH  16  17
DOCKED: ENDBRANCH  15  16
DOCKED: ENDBRANCH  14  15
DOCKED: ENDBRANCH  13  14
DOCKED: ENDBRANCH  12  13
DOCKED: ENDBRANCH   1  12
DOCKED: TORSDOF 8DOCKED: TER
DOCKED: ENDMDL
________________________________________________________________________________


	BEGINNING GENETIC ALGORITHM DOCKING 79 of 100
Run: 79 Seed: 1703048475 1091364152 [ Run 79 of 100 GA/GALS ]
Beginning LAMARCKIAN GENETIC ALGORITHM (LGA), with a maximum of 2500000 energy evaluations.

Final-Value: -12.701


	FINAL GENETIC ALGORITHM DOCKED STATE
	_______________________________________________


Detailed state:  trans 36.742 15.260 122.562 quatxyzw 0.744752 -0.487528 0.056025 -0.452241 center 0.108 0.248 -0.022 ntor 8 146.6775 38.1842 -69.0071 -129.1453 -48.3445 -172.6501 94.6176 39.0600
State:	 36.742  15.260 122.562   0.835 -0.547  0.063 -126.225    146.68   38.18  -69.01 -129.15  -48.34 -172.65   94.62   39.06

DOCKED: MODEL       79
DOCKED: USER    Run = 79
DOCKED: USER    DPF = ligand_dock.biased.dpf
DOCKED: USER  
DOCKED: USER    Estimated Free Energy of Binding    =   -9.51 kcal/mol  [=(1)+(2)+(3)-(4)]
DOCKED: USER    Estimated Inhibition Constant, Ki   =  106.73 nM (nanomolar)  [Temperature = 298.15 K]
DOCKED: USER    
DOCKED: USER    (1) Final Intermolecular Energy     =  -11.90 kcal/mol
DOCKED: USER        vdW + Hbond + desolv Energy     =  -11.90 kcal/mol
DOCKED: USER        Electrostatic Energy            =   +0.00 kcal/mol
DOCKED: USER    (2) Final Total Internal Energy     =   -0.80 kcal/mol
DOCKED: USER    (3) Torsional Free Energy           =   +2.39 kcal/mol
DOCKED: USER    (4) Unbound System's Energy  [=(2)] =   -0.80 kcal/mol
DOCKED: USER    
DOCKED: USER    
DOCKED: USER    NEWDPF move ligand.dum.pdbqt
DOCKED: USER    NEWDPF about 0.108000 0.248000 -0.022000
DOCKED: USER    NEWDPF tran0 36.741688 15.259989 122.562139
DOCKED: USER    NEWDPF quaternion0 0.744752 -0.487528 0.056025 -0.452241
DOCKED: USER    NEWDPF axisangle0 0.835022 -0.546620 0.062816 -126.224878
DOCKED: USER    NEWDPF quat0 0.835022 -0.546620 0.062816 -126.224878
DOCKED: USER    NEWDPF dihe0 146.68 38.18 -69.01 -129.15 -48.34 -172.65 94.62 39.06 
DOCKED: USER  keepresnum = 1 
DOCKED: USER  
DOCKED: REMARK  Name = 
DOCKED: REMARK  8 active torsions:
DOCKED: REMARK  status: ('A' for Active; 'I' for Inactive)
DOCKED: REMARK    1  A    between atoms: C_2  and  C_10
DOCKED: REMARK    2  A    between atoms: N_3  and  C_4
DOCKED: REMARK    3  A    between atoms: C_10  and  C_11
DOCKED: REMARK    4  A    between atoms: C_11  and  C_12
DOCKED: REMARK    5  A    between atoms: C_12  and  C_13
DOCKED: REMARK    6  A    between atoms: C_13  and  C_14
DOCKED: REMARK    7  A    between atoms: C_14  and  C_15
DOCKED: REMARK    8  A    between atoms: C_15  and  C_16
DOCKED: REMARK                            x       y       z     vdW  Elec       q    Type
DOCKED: REMARK                         _______ _______ _______ _____ _____    ______ ____
DOCKED: USER                              x       y       z     vdW  Elec       q    Type
DOCKED: USER                           _______ _______ _______ _____ _____    ______ ____
DOCKED: ROOT
DOCKED: ATOM      1  C   UNL     1      37.793  15.841 121.667 -0.25 -0.00    +0.000 C 
DOCKED: ENDROOT
DOCKED: BRANCH   1   3
DOCKED: ATOM      2  O   UNL     1      36.978  16.552 119.539 -0.15 -0.00    +0.000 OA
DOCKED: ATOM      3  C   UNL     1      36.830  16.585 120.791 -0.19 -0.00    +0.000 C 
DOCKED: ATOM      4  N   UNL     1      35.753  17.330 121.382 -0.22 -0.00    +0.000 N 
DOCKED: ATOM      5  H   UNL     1      35.779  17.485 122.354 +0.00 -0.00    +0.000 HD
DOCKED: BRANCH   4   6
DOCKED: ATOM      6  C   UNL     1      34.638  17.862 120.648 -0.25 -0.00    +0.000 A 
DOCKED: ATOM      7  C   UNL     1      33.359  17.842 121.228 -0.27 -0.00    +0.000 A 
DOCKED: ATOM      8  C   UNL     1      32.254  18.331 120.524 -0.39 -0.00    +0.000 A 
DOCKED: ATOM      9  C   UNL     1      32.413  18.830 119.229 -0.34 -0.00    +0.000 A 
DOCKED: ATOM     10  C   UNL     1      33.677  18.836 118.634 -0.21 -0.00    +0.000 A 
DOCKED: ATOM     11  C   UNL     1      34.785  18.347 119.334 -0.20 -0.00    +0.000 A 
DOCKED: ATOM     12  CM  UNL     1      33.521  18.341 119.933 +0.00 -0.00    +0.000 AC
DOCKED: ENDBRANCH   4   6
DOCKED: ENDBRANCH   1   3
DOCKED: BRANCH   1  12
DOCKED: ATOM     13  C   UNL     1      37.712  14.336 121.386 -0.38 -0.00    +0.000 C 
DOCKED: BRANCH  12  13
DOCKED: ATOM     14  C   UNL     1      36.702  13.611 122.294 -0.45 -0.00    +0.000 C 
DOCKED: BRANCH  13  14
DOCKED: ATOM     15  C   UNL     1      37.366  12.767 123.401 -0.59 -0.00    +0.000 C 
DOCKED: BRANCH  14  15
DOCKED: ATOM     16  C   UNL     1      36.494  11.569 123.818 -0.69 -0.00    +0.000 C 
DOCKED: BRANCH  15  16
DOCKED: ATOM     17  C   UNL     1      35.905  10.828 122.611 -0.67 -0.00    +0.000 C 
DOCKED: BRANCH  16  17
DOCKED: ATOM     18  C   UNL     1      36.595   9.518 122.370 -0.71 -0.00    +0.000 C 
DOCKED: ATOM     19  N   UNL     1      36.799   8.599 123.445 -0.64 -0.00    +0.000 N 
DOCKED: ATOM     20  O   UNL     1      37.412   7.413 123.228 -2.24 -0.00    +0.000 OA
DOCKED: ATOM     21  O   UNL     1      36.970   9.215 121.205 -2.71 -0.00    +0.000 OA
DOCKED: ATOM     22  H   UNL     1      36.490   8.830 124.351 -0.34 -0.00    +0.000 HD
DOCKED: ENDBRANCH  16  17
DOCKED: ENDBRANCH  15  16
DOCKED: ENDBRANCH  14  15
DOCKED: ENDBRANCH  13  14
DOCKED: ENDBRANCH  12  13
DOCKED: ENDBRANCH   1  12
DOCKED: TORSDOF 8DOCKED: TER
DOCKED: ENDMDL
________________________________________________________________________________


	BEGINNING GENETIC ALGORITHM DOCKING 80 of 100
Run: 80 Seed: 623870433 1054618039 [ Run 80 of 100 GA/GALS ]
Beginning LAMARCKIAN GENETIC ALGORITHM (LGA), with a maximum of 2500000 energy evaluations.

Final-Value: -12.998


	FINAL GENETIC ALGORITHM DOCKED STATE
	_______________________________________________


Detailed state:  trans 38.343 13.874 122.157 quatxyzw 0.002242 -0.207077 -0.935053 -0.287732 center 0.108 0.248 -0.022 ntor 8 168.5566 13.9134 -156.4731 -7.3895 -24.2091 -118.9668 84.5567 42.3233
State:	 38.343  13.874 122.157   0.002 -0.216 -0.976 -146.556    168.56   13.91 -156.47   -7.39  -24.21 -118.97   84.56   42.32

DOCKED: MODEL       80
DOCKED: USER    Run = 80
DOCKED: USER    DPF = ligand_dock.biased.dpf
DOCKED: USER  
DOCKED: USER    Estimated Free Energy of Binding    =   -9.75 kcal/mol  [=(1)+(2)+(3)-(4)]
DOCKED: USER    Estimated Inhibition Constant, Ki   =   71.41 nM (nanomolar)  [Temperature = 298.15 K]
DOCKED: USER    
DOCKED: USER    (1) Final Intermolecular Energy     =  -12.14 kcal/mol
DOCKED: USER        vdW + Hbond + desolv Energy     =  -12.14 kcal/mol
DOCKED: USER        Electrostatic Energy            =   +0.00 kcal/mol
DOCKED: USER    (2) Final Total Internal Energy     =   -0.86 kcal/mol
DOCKED: USER    (3) Torsional Free Energy           =   +2.39 kcal/mol
DOCKED: USER    (4) Unbound System's Energy  [=(2)] =   -0.86 kcal/mol
DOCKED: USER    
DOCKED: USER    
DOCKED: USER    NEWDPF move ligand.dum.pdbqt
DOCKED: USER    NEWDPF about 0.108000 0.248000 -0.022000
DOCKED: USER    NEWDPF tran0 38.342828 13.874003 122.157211
DOCKED: USER    NEWDPF quaternion0 0.002242 -0.207077 -0.935053 -0.287732
DOCKED: USER    NEWDPF axisangle0 0.002341 -0.216221 -0.976342 -146.555509
DOCKED: USER    NEWDPF quat0 0.002341 -0.216221 -0.976342 -146.555509
DOCKED: USER    NEWDPF dihe0 168.56 13.91 -156.47 -7.39 -24.21 -118.97 84.56 42.32 
DOCKED: USER  keepresnum = 1 
DOCKED: USER  
DOCKED: REMARK  Name = 
DOCKED: REMARK  8 active torsions:
DOCKED: REMARK  status: ('A' for Active; 'I' for Inactive)
DOCKED: REMARK    1  A    between atoms: C_2  and  C_10
DOCKED: REMARK    2  A    between atoms: N_3  and  C_4
DOCKED: REMARK    3  A    between atoms: C_10  and  C_11
DOCKED: REMARK    4  A    between atoms: C_11  and  C_12
DOCKED: REMARK    5  A    between atoms: C_12  and  C_13
DOCKED: REMARK    6  A    between atoms: C_13  and  C_14
DOCKED: REMARK    7  A    between atoms: C_14  and  C_15
DOCKED: REMARK    8  A    between atoms: C_15  and  C_16
DOCKED: REMARK                            x       y       z     vdW  Elec       q    Type
DOCKED: REMARK                         _______ _______ _______ _____ _____    ______ ____
DOCKED: USER                              x       y       z     vdW  Elec       q    Type
DOCKED: USER                           _______ _______ _______ _____ _____    ______ ____
DOCKED: ROOT
DOCKED: ATOM      1  C   UNL     1      37.869  15.015 121.311 -0.31 -0.00    +0.000 C 
DOCKED: ENDROOT
DOCKED: BRANCH   1   3
DOCKED: ATOM      2  O   UNL     1      39.017  17.056 121.772 -0.14 -0.00    +0.000 OA
DOCKED: ATOM      3  C   UNL     1      39.114  15.834 121.476 -0.25 -0.00    +0.000 C 
DOCKED: ATOM      4  N   UNL     1      40.402  15.224 121.295 -0.29 -0.00    +0.000 N 
DOCKED: ATOM      5  H   UNL     1      40.434  14.329 120.887 -0.02 -0.00    +0.000 HD
DOCKED: BRANCH   4   6
DOCKED: ATOM      6  C   UNL     1      41.647  15.835 121.672 -0.31 -0.00    +0.000 A 
DOCKED: ATOM      7  C   UNL     1      41.824  16.279 122.993 -0.39 -0.00    +0.000 A 
DOCKED: ATOM      8  C   UNL     1      43.017  16.899 123.378 -0.26 -0.00    +0.000 A 
DOCKED: ATOM      9  C   UNL     1      44.037  17.095 122.445 -0.31 -0.00    +0.000 A 
DOCKED: ATOM     10  C   UNL     1      43.864  16.677 121.123 -0.22 -0.00    +0.000 A 
DOCKED: ATOM     11  C   UNL     1      42.673  16.057 120.733 -0.22 -0.00    +0.000 A 
DOCKED: ATOM     12  CM  UNL     1      42.844  16.474 122.057 +0.00 -0.00    +0.000 AC
DOCKED: ENDBRANCH   4   6
DOCKED: ENDBRANCH   1   3
DOCKED: BRANCH   1  12
DOCKED: ATOM     13  C   UNL     1      37.054  15.020 122.609 -0.40 -0.00    +0.000 C 
DOCKED: BRANCH  12  13
DOCKED: ATOM     14  C   UNL     1      37.224  13.728 123.427 -0.52 -0.00    +0.000 C 
DOCKED: BRANCH  13  14
DOCKED: ATOM     15  C   UNL     1      36.975  12.443 122.610 -0.60 -0.00    +0.000 C 
DOCKED: BRANCH  14  15
DOCKED: ATOM     16  C   UNL     1      35.953  11.513 123.287 -0.69 -0.00    +0.000 C 
DOCKED: BRANCH  15  16
DOCKED: ATOM     17  C   UNL     1      35.452  10.412 122.344 -0.63 -0.00    +0.000 C 
DOCKED: BRANCH  16  17
DOCKED: ATOM     18  C   UNL     1      36.413   9.262 122.268 -0.71 -0.00    +0.000 C 
DOCKED: ATOM     19  N   UNL     1      36.576   8.381 123.381 -0.67 -0.00    +0.000 N 
DOCKED: ATOM     20  O   UNL     1      37.435   7.338 123.311 -2.23 -0.00    +0.000 OA
DOCKED: ATOM     21  O   UNL     1      37.059   9.058 121.205 -2.71 -0.00    +0.000 OA
DOCKED: ATOM     22  H   UNL     1      36.058   8.533 124.205 -0.23 -0.00    +0.000 HD
DOCKED: ENDBRANCH  16  17
DOCKED: ENDBRANCH  15  16
DOCKED: ENDBRANCH  14  15
DOCKED: ENDBRANCH  13  14
DOCKED: ENDBRANCH  12  13
DOCKED: ENDBRANCH   1  12
DOCKED: TORSDOF 8DOCKED: TER
DOCKED: ENDMDL
________________________________________________________________________________


	BEGINNING GENETIC ALGORITHM DOCKING 81 of 100
Run: 81 Seed: 439820367 1265920422 [ Run 81 of 100 GA/GALS ]
Beginning LAMARCKIAN GENETIC ALGORITHM (LGA), with a maximum of 2500000 energy evaluations.

Final-Value: -13.005


	FINAL GENETIC ALGORITHM DOCKED STATE
	_______________________________________________


Detailed state:  trans 35.338 15.180 122.156 quatxyzw -0.182524 0.575029 -0.667217 -0.436862 center 0.108 0.248 -0.022 ntor 8 -165.3508 -161.4201 -93.1352 80.3702 161.9819 126.3511 177.9781 -2.6957
State:	 35.338  15.180 122.156  -0.203  0.639 -0.742 -128.192   -165.35 -161.42  -93.14   80.37  161.98  126.35  177.98   -2.70

DOCKED: MODEL       81
DOCKED: USER    Run = 81
DOCKED: USER    DPF = ligand_dock.biased.dpf
DOCKED: USER  
DOCKED: USER    Estimated Free Energy of Binding    =   -9.59 kcal/mol  [=(1)+(2)+(3)-(4)]
DOCKED: USER    Estimated Inhibition Constant, Ki   =   92.72 nM (nanomolar)  [Temperature = 298.15 K]
DOCKED: USER    
DOCKED: USER    (1) Final Intermolecular Energy     =  -11.98 kcal/mol
DOCKED: USER        vdW + Hbond + desolv Energy     =  -11.98 kcal/mol
DOCKED: USER        Electrostatic Energy            =   +0.00 kcal/mol
DOCKED: USER    (2) Final Total Internal Energy     =   -1.02 kcal/mol
DOCKED: USER    (3) Torsional Free Energy           =   +2.39 kcal/mol
DOCKED: USER    (4) Unbound System's Energy  [=(2)] =   -1.02 kcal/mol
DOCKED: USER    
DOCKED: USER    
DOCKED: USER    NEWDPF move ligand.dum.pdbqt
DOCKED: USER    NEWDPF about 0.108000 0.248000 -0.022000
DOCKED: USER    NEWDPF tran0 35.338307 15.180064 122.156417
DOCKED: USER    NEWDPF quaternion0 -0.182524 0.575029 -0.667217 -0.436862
DOCKED: USER    NEWDPF axisangle0 -0.202910 0.639256 -0.741741 -128.192270
DOCKED: USER    NEWDPF quat0 -0.202910 0.639256 -0.741741 -128.192270
DOCKED: USER    NEWDPF dihe0 -165.35 -161.42 -93.14 80.37 161.98 126.35 177.98 -2.70 
DOCKED: USER  keepresnum = 1 
DOCKED: USER  
DOCKED: REMARK  Name = 
DOCKED: REMARK  8 active torsions:
DOCKED: REMARK  status: ('A' for Active; 'I' for Inactive)
DOCKED: REMARK    1  A    between atoms: C_2  and  C_10
DOCKED: REMARK    2  A    between atoms: N_3  and  C_4
DOCKED: REMARK    3  A    between atoms: C_10  and  C_11
DOCKED: REMARK    4  A    between atoms: C_11  and  C_12
DOCKED: REMARK    5  A    between atoms: C_12  and  C_13
DOCKED: REMARK    6  A    between atoms: C_13  and  C_14
DOCKED: REMARK    7  A    between atoms: C_14  and  C_15
DOCKED: REMARK    8  A    between atoms: C_15  and  C_16
DOCKED: REMARK                            x       y       z     vdW  Elec       q    Type
DOCKED: REMARK                         _______ _______ _______ _____ _____    ______ ____
DOCKED: USER                              x       y       z     vdW  Elec       q    Type
DOCKED: USER                           _______ _______ _______ _____ _____    ______ ____
DOCKED: ROOT
DOCKED: ATOM      1  C   UNL     1      34.772  15.537 123.496 -0.50 -0.00    +0.000 C 
DOCKED: ENDROOT
DOCKED: BRANCH   1   3
DOCKED: ATOM      2  O   UNL     1      35.841  17.073 124.977 -0.33 -0.00    +0.000 OA
DOCKED: ATOM      3  C   UNL     1      35.857  16.509 123.849 -0.39 -0.00    +0.000 C 
DOCKED: ATOM      4  N   UNL     1      36.900  16.794 122.902 -0.23 -0.00    +0.000 N 
DOCKED: ATOM      5  H   UNL     1      36.777  16.483 121.976 +0.00 -0.00    +0.000 HD
DOCKED: BRANCH   4   6
DOCKED: ATOM      6  C   UNL     1      38.110  17.500 123.219 -0.18 -0.00    +0.000 A 
DOCKED: ATOM      7  C   UNL     1      39.346  16.848 123.073 -0.22 -0.00    +0.000 A 
DOCKED: ATOM      8  C   UNL     1      40.536  17.505 123.399 -0.25 -0.00    +0.000 A 
DOCKED: ATOM      9  C   UNL     1      40.503  18.813 123.887 -0.16 -0.00    +0.000 A 
DOCKED: ATOM     10  C   UNL     1      39.279  19.465 124.056 -0.09 -0.00    +0.000 A 
DOCKED: ATOM     11  C   UNL     1      38.085  18.811 123.732 -0.12 -0.00    +0.000 A 
DOCKED: ATOM     12  CM  UNL     1      39.310  18.157 123.561 +0.00 -0.00    +0.000 AC
DOCKED: ENDBRANCH   4   6
DOCKED: ENDBRANCH   1   3
DOCKED: BRANCH   1  12
DOCKED: ATOM     13  C   UNL     1      35.300  14.100 123.575 -0.40 -0.00    +0.000 C 
DOCKED: BRANCH  12  13
DOCKED: ATOM     14  C   UNL     1      36.823  14.034 123.791 -0.41 -0.00    +0.000 C 
DOCKED: BRANCH  13  14
DOCKED: ATOM     15  C   UNL     1      37.419  12.632 123.548 -0.54 -0.00    +0.000 C 
DOCKED: BRANCH  14  15
DOCKED: ATOM     16  C   UNL     1      37.147  12.125 122.121 -0.56 -0.00    +0.000 C 
DOCKED: BRANCH  15  16
DOCKED: ATOM     17  C   UNL     1      36.066  11.036 122.085 -0.59 -0.00    +0.000 C 
DOCKED: BRANCH  16  17
DOCKED: ATOM     18  C   UNL     1      36.660   9.659 122.142 -0.69 -0.00    +0.000 C 
DOCKED: ATOM     19  N   UNL     1      36.745   8.958 123.385 -0.59 -0.00    +0.000 N 
DOCKED: ATOM     20  O   UNL     1      37.271   7.713 123.436 -2.63 -0.00    +0.000 OA
DOCKED: ATOM     21  O   UNL     1      37.059   9.108 121.081 -2.72 -0.00    +0.000 OA
DOCKED: ATOM     22  H   UNL     1      36.417   9.384 124.209 -0.39 -0.00    +0.000 HD
DOCKED: ENDBRANCH  16  17
DOCKED: ENDBRANCH  15  16
DOCKED: ENDBRANCH  14  15
DOCKED: ENDBRANCH  13  14
DOCKED: ENDBRANCH  12  13
DOCKED: ENDBRANCH   1  12
DOCKED: TORSDOF 8DOCKED: TER
DOCKED: ENDMDL
________________________________________________________________________________


	BEGINNING GENETIC ALGORITHM DOCKING 82 of 100
Run: 82 Seed: 2105910662 139127250 [ Run 82 of 100 GA/GALS ]
Beginning LAMARCKIAN GENETIC ALGORITHM (LGA), with a maximum of 2500000 energy evaluations.

Final-Value: -13.170


	FINAL GENETIC ALGORITHM DOCKED STATE
	_______________________________________________


Detailed state:  trans 39.708 15.272 121.785 quatxyzw 0.596341 0.210627 -0.402606 -0.661757 center 0.108 0.248 -0.022 ntor 8 -25.1648 165.0501 -116.0927 177.7711 -92.8718 8.3367 -175.2980 175.4762
State:	 39.708  15.272 121.785   0.795  0.281 -0.537 -97.132    -25.16  165.05 -116.09  177.77  -92.87    8.34 -175.30  175.48

DOCKED: MODEL       82
DOCKED: USER    Run = 82
DOCKED: USER    DPF = ligand_dock.biased.dpf
DOCKED: USER  
DOCKED: USER    Estimated Free Energy of Binding    =   -9.78 kcal/mol  [=(1)+(2)+(3)-(4)]
DOCKED: USER    Estimated Inhibition Constant, Ki   =   67.97 nM (nanomolar)  [Temperature = 298.15 K]
DOCKED: USER    
DOCKED: USER    (1) Final Intermolecular Energy     =  -12.16 kcal/mol
DOCKED: USER        vdW + Hbond + desolv Energy     =  -12.16 kcal/mol
DOCKED: USER        Electrostatic Energy            =   +0.00 kcal/mol
DOCKED: USER    (2) Final Total Internal Energy     =   -1.01 kcal/mol
DOCKED: USER    (3) Torsional Free Energy           =   +2.39 kcal/mol
DOCKED: USER    (4) Unbound System's Energy  [=(2)] =   -1.01 kcal/mol
DOCKED: USER    
DOCKED: USER    
DOCKED: USER    NEWDPF move ligand.dum.pdbqt
DOCKED: USER    NEWDPF about 0.108000 0.248000 -0.022000
DOCKED: USER    NEWDPF tran0 39.708387 15.271715 121.785135
DOCKED: USER    NEWDPF quaternion0 0.596341 0.210627 -0.402606 -0.661757
DOCKED: USER    NEWDPF axisangle0 0.795420 0.280942 -0.537010 -97.132036
DOCKED: USER    NEWDPF quat0 0.795420 0.280942 -0.537010 -97.132036
DOCKED: USER    NEWDPF dihe0 -25.16 165.05 -116.09 177.77 -92.87 8.34 -175.30 175.48 
DOCKED: USER  keepresnum = 1 
DOCKED: USER  
DOCKED: REMARK  Name = 
DOCKED: REMARK  8 active torsions:
DOCKED: REMARK  status: ('A' for Active; 'I' for Inactive)
DOCKED: REMARK    1  A    between atoms: C_2  and  C_10
DOCKED: REMARK    2  A    between atoms: N_3  and  C_4
DOCKED: REMARK    3  A    between atoms: C_10  and  C_11
DOCKED: REMARK    4  A    between atoms: C_11  and  C_12
DOCKED: REMARK    5  A    between atoms: C_12  and  C_13
DOCKED: REMARK    6  A    between atoms: C_13  and  C_14
DOCKED: REMARK    7  A    between atoms: C_14  and  C_15
DOCKED: REMARK    8  A    between atoms: C_15  and  C_16
DOCKED: REMARK                            x       y       z     vdW  Elec       q    Type
DOCKED: REMARK                         _______ _______ _______ _____ _____    ______ ____
DOCKED: USER                              x       y       z     vdW  Elec       q    Type
DOCKED: USER                           _______ _______ _______ _____ _____    ______ ____
DOCKED: ROOT
DOCKED: ATOM      1  C   UNL     1      38.450  15.676 121.080 -0.23 -0.00    +0.000 C 
DOCKED: ENDROOT
DOCKED: BRANCH   1   3
DOCKED: ATOM      2  O   UNL     1      38.156  15.548 123.444 -0.38 -0.00    +0.000 OA
DOCKED: ATOM      3  C   UNL     1      37.623  15.782 122.326 -0.30 -0.00    +0.000 C 
DOCKED: ATOM      4  N   UNL     1      36.236  16.144 122.236 -0.26 -0.00    +0.000 N 
DOCKED: ATOM      5  H   UNL     1      35.814  16.135 121.346 -0.01 -0.00    +0.000 HD
DOCKED: BRANCH   4   6
DOCKED: ATOM      6  C   UNL     1      35.423  16.520 123.360 -0.36 -0.00    +0.000 A 
DOCKED: ATOM      7  C   UNL     1      35.263  17.881 123.670 -0.29 -0.00    +0.000 A 
DOCKED: ATOM      8  C   UNL     1      34.498  18.272 124.773 -0.31 -0.00    +0.000 A 
DOCKED: ATOM      9  C   UNL     1      33.898  17.308 125.586 -0.36 -0.00    +0.000 A 
DOCKED: ATOM     10  C   UNL     1      34.067  15.950 125.300 -0.45 -0.00    +0.000 A 
DOCKED: ATOM     11  C   UNL     1      34.832  15.554 124.198 -0.52 -0.00    +0.000 A 
DOCKED: ATOM     12  CM  UNL     1      34.664  16.914 124.481 -0.23 -0.00    +0.000 AC
DOCKED: ENDBRANCH   4   6
DOCKED: ENDBRANCH   1   3
DOCKED: BRANCH   1  12
DOCKED: ATOM     13  C   UNL     1      38.725  14.205 120.749 -0.34 -0.00    +0.000 C 
DOCKED: BRANCH  12  13
DOCKED: ATOM     14  C   UNL     1      38.123  13.236 121.782 -0.38 -0.00    +0.000 C 
DOCKED: BRANCH  13  14
DOCKED: ATOM     15  C   UNL     1      36.594  13.072 121.654 -0.28 -0.00    +0.000 C 
DOCKED: BRANCH  14  15
DOCKED: ATOM     16  C   UNL     1      36.078  11.832 122.405 -0.57 -0.00    +0.000 C 
DOCKED: BRANCH  15  16
DOCKED: ATOM     17  C   UNL     1      37.220  10.948 122.924 -0.43 -0.00    +0.000 C 
DOCKED: BRANCH  16  17
DOCKED: ATOM     18  C   UNL     1      37.061   9.521 122.491 -0.61 -0.00    +0.000 C 
DOCKED: ATOM     19  N   UNL     1      37.004   8.472 123.460 -0.68 -0.00    +0.000 N 
DOCKED: ATOM     20  O   UNL     1      36.851   7.185 123.071 -2.06 -0.00    +0.000 OA
DOCKED: ATOM     21  O   UNL     1      36.949   9.250 121.265 -2.62 -0.00    +0.000 OA
DOCKED: ATOM     22  H   UNL     1      37.075   8.688 124.418 -0.51 -0.00    +0.000 HD
DOCKED: ENDBRANCH  16  17
DOCKED: ENDBRANCH  15  16
DOCKED: ENDBRANCH  14  15
DOCKED: ENDBRANCH  13  14
DOCKED: ENDBRANCH  12  13
DOCKED: ENDBRANCH   1  12
DOCKED: TORSDOF 8DOCKED: TER
DOCKED: ENDMDL
________________________________________________________________________________


	BEGINNING GENETIC ALGORITHM DOCKING 83 of 100
Run: 83 Seed: 2000651851 2032764574 [ Run 83 of 100 GA/GALS ]
Beginning LAMARCKIAN GENETIC ALGORITHM (LGA), with a maximum of 2500000 energy evaluations.

Final-Value: -13.719


	FINAL GENETIC ALGORITHM DOCKED STATE
	_______________________________________________


Detailed state:  trans 36.969 12.057 121.307 quatxyzw -0.482434 -0.481988 0.386187 -0.621132 center 0.108 0.248 -0.022 ntor 8 -61.6510 26.8662 64.3862 -168.6625 -164.5717 29.2564 -15.8115 -113.2323
State:	 36.969  12.057 121.307  -0.616 -0.615  0.493 -103.202    -61.65   26.87   64.39 -168.66 -164.57   29.26  -15.81 -113.23

DOCKED: MODEL       83
DOCKED: USER    Run = 83
DOCKED: USER    DPF = ligand_dock.biased.dpf
DOCKED: USER  
DOCKED: USER    Estimated Free Energy of Binding    =  -10.45 kcal/mol  [=(1)+(2)+(3)-(4)]
DOCKED: USER    Estimated Inhibition Constant, Ki   =   22.01 nM (nanomolar)  [Temperature = 298.15 K]
DOCKED: USER    
DOCKED: USER    (1) Final Intermolecular Energy     =  -12.83 kcal/mol
DOCKED: USER        vdW + Hbond + desolv Energy     =  -12.83 kcal/mol
DOCKED: USER        Electrostatic Energy            =   +0.00 kcal/mol
DOCKED: USER    (2) Final Total Internal Energy     =   -0.89 kcal/mol
DOCKED: USER    (3) Torsional Free Energy           =   +2.39 kcal/mol
DOCKED: USER    (4) Unbound System's Energy  [=(2)] =   -0.89 kcal/mol
DOCKED: USER    
DOCKED: USER    
DOCKED: USER    NEWDPF move ligand.dum.pdbqt
DOCKED: USER    NEWDPF about 0.108000 0.248000 -0.022000
DOCKED: USER    NEWDPF tran0 36.969313 12.057119 121.306687
DOCKED: USER    NEWDPF quaternion0 -0.482434 -0.481988 0.386187 -0.621132
DOCKED: USER    NEWDPF axisangle0 -0.615580 -0.615012 0.492770 -103.202310
DOCKED: USER    NEWDPF quat0 -0.615580 -0.615012 0.492770 -103.202310
DOCKED: USER    NEWDPF dihe0 -61.65 26.87 64.39 -168.66 -164.57 29.26 -15.81 -113.23 
DOCKED: USER  keepresnum = 1 
DOCKED: USER  
DOCKED: REMARK  Name = 
DOCKED: REMARK  8 active torsions:
DOCKED: REMARK  status: ('A' for Active; 'I' for Inactive)
DOCKED: REMARK    1  A    between atoms: C_2  and  C_10
DOCKED: REMARK    2  A    between atoms: N_3  and  C_4
DOCKED: REMARK    3  A    between atoms: C_10  and  C_11
DOCKED: REMARK    4  A    between atoms: C_11  and  C_12
DOCKED: REMARK    5  A    between atoms: C_12  and  C_13
DOCKED: REMARK    6  A    between atoms: C_13  and  C_14
DOCKED: REMARK    7  A    between atoms: C_14  and  C_15
DOCKED: REMARK    8  A    between atoms: C_15  and  C_16
DOCKED: REMARK                            x       y       z     vdW  Elec       q    Type
DOCKED: REMARK                         _______ _______ _______ _____ _____    ______ ____
DOCKED: USER                              x       y       z     vdW  Elec       q    Type
DOCKED: USER                           _______ _______ _______ _____ _____    ______ ____
DOCKED: ROOT
DOCKED: ATOM      1  C   UNL     1      37.182  11.355 122.613 -0.49 -0.00    +0.000 C 
DOCKED: ENDROOT
DOCKED: BRANCH   1   3
DOCKED: ATOM      2  O   UNL     1      37.118   9.323 121.365 -2.43 -0.00    +0.000 OA
DOCKED: ATOM      3  C   UNL     1      36.529  10.075 122.188 -0.65 -0.00    +0.000 C 
DOCKED: ATOM      4  N   UNL     1      35.242   9.717 122.717 -0.60 -0.00    +0.000 N 
DOCKED: ATOM      5  H   UNL     1      34.737  10.407 123.204 -0.34 -0.00    +0.000 HD
DOCKED: BRANCH   4   6
DOCKED: ATOM      6  C   UNL     1      34.644   8.417 122.582 -0.61 -0.00    +0.000 A 
DOCKED: ATOM      7  C   UNL     1      33.928   8.106 121.415 -0.58 -0.00    +0.000 A 
DOCKED: ATOM      8  C   UNL     1      33.316   6.857 121.270 -0.42 -0.00    +0.000 A 
DOCKED: ATOM      9  C   UNL     1      33.401   5.913 122.296 -0.61 -0.00    +0.000 A 
DOCKED: ATOM     10  C   UNL     1      34.093   6.219 123.471 -0.66 -0.00    +0.000 A 
DOCKED: ATOM     11  C   UNL     1      34.706   7.467 123.620 -0.62 -0.00    +0.000 A 
DOCKED: ATOM     12  CM  UNL     1      34.014   7.163 122.443 +0.00 -0.00    +0.000 AC
DOCKED: ENDBRANCH   4   6
DOCKED: ENDBRANCH   1   3
DOCKED: BRANCH   1  12
DOCKED: ATOM     13  C   UNL     1      36.125  12.444 122.829 -0.56 -0.00    +0.000 C 
DOCKED: BRANCH  12  13
DOCKED: ATOM     14  C   UNL     1      36.613  13.577 123.749 -0.52 -0.00    +0.000 C 
DOCKED: BRANCH  13  14
DOCKED: ATOM     15  C   UNL     1      37.162  14.799 122.984 -0.44 -0.00    +0.000 C 
DOCKED: BRANCH  14  15
DOCKED: ATOM     16  C   UNL     1      36.075  15.858 122.725 -0.35 -0.00    +0.000 C 
DOCKED: BRANCH  15  16
DOCKED: ATOM     17  C   UNL     1      34.743  15.502 123.398 -0.43 -0.00    +0.000 C 
DOCKED: BRANCH  16  17
DOCKED: ATOM     18  C   UNL     1      34.608  16.149 124.745 -0.52 -0.00    +0.000 C 
DOCKED: ATOM     19  N   UNL     1      33.693  15.628 125.711 -0.43 -0.00    +0.000 N 
DOCKED: ATOM     20  O   UNL     1      33.577  16.205 126.929 -1.04 -0.00    +0.000 OA
DOCKED: ATOM     21  O   UNL     1      35.328  17.142 125.035 -0.37 -0.00    +0.000 OA
DOCKED: ATOM     22  H   UNL     1      33.143  14.842 125.488 -0.17 -0.00    +0.000 HD
DOCKED: ENDBRANCH  16  17
DOCKED: ENDBRANCH  15  16
DOCKED: ENDBRANCH  14  15
DOCKED: ENDBRANCH  13  14
DOCKED: ENDBRANCH  12  13
DOCKED: ENDBRANCH   1  12
DOCKED: TORSDOF 8DOCKED: TER
DOCKED: ENDMDL
________________________________________________________________________________


	BEGINNING GENETIC ALGORITHM DOCKING 84 of 100
Run: 84 Seed: 509540528 142565968 [ Run 84 of 100 GA/GALS ]
Beginning LAMARCKIAN GENETIC ALGORITHM (LGA), with a maximum of 2500000 energy evaluations.

Final-Value: -13.981


	FINAL GENETIC ALGORITHM DOCKED STATE
	_______________________________________________


Detailed state:  trans 39.306 13.531 120.833 quatxyzw -0.249604 -0.397307 -0.384456 -0.795008 center 0.108 0.248 -0.022 ntor 8 129.5187 74.7772 17.5525 159.9958 30.6127 68.2593 -116.8750 167.0588
State:	 39.306  13.531 120.833  -0.411 -0.655 -0.634 -74.688    129.52   74.78   17.55  160.00   30.61   68.26 -116.88  167.06

DOCKED: MODEL       84
DOCKED: USER    Run = 84
DOCKED: USER    DPF = ligand_dock.biased.dpf
DOCKED: USER  
DOCKED: USER    Estimated Free Energy of Binding    =  -10.37 kcal/mol  [=(1)+(2)+(3)-(4)]
DOCKED: USER    Estimated Inhibition Constant, Ki   =   25.02 nM (nanomolar)  [Temperature = 298.15 K]
DOCKED: USER    
DOCKED: USER    (1) Final Intermolecular Energy     =  -12.76 kcal/mol
DOCKED: USER        vdW + Hbond + desolv Energy     =  -12.76 kcal/mol
DOCKED: USER        Electrostatic Energy            =   +0.00 kcal/mol
DOCKED: USER    (2) Final Total Internal Energy     =   -1.22 kcal/mol
DOCKED: USER    (3) Torsional Free Energy           =   +2.39 kcal/mol
DOCKED: USER    (4) Unbound System's Energy  [=(2)] =   -1.22 kcal/mol
DOCKED: USER    
DOCKED: USER    
DOCKED: USER    NEWDPF move ligand.dum.pdbqt
DOCKED: USER    NEWDPF about 0.108000 0.248000 -0.022000
DOCKED: USER    NEWDPF tran0 39.306138 13.531150 120.833329
DOCKED: USER    NEWDPF quaternion0 -0.249604 -0.397307 -0.384456 -0.795008
DOCKED: USER    NEWDPF axisangle0 -0.411481 -0.654976 -0.633790 -74.687918
DOCKED: USER    NEWDPF quat0 -0.411481 -0.654976 -0.633790 -74.687918
DOCKED: USER    NEWDPF dihe0 129.52 74.78 17.55 160.00 30.61 68.26 -116.88 167.06 
DOCKED: USER  keepresnum = 1 
DOCKED: USER  
DOCKED: REMARK  Name = 
DOCKED: REMARK  8 active torsions:
DOCKED: REMARK  status: ('A' for Active; 'I' for Inactive)
DOCKED: REMARK    1  A    between atoms: C_2  and  C_10
DOCKED: REMARK    2  A    between atoms: N_3  and  C_4
DOCKED: REMARK    3  A    between atoms: C_10  and  C_11
DOCKED: REMARK    4  A    between atoms: C_11  and  C_12
DOCKED: REMARK    5  A    between atoms: C_12  and  C_13
DOCKED: REMARK    6  A    between atoms: C_13  and  C_14
DOCKED: REMARK    7  A    between atoms: C_14  and  C_15
DOCKED: REMARK    8  A    between atoms: C_15  and  C_16
DOCKED: REMARK                            x       y       z     vdW  Elec       q    Type
DOCKED: REMARK                         _______ _______ _______ _____ _____    ______ ____
DOCKED: USER                              x       y       z     vdW  Elec       q    Type
DOCKED: USER                           _______ _______ _______ _____ _____    ______ ____
DOCKED: ROOT
DOCKED: ATOM      1  C   UNL     1      38.140  12.635 120.550 -0.43 -0.00    +0.000 C 
DOCKED: ENDROOT
DOCKED: BRANCH   1   3
DOCKED: ATOM      2  O   UNL     1      38.012  14.679 119.325 -0.26 -0.00    +0.000 OA
DOCKED: ATOM      3  C   UNL     1      37.531  13.529 119.511 -0.41 -0.00    +0.000 C 
DOCKED: ATOM      4  N   UNL     1      36.407  13.071 118.742 -0.35 -0.00    +0.000 N 
DOCKED: ATOM      5  H   UNL     1      35.948  12.252 119.040 -0.48 -0.00    +0.000 HD
DOCKED: BRANCH   4   6
DOCKED: ATOM      6  C   UNL     1      35.911  13.728 117.564 -0.33 -0.00    +0.000 A 
DOCKED: ATOM      7  C   UNL     1      34.535  13.987 117.448 -0.18 -0.00    +0.000 A 
DOCKED: ATOM      8  C   UNL     1      34.024  14.603 116.302 -0.28 -0.00    +0.000 A 
DOCKED: ATOM      9  C   UNL     1      34.879  14.951 115.253 -0.19 -0.00    +0.000 A 
DOCKED: ATOM     10  C   UNL     1      36.246  14.678 115.348 -0.22 -0.00    +0.000 A 
DOCKED: ATOM     11  C   UNL     1      36.762  14.062 116.493 -0.31 -0.00    +0.000 A 
DOCKED: ATOM     12  CM  UNL     1      35.392  14.334 116.401 +0.00 -0.00    +0.000 AC
DOCKED: ENDBRANCH   4   6
DOCKED: ENDBRANCH   1   3
DOCKED: BRANCH   1  12
DOCKED: ATOM     13  C   UNL     1      37.945  13.236 121.947 -0.43 -0.00    +0.000 C 
DOCKED: BRANCH  12  13
DOCKED: ATOM     14  C   UNL     1      36.466  13.491 122.287 -0.33 -0.00    +0.000 C 
DOCKED: BRANCH  13  14
DOCKED: ATOM     15  C   UNL     1      36.074  13.035 123.707 -0.61 -0.00    +0.000 C 
DOCKED: BRANCH  14  15
DOCKED: ATOM     16  C   UNL     1      35.999  11.502 123.825 -0.65 -0.00    +0.000 C 
DOCKED: BRANCH  15  16
DOCKED: ATOM     17  C   UNL     1      35.691  10.829 122.480 -0.64 -0.00    +0.000 C 
DOCKED: BRANCH  16  17
DOCKED: ATOM     18  C   UNL     1      36.444   9.541 122.316 -0.70 -0.00    +0.000 C 
DOCKED: ATOM     19  N   UNL     1      36.749   8.731 123.453 -0.61 -0.00    +0.000 N 
DOCKED: ATOM     20  O   UNL     1      37.419   7.565 123.305 -2.39 -0.00    +0.000 OA
DOCKED: ATOM     21  O   UNL     1      36.782   9.160 121.164 -2.65 -0.00    +0.000 OA
DOCKED: ATOM     22  H   UNL     1      36.469   9.024 124.350 -0.30 -0.00    +0.000 HD
DOCKED: ENDBRANCH  16  17
DOCKED: ENDBRANCH  15  16
DOCKED: ENDBRANCH  14  15
DOCKED: ENDBRANCH  13  14
DOCKED: ENDBRANCH  12  13
DOCKED: ENDBRANCH   1  12
DOCKED: TORSDOF 8DOCKED: TER
DOCKED: ENDMDL
________________________________________________________________________________


	BEGINNING GENETIC ALGORITHM DOCKING 85 of 100
Run: 85 Seed: 1324459292 147854508 [ Run 85 of 100 GA/GALS ]
Beginning LAMARCKIAN GENETIC ALGORITHM (LGA), with a maximum of 2500000 energy evaluations.

Final-Value: -13.618


	FINAL GENETIC ALGORITHM DOCKED STATE
	_______________________________________________


Detailed state:  trans 36.778 11.937 120.767 quatxyzw -0.474936 -0.407679 0.470463 -0.622011 center 0.108 0.248 -0.022 ntor 8 -62.8727 66.4972 -166.7077 59.5093 51.1118 50.2842 -51.1284 -111.3335
State:	 36.778  11.937 120.767  -0.607 -0.521  0.601 -103.074    -62.87   66.50 -166.71   59.51   51.11   50.28  -51.13 -111.33

DOCKED: MODEL       85
DOCKED: USER    Run = 85
DOCKED: USER    DPF = ligand_dock.biased.dpf
DOCKED: USER  
DOCKED: USER    Estimated Free Energy of Binding    =  -10.36 kcal/mol  [=(1)+(2)+(3)-(4)]
DOCKED: USER    Estimated Inhibition Constant, Ki   =   25.67 nM (nanomolar)  [Temperature = 298.15 K]
DOCKED: USER    
DOCKED: USER    (1) Final Intermolecular Energy     =  -12.74 kcal/mol
DOCKED: USER        vdW + Hbond + desolv Energy     =  -12.74 kcal/mol
DOCKED: USER        Electrostatic Energy            =   +0.00 kcal/mol
DOCKED: USER    (2) Final Total Internal Energy     =   -0.88 kcal/mol
DOCKED: USER    (3) Torsional Free Energy           =   +2.39 kcal/mol
DOCKED: USER    (4) Unbound System's Energy  [=(2)] =   -0.88 kcal/mol
DOCKED: USER    
DOCKED: USER    
DOCKED: USER    NEWDPF move ligand.dum.pdbqt
DOCKED: USER    NEWDPF about 0.108000 0.248000 -0.022000
DOCKED: USER    NEWDPF tran0 36.777855 11.937223 120.766502
DOCKED: USER    NEWDPF quaternion0 -0.474936 -0.407679 0.470463 -0.622011
DOCKED: USER    NEWDPF axisangle0 -0.606553 -0.520657 0.600841 -103.073657
DOCKED: USER    NEWDPF quat0 -0.606553 -0.520657 0.600841 -103.073657
DOCKED: USER    NEWDPF dihe0 -62.87 66.50 -166.71 59.51 51.11 50.28 -51.13 -111.33 
DOCKED: USER  keepresnum = 1 
DOCKED: USER  
DOCKED: REMARK  Name = 
DOCKED: REMARK  8 active torsions:
DOCKED: REMARK  status: ('A' for Active; 'I' for Inactive)
DOCKED: REMARK    1  A    between atoms: C_2  and  C_10
DOCKED: REMARK    2  A    between atoms: N_3  and  C_4
DOCKED: REMARK    3  A    between atoms: C_10  and  C_11
DOCKED: REMARK    4  A    between atoms: C_11  and  C_12
DOCKED: REMARK    5  A    between atoms: C_12  and  C_13
DOCKED: REMARK    6  A    between atoms: C_13  and  C_14
DOCKED: REMARK    7  A    between atoms: C_14  and  C_15
DOCKED: REMARK    8  A    between atoms: C_15  and  C_16
DOCKED: REMARK                            x       y       z     vdW  Elec       q    Type
DOCKED: REMARK                         _______ _______ _______ _____ _____    ______ ____
DOCKED: USER                              x       y       z     vdW  Elec       q    Type
DOCKED: USER                           _______ _______ _______ _____ _____    ______ ____
DOCKED: ROOT
DOCKED: ATOM      1  C   UNL     1      37.254  11.419 122.089 -0.40 -0.00    +0.000 C 
DOCKED: ENDROOT
DOCKED: BRANCH   1   3
DOCKED: ATOM      2  O   UNL     1      37.095   9.226 121.162 -2.70 -0.00    +0.000 OA
DOCKED: ATOM      3  C   UNL     1      36.602  10.076 121.952 -0.62 -0.00    +0.000 C 
DOCKED: ATOM      4  N   UNL     1      35.424   9.770 122.716 -0.60 -0.00    +0.000 N 
DOCKED: ATOM      5  H   UNL     1      34.966  10.512 123.174 -0.25 -0.00    +0.000 HD
DOCKED: BRANCH   4   6
DOCKED: ATOM      6  C   UNL     1      34.871   8.451 122.858 -0.60 -0.00    +0.000 A 
DOCKED: ATOM      7  C   UNL     1      35.728   7.370 123.118 -0.67 -0.00    +0.000 A 
DOCKED: ATOM      8  C   UNL     1      35.218   6.073 123.235 -0.66 -0.00    +0.000 A 
DOCKED: ATOM      9  C   UNL     1      33.849   5.842 123.078 -0.43 -0.00    +0.000 A 
DOCKED: ATOM     10  C   UNL     1      32.989   6.908 122.798 -0.30 -0.00    +0.000 A 
DOCKED: ATOM     11  C   UNL     1      33.495   8.206 122.679 -0.59 -0.00    +0.000 A 
DOCKED: ATOM     12  CM  UNL     1      34.359   7.142 122.961 +0.00 -0.00    +0.000 AC
DOCKED: ENDBRANCH   4   6
DOCKED: ENDBRANCH   1   3
DOCKED: BRANCH   1  12
DOCKED: ATOM     13  C   UNL     1      36.197  12.497 122.357 -0.42 -0.00    +0.000 C 
DOCKED: BRANCH  12  13
DOCKED: ATOM     14  C   UNL     1      36.453  13.275 123.660 -0.58 -0.00    +0.000 C 
DOCKED: BRANCH  13  14
DOCKED: ATOM     15  C   UNL     1      36.717  14.779 123.438 -0.46 -0.00    +0.000 C 
DOCKED: BRANCH  14  15
DOCKED: ATOM     16  C   UNL     1      37.826  15.027 122.400 -0.38 -0.00    +0.000 C 
DOCKED: BRANCH  15  16
DOCKED: ATOM     17  C   UNL     1      38.933  15.942 122.938 -0.29 -0.00    +0.000 C 
DOCKED: BRANCH  16  17
DOCKED: ATOM     18  C   UNL     1      40.300  15.408 122.625 -0.41 -0.00    +0.000 C 
DOCKED: ATOM     19  N   UNL     1      41.439  15.854 123.365 -0.35 +0.00    +0.000 N 
DOCKED: ATOM     20  O   UNL     1      42.670  15.366 123.090 -1.03 +0.00    +0.000 OA
DOCKED: ATOM     21  O   UNL     1      40.438  14.538 121.724 -0.96 -0.00    +0.000 OA
DOCKED: ATOM     22  H   UNL     1      41.326  16.521 124.080 -0.04 +0.00    +0.000 HD
DOCKED: ENDBRANCH  16  17
DOCKED: ENDBRANCH  15  16
DOCKED: ENDBRANCH  14  15
DOCKED: ENDBRANCH  13  14
DOCKED: ENDBRANCH  12  13
DOCKED: ENDBRANCH   1  12
DOCKED: TORSDOF 8DOCKED: TER
DOCKED: ENDMDL
________________________________________________________________________________


	BEGINNING GENETIC ALGORITHM DOCKING 86 of 100
Run: 86 Seed: 1445701657 1983593360 [ Run 86 of 100 GA/GALS ]
Beginning LAMARCKIAN GENETIC ALGORITHM (LGA), with a maximum of 2500000 energy evaluations.

Final-Value: -13.886


	FINAL GENETIC ALGORITHM DOCKED STATE
	_______________________________________________


Detailed state:  trans 37.987 15.794 123.385 quatxyzw -0.563926 0.072868 0.395650 0.721206 center 0.108 0.248 -0.022 ntor 8 133.0324 162.3163 -135.2726 67.3089 131.6639 104.5648 161.4188 11.8692
State:	 37.987  15.794 123.385  -0.814  0.105  0.571 87.692    133.03  162.32 -135.27   67.31  131.66  104.56  161.42   11.87

DOCKED: MODEL       86
DOCKED: USER    Run = 86
DOCKED: USER    DPF = ligand_dock.biased.dpf
DOCKED: USER  
DOCKED: USER    Estimated Free Energy of Binding    =  -10.51 kcal/mol  [=(1)+(2)+(3)-(4)]
DOCKED: USER    Estimated Inhibition Constant, Ki   =   19.90 nM (nanomolar)  [Temperature = 298.15 K]
DOCKED: USER    
DOCKED: USER    (1) Final Intermolecular Energy     =  -12.89 kcal/mol
DOCKED: USER        vdW + Hbond + desolv Energy     =  -12.89 kcal/mol
DOCKED: USER        Electrostatic Energy            =   +0.00 kcal/mol
DOCKED: USER    (2) Final Total Internal Energy     =   -0.99 kcal/mol
DOCKED: USER    (3) Torsional Free Energy           =   +2.39 kcal/mol
DOCKED: USER    (4) Unbound System's Energy  [=(2)] =   -0.99 kcal/mol
DOCKED: USER    
DOCKED: USER    
DOCKED: USER    NEWDPF move ligand.dum.pdbqt
DOCKED: USER    NEWDPF about 0.108000 0.248000 -0.022000
DOCKED: USER    NEWDPF tran0 37.986572 15.794138 123.385413
DOCKED: USER    NEWDPF quaternion0 -0.563926 0.072868 0.395650 0.721206
DOCKED: USER    NEWDPF axisangle0 -0.814074 0.105192 0.571155 87.691663
DOCKED: USER    NEWDPF quat0 -0.814074 0.105192 0.571155 87.691663
DOCKED: USER    NEWDPF dihe0 133.03 162.32 -135.27 67.31 131.66 104.56 161.42 11.87 
DOCKED: USER  keepresnum = 1 
DOCKED: USER  
DOCKED: REMARK  Name = 
DOCKED: REMARK  8 active torsions:
DOCKED: REMARK  status: ('A' for Active; 'I' for Inactive)
DOCKED: REMARK    1  A    between atoms: C_2  and  C_10
DOCKED: REMARK    2  A    between atoms: N_3  and  C_4
DOCKED: REMARK    3  A    between atoms: C_10  and  C_11
DOCKED: REMARK    4  A    between atoms: C_11  and  C_12
DOCKED: REMARK    5  A    between atoms: C_12  and  C_13
DOCKED: REMARK    6  A    between atoms: C_13  and  C_14
DOCKED: REMARK    7  A    between atoms: C_14  and  C_15
DOCKED: REMARK    8  A    between atoms: C_15  and  C_16
DOCKED: REMARK                            x       y       z     vdW  Elec       q    Type
DOCKED: REMARK                         _______ _______ _______ _____ _____    ______ ____
DOCKED: USER                              x       y       z     vdW  Elec       q    Type
DOCKED: USER                           _______ _______ _______ _____ _____    ______ ____
DOCKED: ROOT
DOCKED: ATOM      1  C   UNL     1      37.221  16.136 122.144 -0.26 -0.00    +0.000 C 
DOCKED: ENDROOT
DOCKED: BRANCH   1   3
DOCKED: ATOM      2  O   UNL     1      35.030  17.075 122.259 -0.35 -0.00    +0.000 OA
DOCKED: ATOM      3  C   UNL     1      36.119  16.858 122.858 -0.30 -0.00    +0.000 C 
DOCKED: ATOM      4  N   UNL     1      36.310  17.300 124.212 -0.26 -0.00    +0.000 N 
DOCKED: ATOM      5  H   UNL     1      37.224  17.280 124.577 -0.02 -0.00    +0.000 HD
DOCKED: BRANCH   4   6
DOCKED: ATOM      6  C   UNL     1      35.255  17.767 125.068 -0.28 -0.00    +0.000 A 
DOCKED: ATOM      7  C   UNL     1      34.375  16.837 125.646 -0.35 -0.00    +0.000 A 
DOCKED: ATOM      8  C   UNL     1      33.325  17.267 126.463 -0.30 -0.00    +0.000 A 
DOCKED: ATOM      9  C   UNL     1      33.134  18.631 126.697 -0.26 -0.00    +0.000 A 
DOCKED: ATOM     10  C   UNL     1      33.990  19.567 126.111 -0.21 -0.00    +0.000 A 
DOCKED: ATOM     11  C   UNL     1      35.042  19.141 125.292 -0.22 -0.00    +0.000 A 
DOCKED: ATOM     12  CM  UNL     1      34.187  18.201 125.879 -0.19 -0.00    +0.000 AC
DOCKED: ENDBRANCH   4   6
DOCKED: ENDBRANCH   1   3
DOCKED: BRANCH   1  12
DOCKED: ATOM     13  C   UNL     1      37.101  14.625 122.372 -0.41 -0.00    +0.000 C 
DOCKED: BRANCH  12  13
DOCKED: ATOM     14  C   UNL     1      36.348  14.274 123.667 -0.52 -0.00    +0.000 C 
DOCKED: BRANCH  13  14
DOCKED: ATOM     15  C   UNL     1      36.037  12.770 123.811 -0.62 -0.00    +0.000 C 
DOCKED: BRANCH  14  15
DOCKED: ATOM     16  C   UNL     1      37.070  11.891 123.082 -0.65 -0.00    +0.000 C 
DOCKED: BRANCH  15  16
DOCKED: ATOM     17  C   UNL     1      36.434  11.041 121.975 -0.61 -0.00    +0.000 C 
DOCKED: BRANCH  16  17
DOCKED: ATOM     18  C   UNL     1      36.832   9.599 122.080 -0.66 -0.00    +0.000 C 
DOCKED: ATOM     19  N   UNL     1      37.016   8.990 123.361 -0.61 -0.00    +0.000 N 
DOCKED: ATOM     20  O   UNL     1      37.366   7.687 123.458 -2.60 -0.00    +0.000 OA
DOCKED: ATOM     21  O   UNL     1      36.977   8.913 121.033 -2.68 -0.00    +0.000 OA
DOCKED: ATOM     22  H   UNL     1      36.886   9.524 124.178 -0.53 -0.00    +0.000 HD
DOCKED: ENDBRANCH  16  17
DOCKED: ENDBRANCH  15  16
DOCKED: ENDBRANCH  14  15
DOCKED: ENDBRANCH  13  14
DOCKED: ENDBRANCH  12  13
DOCKED: ENDBRANCH   1  12
DOCKED: TORSDOF 8DOCKED: TER
DOCKED: ENDMDL
________________________________________________________________________________


	BEGINNING GENETIC ALGORITHM DOCKING 87 of 100
Run: 87 Seed: 1037711535 1890374530 [ Run 87 of 100 GA/GALS ]
Beginning LAMARCKIAN GENETIC ALGORITHM (LGA), with a maximum of 2500000 energy evaluations.

Final-Value: -13.277


	FINAL GENETIC ALGORITHM DOCKED STATE
	_______________________________________________


Detailed state:  trans 38.201 11.597 122.466 quatxyzw 0.798588 0.573823 0.069339 -0.167856 center 0.108 0.248 -0.022 ntor 8 160.9933 100.6533 179.9679 178.0330 8.0096 -23.7465 11.0083 119.2196
State:	 38.201  11.597 122.466   0.810  0.582  0.070 -160.674    160.99  100.65  179.97  178.03    8.01  -23.75   11.01  119.22

DOCKED: MODEL       87
DOCKED: USER    Run = 87
DOCKED: USER    DPF = ligand_dock.biased.dpf
DOCKED: USER  
DOCKED: USER    Estimated Free Energy of Binding    =  -10.00 kcal/mol  [=(1)+(2)+(3)-(4)]
DOCKED: USER    Estimated Inhibition Constant, Ki   =   46.61 nM (nanomolar)  [Temperature = 298.15 K]
DOCKED: USER    
DOCKED: USER    (1) Final Intermolecular Energy     =  -12.39 kcal/mol
DOCKED: USER        vdW + Hbond + desolv Energy     =  -12.39 kcal/mol
DOCKED: USER        Electrostatic Energy            =   +0.00 kcal/mol
DOCKED: USER    (2) Final Total Internal Energy     =   -0.89 kcal/mol
DOCKED: USER    (3) Torsional Free Energy           =   +2.39 kcal/mol
DOCKED: USER    (4) Unbound System's Energy  [=(2)] =   -0.89 kcal/mol
DOCKED: USER    
DOCKED: USER    
DOCKED: USER    NEWDPF move ligand.dum.pdbqt
DOCKED: USER    NEWDPF about 0.108000 0.248000 -0.022000
DOCKED: USER    NEWDPF tran0 38.200733 11.597277 122.466299
DOCKED: USER    NEWDPF quaternion0 0.798588 0.573823 0.069339 -0.167856
DOCKED: USER    NEWDPF axisangle0 0.810082 0.582082 0.070337 -160.673607
DOCKED: USER    NEWDPF quat0 0.810082 0.582082 0.070337 -160.673607
DOCKED: USER    NEWDPF dihe0 160.99 100.65 179.97 178.03 8.01 -23.75 11.01 119.22 
DOCKED: USER  keepresnum = 1 
DOCKED: USER  
DOCKED: REMARK  Name = 
DOCKED: REMARK  8 active torsions:
DOCKED: REMARK  status: ('A' for Active; 'I' for Inactive)
DOCKED: REMARK    1  A    between atoms: C_2  and  C_10
DOCKED: REMARK    2  A    between atoms: N_3  and  C_4
DOCKED: REMARK    3  A    between atoms: C_10  and  C_11
DOCKED: REMARK    4  A    between atoms: C_11  and  C_12
DOCKED: REMARK    5  A    between atoms: C_12  and  C_13
DOCKED: REMARK    6  A    between atoms: C_13  and  C_14
DOCKED: REMARK    7  A    between atoms: C_14  and  C_15
DOCKED: REMARK    8  A    between atoms: C_15  and  C_16
DOCKED: REMARK                            x       y       z     vdW  Elec       q    Type
DOCKED: REMARK                         _______ _______ _______ _____ _____    ______ ____
DOCKED: USER                              x       y       z     vdW  Elec       q    Type
DOCKED: USER                           _______ _______ _______ _____ _____    ______ ____
DOCKED: ROOT
DOCKED: ATOM      1  C   UNL     1      36.728  11.761 122.249 -0.62 -0.00    +0.000 C 
DOCKED: ENDROOT
DOCKED: BRANCH   1   3
DOCKED: ATOM      2  O   UNL     1      37.069   9.619 121.255 -2.34 -0.00    +0.000 OA
DOCKED: ATOM      3  C   UNL     1      36.445  10.295 122.117 -0.63 -0.00    +0.000 C 
DOCKED: ATOM      4  N   UNL     1      35.468   9.674 122.969 -0.60 -0.00    +0.000 N 
DOCKED: ATOM      5  H   UNL     1      34.876  10.260 123.493 -0.40 -0.00    +0.000 HD
DOCKED: BRANCH   4   6
DOCKED: ATOM      6  C   UNL     1      35.301   8.253 123.106 -0.61 -0.00    +0.000 A 
DOCKED: ATOM      7  C   UNL     1      36.416   7.411 122.966 -0.69 -0.00    +0.000 A 
DOCKED: ATOM      8  C   UNL     1      36.275   6.024 123.071 -0.53 -0.00    +0.000 A 
DOCKED: ATOM      9  C   UNL     1      35.017   5.464 123.301 -0.46 -0.00    +0.000 A 
DOCKED: ATOM     10  C   UNL     1      33.896   6.290 123.421 -0.66 -0.00    +0.000 A 
DOCKED: ATOM     11  C   UNL     1      34.032   7.678 123.316 -0.60 -0.00    +0.000 A 
DOCKED: ATOM     12  CM  UNL     1      35.156   6.853 123.197 +0.00 -0.00    +0.000 AC
DOCKED: ENDBRANCH   4   6
DOCKED: ENDBRANCH   1   3
DOCKED: BRANCH   1  12
DOCKED: ATOM     13  C   UNL     1      37.449  12.277 120.999 -0.53 -0.00    +0.000 C 
DOCKED: BRANCH  12  13
DOCKED: ATOM     14  C   UNL     1      37.876  13.751 121.121 -0.42 -0.00    +0.000 C 
DOCKED: BRANCH  13  14
DOCKED: ATOM     15  C   UNL     1      38.490  14.104 122.491 -0.46 -0.00    +0.000 C 
DOCKED: BRANCH  14  15
DOCKED: ATOM     16  C   UNL     1      37.449  14.694 123.459 -0.40 -0.00    +0.000 C 
DOCKED: BRANCH  15  16
DOCKED: ATOM     17  C   UNL     1      36.107  14.974 122.771 -0.32 -0.00    +0.000 C 
DOCKED: BRANCH  16  17
DOCKED: ATOM     18  C   UNL     1      35.024  15.278 123.765 -0.55 -0.00    +0.000 C 
DOCKED: ATOM     19  N   UNL     1      35.114  16.432 124.603 -0.42 -0.00    +0.000 N 
DOCKED: ATOM     20  O   UNL     1      34.134  16.713 125.492 -0.53 -0.00    +0.000 OA
DOCKED: ATOM     21  O   UNL     1      34.016  14.525 123.838 -0.61 -0.00    +0.000 OA
DOCKED: ATOM     22  H   UNL     1      35.895  17.028 124.531 -0.01 -0.00    +0.000 HD
DOCKED: ENDBRANCH  16  17
DOCKED: ENDBRANCH  15  16
DOCKED: ENDBRANCH  14  15
DOCKED: ENDBRANCH  13  14
DOCKED: ENDBRANCH  12  13
DOCKED: ENDBRANCH   1  12
DOCKED: TORSDOF 8DOCKED: TER
DOCKED: ENDMDL
________________________________________________________________________________


	BEGINNING GENETIC ALGORITHM DOCKING 88 of 100
Run: 88 Seed: 1998848639 1062901463 [ Run 88 of 100 GA/GALS ]
Beginning LAMARCKIAN GENETIC ALGORITHM (LGA), with a maximum of 2500000 energy evaluations.

Final-Value: -13.188


	FINAL GENETIC ALGORITHM DOCKED STATE
	_______________________________________________


Detailed state:  trans 37.421 15.120 121.286 quatxyzw 0.645651 -0.332997 0.320391 -0.607945 center 0.108 0.248 -0.022 ntor 8 -173.8051 64.2264 109.9741 106.9579 -18.2197 -157.5348 146.1200 -126.3086
State:	 37.421  15.120 121.286   0.813 -0.419  0.404 -105.118   -173.81   64.23  109.97  106.96  -18.22 -157.53  146.12 -126.31

DOCKED: MODEL       88
DOCKED: USER    Run = 88
DOCKED: USER    DPF = ligand_dock.biased.dpf
DOCKED: USER  
DOCKED: USER    Estimated Free Energy of Binding    =   -9.87 kcal/mol  [=(1)+(2)+(3)-(4)]
DOCKED: USER    Estimated Inhibition Constant, Ki   =   58.63 nM (nanomolar)  [Temperature = 298.15 K]
DOCKED: USER    
DOCKED: USER    (1) Final Intermolecular Energy     =  -12.25 kcal/mol
DOCKED: USER        vdW + Hbond + desolv Energy     =  -12.25 kcal/mol
DOCKED: USER        Electrostatic Energy            =   +0.00 kcal/mol
DOCKED: USER    (2) Final Total Internal Energy     =   -0.94 kcal/mol
DOCKED: USER    (3) Torsional Free Energy           =   +2.39 kcal/mol
DOCKED: USER    (4) Unbound System's Energy  [=(2)] =   -0.94 kcal/mol
DOCKED: USER    
DOCKED: USER    
DOCKED: USER    NEWDPF move ligand.dum.pdbqt
DOCKED: USER    NEWDPF about 0.108000 0.248000 -0.022000
DOCKED: USER    NEWDPF tran0 37.420963 15.120446 121.285683
DOCKED: USER    NEWDPF quaternion0 0.645651 -0.332997 0.320391 -0.607945
DOCKED: USER    NEWDPF axisangle0 0.813184 -0.419403 0.403526 -105.117840
DOCKED: USER    NEWDPF quat0 0.813184 -0.419403 0.403526 -105.117840
DOCKED: USER    NEWDPF dihe0 -173.81 64.23 109.97 106.96 -18.22 -157.53 146.12 -126.31 
DOCKED: USER  keepresnum = 1 
DOCKED: USER  
DOCKED: REMARK  Name = 
DOCKED: REMARK  8 active torsions:
DOCKED: REMARK  status: ('A' for Active; 'I' for Inactive)
DOCKED: REMARK    1  A    between atoms: C_2  and  C_10
DOCKED: REMARK    2  A    between atoms: N_3  and  C_4
DOCKED: REMARK    3  A    between atoms: C_10  and  C_11
DOCKED: REMARK    4  A    between atoms: C_11  and  C_12
DOCKED: REMARK    5  A    between atoms: C_12  and  C_13
DOCKED: REMARK    6  A    between atoms: C_13  and  C_14
DOCKED: REMARK    7  A    between atoms: C_14  and  C_15
DOCKED: REMARK    8  A    between atoms: C_15  and  C_16
DOCKED: REMARK                            x       y       z     vdW  Elec       q    Type
DOCKED: REMARK                         _______ _______ _______ _____ _____    ______ ____
DOCKED: USER                              x       y       z     vdW  Elec       q    Type
DOCKED: USER                           _______ _______ _______ _____ _____    ______ ____
DOCKED: ROOT
DOCKED: ATOM      1  C   UNL     1      38.415  15.464 120.219 -0.22 -0.00    +0.000 C 
DOCKED: ENDROOT
DOCKED: BRANCH   1   3
DOCKED: ATOM      2  O   UNL     1      36.406  15.855 118.994 -0.20 -0.00    +0.000 OA
DOCKED: ATOM      3  C   UNL     1      37.483  15.205 119.075 -0.23 -0.00    +0.000 C 
DOCKED: ATOM      4  N   UNL     1      37.820  14.220 118.084 -0.28 -0.00    +0.000 N 
DOCKED: ATOM      5  H   UNL     1      38.567  13.608 118.279 -0.12 -0.00    +0.000 HD
DOCKED: BRANCH   4   6
DOCKED: ATOM      6  C   UNL     1      37.140  14.069 116.827 -0.32 -0.00    +0.000 A 
DOCKED: ATOM      7  C   UNL     1      35.745  14.226 116.777 -0.31 -0.00    +0.000 A 
DOCKED: ATOM      8  C   UNL     1      35.057  14.061 115.571 -0.26 -0.00    +0.000 A 
DOCKED: ATOM      9  C   UNL     1      35.752  13.721 114.408 -0.26 -0.00    +0.000 A 
DOCKED: ATOM     10  C   UNL     1      37.137  13.541 114.451 -0.33 -0.00    +0.000 A 
DOCKED: ATOM     11  C   UNL     1      37.830  13.705 115.655 -0.38 -0.00    +0.000 A 
DOCKED: ATOM     12  CM  UNL     1      36.443  13.887 115.615 +0.00 -0.00    +0.000 AC
DOCKED: ENDBRANCH   4   6
DOCKED: ENDBRANCH   1   3
DOCKED: BRANCH   1  12
DOCKED: ATOM     13  C   UNL     1      38.849  14.141 120.861 -0.34 -0.00    +0.000 C 
DOCKED: BRANCH  12  13
DOCKED: ATOM     14  C   UNL     1      37.701  13.122 120.964 -0.48 -0.00    +0.000 C 
DOCKED: BRANCH  13  14
DOCKED: ATOM     15  C   UNL     1      36.912  13.213 122.286 -0.51 -0.00    +0.000 C 
DOCKED: BRANCH  14  15
DOCKED: ATOM     16  C   UNL     1      36.933  11.887 123.067 -0.66 -0.00    +0.000 C 
DOCKED: BRANCH  15  16
DOCKED: ATOM     17  C   UNL     1      35.932  10.867 122.510 -0.66 -0.00    +0.000 C 
DOCKED: BRANCH  16  17
DOCKED: ATOM     18  C   UNL     1      36.560   9.518 122.317 -0.71 -0.00    +0.000 C 
DOCKED: ATOM     19  N   UNL     1      36.571   8.565 123.381 -0.64 -0.00    +0.000 N 
DOCKED: ATOM     20  O   UNL     1      37.128   7.344 123.205 -2.33 -0.00    +0.000 OA
DOCKED: ATOM     21  O   UNL     1      37.055   9.215 121.198 -2.74 -0.00    +0.000 OA
DOCKED: ATOM     22  H   UNL     1      36.168   8.797 124.249 -0.26 -0.00    +0.000 HD
DOCKED: ENDBRANCH  16  17
DOCKED: ENDBRANCH  15  16
DOCKED: ENDBRANCH  14  15
DOCKED: ENDBRANCH  13  14
DOCKED: ENDBRANCH  12  13
DOCKED: ENDBRANCH   1  12
DOCKED: TORSDOF 8DOCKED: TER
DOCKED: ENDMDL
________________________________________________________________________________


	BEGINNING GENETIC ALGORITHM DOCKING 89 of 100
Run: 89 Seed: 1858305590 1424579193 [ Run 89 of 100 GA/GALS ]
Beginning LAMARCKIAN GENETIC ALGORITHM (LGA), with a maximum of 2500000 energy evaluations.

Final-Value: -13.316


	FINAL GENETIC ALGORITHM DOCKED STATE
	_______________________________________________


Detailed state:  trans 39.557 14.752 122.404 quatxyzw -0.827904 0.126406 0.302335 0.455182 center 0.108 0.248 -0.022 ntor 8 -68.2843 -167.6969 -141.9169 75.2573 -109.9433 143.1021 -176.1530 36.6281
State:	 39.557  14.752 122.404  -0.930  0.142  0.340 125.847    -68.28 -167.70 -141.92   75.26 -109.94  143.10 -176.15   36.63

DOCKED: MODEL       89
DOCKED: USER    Run = 89
DOCKED: USER    DPF = ligand_dock.biased.dpf
DOCKED: USER  
DOCKED: USER    Estimated Free Energy of Binding    =   -9.93 kcal/mol  [=(1)+(2)+(3)-(4)]
DOCKED: USER    Estimated Inhibition Constant, Ki   =   53.06 nM (nanomolar)  [Temperature = 298.15 K]
DOCKED: USER    
DOCKED: USER    (1) Final Intermolecular Energy     =  -12.31 kcal/mol
DOCKED: USER        vdW + Hbond + desolv Energy     =  -12.31 kcal/mol
DOCKED: USER        Electrostatic Energy            =   +0.00 kcal/mol
DOCKED: USER    (2) Final Total Internal Energy     =   -1.00 kcal/mol
DOCKED: USER    (3) Torsional Free Energy           =   +2.39 kcal/mol
DOCKED: USER    (4) Unbound System's Energy  [=(2)] =   -1.00 kcal/mol
DOCKED: USER    
DOCKED: USER    
DOCKED: USER    NEWDPF move ligand.dum.pdbqt
DOCKED: USER    NEWDPF about 0.108000 0.248000 -0.022000
DOCKED: USER    NEWDPF tran0 39.557267 14.751745 122.403636
DOCKED: USER    NEWDPF quaternion0 -0.827904 0.126406 0.302335 0.455182
DOCKED: USER    NEWDPF axisangle0 -0.929812 0.141965 0.339551 125.846749
DOCKED: USER    NEWDPF quat0 -0.929812 0.141965 0.339551 125.846749
DOCKED: USER    NEWDPF dihe0 -68.28 -167.70 -141.92 75.26 -109.94 143.10 -176.15 36.63 
DOCKED: USER  keepresnum = 1 
DOCKED: USER  
DOCKED: REMARK  Name = 
DOCKED: REMARK  8 active torsions:
DOCKED: REMARK  status: ('A' for Active; 'I' for Inactive)
DOCKED: REMARK    1  A    between atoms: C_2  and  C_10
DOCKED: REMARK    2  A    between atoms: N_3  and  C_4
DOCKED: REMARK    3  A    between atoms: C_10  and  C_11
DOCKED: REMARK    4  A    between atoms: C_11  and  C_12
DOCKED: REMARK    5  A    between atoms: C_12  and  C_13
DOCKED: REMARK    6  A    between atoms: C_13  and  C_14
DOCKED: REMARK    7  A    between atoms: C_14  and  C_15
DOCKED: REMARK    8  A    between atoms: C_15  and  C_16
DOCKED: REMARK                            x       y       z     vdW  Elec       q    Type
DOCKED: REMARK                         _______ _______ _______ _____ _____    ______ ____
DOCKED: USER                              x       y       z     vdW  Elec       q    Type
DOCKED: USER                           _______ _______ _______ _____ _____    ______ ____
DOCKED: ROOT
DOCKED: ATOM      1  C   UNL     1      39.383  15.888 121.443 -0.25 -0.00    +0.000 C 
DOCKED: ENDROOT
DOCKED: BRANCH   1   3
DOCKED: ATOM      2  O   UNL     1      37.136  16.645 121.176 -0.18 -0.00    +0.000 OA
DOCKED: ATOM      3  C   UNL     1      38.050  16.317 121.979 -0.22 -0.00    +0.000 C 
DOCKED: ATOM      4  N   UNL     1      37.827  16.353 123.398 -0.28 -0.00    +0.000 N 
DOCKED: ATOM      5  H   UNL     1      38.610  16.271 123.990 -0.02 -0.00    +0.000 HD
DOCKED: BRANCH   4   6
DOCKED: ATOM      6  C   UNL     1      36.535  16.498 124.011 -0.24 -0.00    +0.000 A 
DOCKED: ATOM      7  C   UNL     1      35.609  15.446 123.922 -0.44 -0.00    +0.000 A 
DOCKED: ATOM      8  C   UNL     1      34.337  15.572 124.489 -0.52 -0.00    +0.000 A 
DOCKED: ATOM      9  C   UNL     1      33.972  16.755 125.135 -0.36 -0.00    +0.000 A 
DOCKED: ATOM     10  C   UNL     1      34.878  17.817 125.211 -0.31 -0.00    +0.000 A 
DOCKED: ATOM     11  C   UNL     1      36.151  17.695 124.646 -0.23 -0.00    +0.000 A 
DOCKED: ATOM     12  CM  UNL     1      35.247  16.630 124.569 -0.16 -0.00    +0.000 AC
DOCKED: ENDBRANCH   4   6
DOCKED: ENDBRANCH   1   3
DOCKED: BRANCH   1  12
DOCKED: ATOM     13  C   UNL     1      39.243  14.579 120.657 -0.25 -0.00    +0.000 C 
DOCKED: BRANCH  12  13
DOCKED: ATOM     14  C   UNL     1      37.807  14.025 120.669 -0.38 -0.00    +0.000 C 
DOCKED: BRANCH  13  14
DOCKED: ATOM     15  C   UNL     1      37.740  12.486 120.578 -0.51 -0.00    +0.000 C 
DOCKED: BRANCH  14  15
DOCKED: ATOM     16  C   UNL     1      36.550  11.909 121.364 -0.49 -0.00    +0.000 C 
DOCKED: BRANCH  15  16
DOCKED: ATOM     17  C   UNL     1      36.996  11.125 122.605 -0.61 -0.00    +0.000 C 
DOCKED: BRANCH  16  17
DOCKED: ATOM     18  C   UNL     1      36.989   9.645 122.362 -0.62 -0.00    +0.000 C 
DOCKED: ATOM     19  N   UNL     1      37.078   8.731 123.457 -0.63 -0.00    +0.000 N 
DOCKED: ATOM     20  O   UNL     1      37.062   7.395 123.240 -2.40 -0.00    +0.000 OA
DOCKED: ATOM     21  O   UNL     1      36.875   9.207 121.186 -2.68 -0.00    +0.000 OA
DOCKED: ATOM     22  H   UNL     1      37.150   9.076 124.376 -0.53 -0.00    +0.000 HD
DOCKED: ENDBRANCH  16  17
DOCKED: ENDBRANCH  15  16
DOCKED: ENDBRANCH  14  15
DOCKED: ENDBRANCH  13  14
DOCKED: ENDBRANCH  12  13
DOCKED: ENDBRANCH   1  12
DOCKED: TORSDOF 8DOCKED: TER
DOCKED: ENDMDL
________________________________________________________________________________


	BEGINNING GENETIC ALGORITHM DOCKING 90 of 100
Run: 90 Seed: 1190714191 1132998872 [ Run 90 of 100 GA/GALS ]
Beginning LAMARCKIAN GENETIC ALGORITHM (LGA), with a maximum of 2500000 energy evaluations.

Final-Value: -12.731


	FINAL GENETIC ALGORITHM DOCKED STATE
	_______________________________________________


Detailed state:  trans 36.014 14.532 121.716 quatxyzw -0.518137 0.129487 -0.805156 0.257858 center 0.108 0.248 -0.022 ntor 8 -157.0995 -171.0894 -180.0000 105.4606 1.4079 33.5937 102.8957 179.8898
State:	 36.014  14.532 121.716  -0.536  0.134 -0.833 150.114   -157.10 -171.09 -180.00  105.46    1.41   33.59  102.90  179.89

DOCKED: MODEL       90
DOCKED: USER    Run = 90
DOCKED: USER    DPF = ligand_dock.biased.dpf
DOCKED: USER  
DOCKED: USER    Estimated Free Energy of Binding    =   -9.52 kcal/mol  [=(1)+(2)+(3)-(4)]
DOCKED: USER    Estimated Inhibition Constant, Ki   =  105.42 nM (nanomolar)  [Temperature = 298.15 K]
DOCKED: USER    
DOCKED: USER    (1) Final Intermolecular Energy     =  -11.90 kcal/mol
DOCKED: USER        vdW + Hbond + desolv Energy     =  -11.90 kcal/mol
DOCKED: USER        Electrostatic Energy            =   +0.00 kcal/mol
DOCKED: USER    (2) Final Total Internal Energy     =   -0.83 kcal/mol
DOCKED: USER    (3) Torsional Free Energy           =   +2.39 kcal/mol
DOCKED: USER    (4) Unbound System's Energy  [=(2)] =   -0.83 kcal/mol
DOCKED: USER    
DOCKED: USER    
DOCKED: USER    NEWDPF move ligand.dum.pdbqt
DOCKED: USER    NEWDPF about 0.108000 0.248000 -0.022000
DOCKED: USER    NEWDPF tran0 36.014372 14.531910 121.716026
DOCKED: USER    NEWDPF quaternion0 -0.518137 0.129487 -0.805156 0.257858
DOCKED: USER    NEWDPF axisangle0 -0.536272 0.134019 -0.833337 150.114014
DOCKED: USER    NEWDPF quat0 -0.536272 0.134019 -0.833337 150.114014
DOCKED: USER    NEWDPF dihe0 -157.10 -171.09 -180.00 105.46 1.41 33.59 102.90 179.89 
DOCKED: USER  keepresnum = 1 
DOCKED: USER  
DOCKED: REMARK  Name = 
DOCKED: REMARK  8 active torsions:
DOCKED: REMARK  status: ('A' for Active; 'I' for Inactive)
DOCKED: REMARK    1  A    between atoms: C_2  and  C_10
DOCKED: REMARK    2  A    between atoms: N_3  and  C_4
DOCKED: REMARK    3  A    between atoms: C_10  and  C_11
DOCKED: REMARK    4  A    between atoms: C_11  and  C_12
DOCKED: REMARK    5  A    between atoms: C_12  and  C_13
DOCKED: REMARK    6  A    between atoms: C_13  and  C_14
DOCKED: REMARK    7  A    between atoms: C_14  and  C_15
DOCKED: REMARK    8  A    between atoms: C_15  and  C_16
DOCKED: REMARK                            x       y       z     vdW  Elec       q    Type
DOCKED: REMARK                         _______ _______ _______ _____ _____    ______ ____
DOCKED: USER                              x       y       z     vdW  Elec       q    Type
DOCKED: USER                           _______ _______ _______ _____ _____    ______ ____
DOCKED: ROOT
DOCKED: ATOM      1  C   UNL     1      36.698  15.772 121.228 -0.21 -0.00    +0.000 C 
DOCKED: ENDROOT
DOCKED: BRANCH   1   3
DOCKED: ATOM      2  O   UNL     1      37.092  13.907 119.792 -0.37 -0.00    +0.000 OA
DOCKED: ATOM      3  C   UNL     1      37.355  15.112 120.053 -0.26 -0.00    +0.000 C 
DOCKED: ATOM      4  N   UNL     1      38.279  15.853 119.239 -0.14 -0.00    +0.000 N 
DOCKED: ATOM      5  H   UNL     1      38.599  16.720 119.579 +0.00 -0.00    +0.000 HD
DOCKED: BRANCH   4   6
DOCKED: ATOM      6  C   UNL     1      38.766  15.412 117.961 -0.15 -0.00    +0.000 A 
DOCKED: ATOM      7  C   UNL     1      37.940  14.620 117.146 -0.24 -0.00    +0.000 A 
DOCKED: ATOM      8  C   UNL     1      38.399  14.158 115.909 -0.34 -0.00    +0.000 A 
DOCKED: ATOM      9  C   UNL     1      39.692  14.469 115.481 -0.35 -0.00    +0.000 A 
DOCKED: ATOM     10  C   UNL     1      40.530  15.239 116.292 -0.28 -0.00    +0.000 A 
DOCKED: ATOM     11  C   UNL     1      40.075  15.703 117.531 -0.13 -0.00    +0.000 A 
DOCKED: ATOM     12  CM  UNL     1      39.234  14.933 116.720 +0.00 -0.00    +0.000 AC
DOCKED: ENDBRANCH   4   6
DOCKED: ENDBRANCH   1   3
DOCKED: BRANCH   1  12
DOCKED: ATOM     13  C   UNL     1      37.380  15.339 122.530 -0.36 -0.00    +0.000 C 
DOCKED: BRANCH  12  13
DOCKED: ATOM     14  C   UNL     1      36.858  13.991 123.059 -0.52 -0.00    +0.000 C 
DOCKED: BRANCH  13  14
DOCKED: ATOM     15  C   UNL     1      37.788  12.803 122.741 -0.40 -0.00    +0.000 C 
DOCKED: BRANCH  14  15
DOCKED: ATOM     16  C   UNL     1      37.274  11.964 121.557 -0.51 -0.00    +0.000 C 
DOCKED: BRANCH  15  16
DOCKED: ATOM     17  C   UNL     1      36.173  10.981 121.974 -0.58 -0.00    +0.000 C 
DOCKED: BRANCH  16  17
DOCKED: ATOM     18  C   UNL     1      36.689   9.577 122.080 -0.69 -0.00    +0.000 C 
DOCKED: ATOM     19  N   UNL     1      36.910   8.981 123.360 -0.61 -0.00    +0.000 N 
DOCKED: ATOM     20  O   UNL     1      37.367   7.712 123.457 -2.62 -0.00    +0.000 OA
DOCKED: ATOM     21  O   UNL     1      36.902   8.910 121.032 -2.67 -0.00    +0.000 OA
DOCKED: ATOM     22  H   UNL     1      36.728   9.499 124.177 -0.49 -0.00    +0.000 HD
DOCKED: ENDBRANCH  16  17
DOCKED: ENDBRANCH  15  16
DOCKED: ENDBRANCH  14  15
DOCKED: ENDBRANCH  13  14
DOCKED: ENDBRANCH  12  13
DOCKED: ENDBRANCH   1  12
DOCKED: TORSDOF 8DOCKED: TER
DOCKED: ENDMDL
________________________________________________________________________________


	BEGINNING GENETIC ALGORITHM DOCKING 91 of 100
Run: 91 Seed: 2090102368 152606969 [ Run 91 of 100 GA/GALS ]
Beginning LAMARCKIAN GENETIC ALGORITHM (LGA), with a maximum of 2500000 energy evaluations.

Final-Value: -13.714


	FINAL GENETIC ALGORITHM DOCKED STATE
	_______________________________________________


Detailed state:  trans 38.808 16.188 121.681 quatxyzw 0.055630 -0.886710 0.430296 -0.159676 center 0.108 0.248 -0.022 ntor 8 -177.0054 -178.5331 86.2058 38.2996 73.2408 159.0161 -16.8844 24.2353
State:	 38.808  16.188 121.681   0.056 -0.898  0.436 -161.624   -177.01 -178.53   86.21   38.30   73.24  159.02  -16.88   24.24

DOCKED: MODEL       91
DOCKED: USER    Run = 91
DOCKED: USER    DPF = ligand_dock.biased.dpf
DOCKED: USER  
DOCKED: USER    Estimated Free Energy of Binding    =  -10.53 kcal/mol  [=(1)+(2)+(3)-(4)]
DOCKED: USER    Estimated Inhibition Constant, Ki   =   19.11 nM (nanomolar)  [Temperature = 298.15 K]
DOCKED: USER    
DOCKED: USER    (1) Final Intermolecular Energy     =  -12.92 kcal/mol
DOCKED: USER        vdW + Hbond + desolv Energy     =  -12.92 kcal/mol
DOCKED: USER        Electrostatic Energy            =   +0.00 kcal/mol
DOCKED: USER    (2) Final Total Internal Energy     =   -0.80 kcal/mol
DOCKED: USER    (3) Torsional Free Energy           =   +2.39 kcal/mol
DOCKED: USER    (4) Unbound System's Energy  [=(2)] =   -0.80 kcal/mol
DOCKED: USER    
DOCKED: USER    
DOCKED: USER    NEWDPF move ligand.dum.pdbqt
DOCKED: USER    NEWDPF about 0.108000 0.248000 -0.022000
DOCKED: USER    NEWDPF tran0 38.808354 16.188346 121.681211
DOCKED: USER    NEWDPF quaternion0 0.055630 -0.886710 0.430296 -0.159676
DOCKED: USER    NEWDPF axisangle0 0.056353 -0.898235 0.435888 -161.623839
DOCKED: USER    NEWDPF quat0 0.056353 -0.898235 0.435888 -161.623839
DOCKED: USER    NEWDPF dihe0 -177.01 -178.53 86.21 38.30 73.24 159.02 -16.88 24.24 
DOCKED: USER  keepresnum = 1 
DOCKED: USER  
DOCKED: REMARK  Name = 
DOCKED: REMARK  8 active torsions:
DOCKED: REMARK  status: ('A' for Active; 'I' for Inactive)
DOCKED: REMARK    1  A    between atoms: C_2  and  C_10
DOCKED: REMARK    2  A    between atoms: N_3  and  C_4
DOCKED: REMARK    3  A    between atoms: C_10  and  C_11
DOCKED: REMARK    4  A    between atoms: C_11  and  C_12
DOCKED: REMARK    5  A    between atoms: C_12  and  C_13
DOCKED: REMARK    6  A    between atoms: C_13  and  C_14
DOCKED: REMARK    7  A    between atoms: C_14  and  C_15
DOCKED: REMARK    8  A    between atoms: C_15  and  C_16
DOCKED: REMARK                            x       y       z     vdW  Elec       q    Type
DOCKED: REMARK                         _______ _______ _______ _____ _____    ______ ____
DOCKED: USER                              x       y       z     vdW  Elec       q    Type
DOCKED: USER                           _______ _______ _______ _____ _____    ______ ____
DOCKED: ROOT
DOCKED: ATOM      1  C   UNL     1      39.511  15.494 122.807 -0.29 -0.00    +0.000 C 
DOCKED: ENDROOT
DOCKED: BRANCH   1   3
DOCKED: ATOM      2  O   UNL     1      41.502  14.267 122.331 -1.01 +0.00    +0.000 OA
DOCKED: ATOM      3  C   UNL     1      40.787  15.267 122.052 -0.43 -0.00    +0.000 C 
DOCKED: ATOM      4  N   UNL     1      41.184  16.189 121.024 -0.20 -0.00    +0.000 N 
DOCKED: ATOM      5  H   UNL     1      40.705  17.046 120.964 +0.00 -0.00    +0.000 HD
DOCKED: BRANCH   4   6
DOCKED: ATOM      6  C   UNL     1      42.236  15.940 120.076 -0.11 -0.00    +0.000 A 
DOCKED: ATOM      7  C   UNL     1      43.551  15.765 120.537 -0.24 -0.00    +0.000 A 
DOCKED: ATOM      8  C   UNL     1      44.595  15.546 119.633 -0.28 -0.00    +0.000 A 
DOCKED: ATOM      9  C   UNL     1      44.339  15.515 118.261 -0.28 -0.00    +0.000 A 
DOCKED: ATOM     10  C   UNL     1      43.038  15.709 117.789 -0.25 -0.00    +0.000 A 
DOCKED: ATOM     11  C   UNL     1      41.990  15.929 118.689 -0.13 -0.00    +0.000 A 
DOCKED: ATOM     12  CM  UNL     1      43.291  15.734 119.164 +0.00 -0.00    +0.000 AC
DOCKED: ENDBRANCH   4   6
DOCKED: ENDBRANCH   1   3
DOCKED: BRANCH   1  12
DOCKED: ATOM     13  C   UNL     1      38.414  14.559 122.288 -0.43 -0.00    +0.000 C 
DOCKED: BRANCH  12  13
DOCKED: ATOM     14  C   UNL     1      37.298  14.316 123.320 -0.47 -0.00    +0.000 C 
DOCKED: BRANCH  13  14
DOCKED: ATOM     15  C   UNL     1      36.899  12.832 123.458 -0.63 -0.00    +0.000 C 
DOCKED: BRANCH  14  15
DOCKED: ATOM     16  C   UNL     1      37.095  12.054 122.144 -0.57 -0.00    +0.000 C 
DOCKED: BRANCH  15  16
DOCKED: ATOM     17  C   UNL     1      36.065  10.929 121.974 -0.56 -0.00    +0.000 C 
DOCKED: BRANCH  16  17
DOCKED: ATOM     18  C   UNL     1      36.697   9.573 122.086 -0.69 -0.00    +0.000 C 
DOCKED: ATOM     19  N   UNL     1      36.887   8.965 123.365 -0.60 -0.00    +0.000 N 
DOCKED: ATOM     20  O   UNL     1      37.448   7.739 123.467 -2.58 -0.00    +0.000 OA
DOCKED: ATOM     21  O   UNL     1      37.036   8.955 121.041 -2.70 -0.00    +0.000 OA
DOCKED: ATOM     22  H   UNL     1      36.606   9.443 124.179 -0.45 -0.00    +0.000 HD
DOCKED: ENDBRANCH  16  17
DOCKED: ENDBRANCH  15  16
DOCKED: ENDBRANCH  14  15
DOCKED: ENDBRANCH  13  14
DOCKED: ENDBRANCH  12  13
DOCKED: ENDBRANCH   1  12
DOCKED: TORSDOF 8DOCKED: TER
DOCKED: ENDMDL
________________________________________________________________________________


	BEGINNING GENETIC ALGORITHM DOCKING 92 of 100
Run: 92 Seed: 817938483 1928020884 [ Run 92 of 100 GA/GALS ]
Beginning LAMARCKIAN GENETIC ALGORITHM (LGA), with a maximum of 2500000 energy evaluations.

Final-Value: -13.377


	FINAL GENETIC ALGORITHM DOCKED STATE
	_______________________________________________


Detailed state:  trans 35.771 14.149 120.238 quatxyzw 0.496267 -0.515068 0.626744 -0.309218 center 0.108 0.248 -0.022 ntor 8 100.4176 83.7689 -179.9551 144.2653 174.4124 48.2103 -31.6099 11.0532
State:	 35.771  14.149 120.238   0.522 -0.542  0.659 -143.976    100.42   83.77 -179.96  144.27  174.41   48.21  -31.61   11.05

DOCKED: MODEL       92
DOCKED: USER    Run = 92
DOCKED: USER    DPF = ligand_dock.biased.dpf
DOCKED: USER  
DOCKED: USER    Estimated Free Energy of Binding    =  -10.56 kcal/mol  [=(1)+(2)+(3)-(4)]
DOCKED: USER    Estimated Inhibition Constant, Ki   =   18.04 nM (nanomolar)  [Temperature = 298.15 K]
DOCKED: USER    
DOCKED: USER    (1) Final Intermolecular Energy     =  -12.95 kcal/mol
DOCKED: USER        vdW + Hbond + desolv Energy     =  -12.95 kcal/mol
DOCKED: USER        Electrostatic Energy            =   +0.00 kcal/mol
DOCKED: USER    (2) Final Total Internal Energy     =   -0.43 kcal/mol
DOCKED: USER    (3) Torsional Free Energy           =   +2.39 kcal/mol
DOCKED: USER    (4) Unbound System's Energy  [=(2)] =   -0.43 kcal/mol
DOCKED: USER    
DOCKED: USER    
DOCKED: USER    NEWDPF move ligand.dum.pdbqt
DOCKED: USER    NEWDPF about 0.108000 0.248000 -0.022000
DOCKED: USER    NEWDPF tran0 35.771127 14.148902 120.237557
DOCKED: USER    NEWDPF quaternion0 0.496267 -0.515068 0.626744 -0.309218
DOCKED: USER    NEWDPF axisangle0 0.521842 -0.541612 0.659043 -143.975794
DOCKED: USER    NEWDPF quat0 0.521842 -0.541612 0.659043 -143.975794
DOCKED: USER    NEWDPF dihe0 100.42 83.77 -179.96 144.27 174.41 48.21 -31.61 11.05 
DOCKED: USER  keepresnum = 1 
DOCKED: USER  
DOCKED: REMARK  Name = 
DOCKED: REMARK  8 active torsions:
DOCKED: REMARK  status: ('A' for Active; 'I' for Inactive)
DOCKED: REMARK    1  A    between atoms: C_2  and  C_10
DOCKED: REMARK    2  A    between atoms: N_3  and  C_4
DOCKED: REMARK    3  A    between atoms: C_10  and  C_11
DOCKED: REMARK    4  A    between atoms: C_11  and  C_12
DOCKED: REMARK    5  A    between atoms: C_12  and  C_13
DOCKED: REMARK    6  A    between atoms: C_13  and  C_14
DOCKED: REMARK    7  A    between atoms: C_14  and  C_15
DOCKED: REMARK    8  A    between atoms: C_15  and  C_16
DOCKED: REMARK                            x       y       z     vdW  Elec       q    Type
DOCKED: REMARK                         _______ _______ _______ _____ _____    ______ ____
DOCKED: USER                              x       y       z     vdW  Elec       q    Type
DOCKED: USER                           _______ _______ _______ _____ _____    ______ ____
DOCKED: ROOT
DOCKED: ATOM      1  C   UNL     1      37.080  14.850 120.433 -0.25 -0.00    +0.000 C 
DOCKED: ENDROOT
DOCKED: BRANCH   1   3
DOCKED: ATOM      2  O   UNL     1      38.745  14.872 118.723 -0.21 -0.00    +0.000 OA
DOCKED: ATOM      3  C   UNL     1      37.530  14.698 119.011 -0.28 -0.00    +0.000 C 
DOCKED: ATOM      4  N   UNL     1      36.576  14.360 117.990 -0.31 -0.00    +0.000 N 
DOCKED: ATOM      5  H   UNL     1      35.620  14.416 118.217 -0.02 -0.00    +0.000 HD
DOCKED: BRANCH   4   6
DOCKED: ATOM      6  C   UNL     1      36.928  13.944 116.660 -0.33 -0.00    +0.000 A 
DOCKED: ATOM      7  C   UNL     1      38.120  13.231 116.454 -0.38 -0.00    +0.000 A 
DOCKED: ATOM      8  C   UNL     1      38.497  12.837 115.167 -0.49 -0.00    +0.000 A 
DOCKED: ATOM      9  C   UNL     1      37.694  13.164 114.071 -0.26 -0.00    +0.000 A 
DOCKED: ATOM     10  C   UNL     1      36.516  13.891 114.261 -0.28 -0.00    +0.000 A 
DOCKED: ATOM     11  C   UNL     1      36.136  14.288 115.547 -0.26 -0.00    +0.000 A 
DOCKED: ATOM     12  CM  UNL     1      37.315  13.559 115.360 +0.00 -0.00    +0.000 AC
DOCKED: ENDBRANCH   4   6
DOCKED: ENDBRANCH   1   3
DOCKED: BRANCH   1  12
DOCKED: ATOM     13  C   UNL     1      37.154  13.502 121.160 -0.42 -0.00    +0.000 C 
DOCKED: BRANCH  12  13
DOCKED: ATOM     14  C   UNL     1      37.619  13.635 122.620 -0.51 -0.00    +0.000 C 
DOCKED: BRANCH  13  14
DOCKED: ATOM     15  C   UNL     1      36.545  13.227 123.649 -0.58 -0.00    +0.000 C 
DOCKED: BRANCH  14  15
DOCKED: ATOM     16  C   UNL     1      36.301  11.708 123.663 -0.70 -0.00    +0.000 C 
DOCKED: BRANCH  15  16
DOCKED: ATOM     17  C   UNL     1      36.264  11.111 122.250 -0.65 -0.00    +0.000 C 
DOCKED: BRANCH  16  17
DOCKED: ATOM     18  C   UNL     1      36.711   9.678 122.238 -0.69 -0.00    +0.000 C 
DOCKED: ATOM     19  N   UNL     1      37.048   9.015 123.458 -0.58 -0.00    +0.000 N 
DOCKED: ATOM     20  O   UNL     1      37.442   7.720 123.449 -2.60 -0.00    +0.000 OA
DOCKED: ATOM     21  O   UNL     1      36.760   9.050 121.147 -2.64 -0.00    +0.000 OA
DOCKED: ATOM     22  H   UNL     1      36.993   9.503 124.311 -0.51 -0.00    +0.000 HD
DOCKED: ENDBRANCH  16  17
DOCKED: ENDBRANCH  15  16
DOCKED: ENDBRANCH  14  15
DOCKED: ENDBRANCH  13  14
DOCKED: ENDBRANCH  12  13
DOCKED: ENDBRANCH   1  12
DOCKED: TORSDOF 8DOCKED: TER
DOCKED: ENDMDL
________________________________________________________________________________


	BEGINNING GENETIC ALGORITHM DOCKING 93 of 100
Run: 93 Seed: 1207202444 904649254 [ Run 93 of 100 GA/GALS ]
Beginning LAMARCKIAN GENETIC ALGORITHM (LGA), with a maximum of 2500000 energy evaluations.

Final-Value: -14.077


	FINAL GENETIC ALGORITHM DOCKED STATE
	_______________________________________________


Detailed state:  trans 38.285 13.659 122.901 quatxyzw -0.055781 0.623556 0.745552 0.228513 center 0.108 0.248 -0.022 ntor 8 88.5334 120.6266 73.3467 100.3058 -167.9458 -161.3504 78.6508 11.5949
State:	 38.285  13.659 122.901  -0.057  0.641  0.766 153.581     88.53  120.63   73.35  100.31 -167.95 -161.35   78.65   11.59

DOCKED: MODEL       93
DOCKED: USER    Run = 93
DOCKED: USER    DPF = ligand_dock.biased.dpf
DOCKED: USER  
DOCKED: USER    Estimated Free Energy of Binding    =  -10.73 kcal/mol  [=(1)+(2)+(3)-(4)]
DOCKED: USER    Estimated Inhibition Constant, Ki   =   13.65 nM (nanomolar)  [Temperature = 298.15 K]
DOCKED: USER    
DOCKED: USER    (1) Final Intermolecular Energy     =  -13.12 kcal/mol
DOCKED: USER        vdW + Hbond + desolv Energy     =  -13.12 kcal/mol
DOCKED: USER        Electrostatic Energy            =   +0.00 kcal/mol
DOCKED: USER    (2) Final Total Internal Energy     =   -0.96 kcal/mol
DOCKED: USER    (3) Torsional Free Energy           =   +2.39 kcal/mol
DOCKED: USER    (4) Unbound System's Energy  [=(2)] =   -0.96 kcal/mol
DOCKED: USER    
DOCKED: USER    
DOCKED: USER    NEWDPF move ligand.dum.pdbqt
DOCKED: USER    NEWDPF about 0.108000 0.248000 -0.022000
DOCKED: USER    NEWDPF tran0 38.285167 13.658639 122.900567
DOCKED: USER    NEWDPF quaternion0 -0.055781 0.623556 0.745552 0.228513
DOCKED: USER    NEWDPF axisangle0 -0.057297 0.640503 0.765815 153.580870
DOCKED: USER    NEWDPF quat0 -0.057297 0.640503 0.765815 153.580870
DOCKED: USER    NEWDPF dihe0 88.53 120.63 73.35 100.31 -167.95 -161.35 78.65 11.59 
DOCKED: USER  keepresnum = 1 
DOCKED: USER  
DOCKED: REMARK  Name = 
DOCKED: REMARK  8 active torsions:
DOCKED: REMARK  status: ('A' for Active; 'I' for Inactive)
DOCKED: REMARK    1  A    between atoms: C_2  and  C_10
DOCKED: REMARK    2  A    between atoms: N_3  and  C_4
DOCKED: REMARK    3  A    between atoms: C_10  and  C_11
DOCKED: REMARK    4  A    between atoms: C_11  and  C_12
DOCKED: REMARK    5  A    between atoms: C_12  and  C_13
DOCKED: REMARK    6  A    between atoms: C_13  and  C_14
DOCKED: REMARK    7  A    between atoms: C_14  and  C_15
DOCKED: REMARK    8  A    between atoms: C_15  and  C_16
DOCKED: REMARK                            x       y       z     vdW  Elec       q    Type
DOCKED: REMARK                         _______ _______ _______ _____ _____    ______ ____
DOCKED: USER                              x       y       z     vdW  Elec       q    Type
DOCKED: USER                           _______ _______ _______ _____ _____    ______ ____
DOCKED: ROOT
DOCKED: ATOM      1  C   UNL     1      38.278  13.710 121.403 -0.42 -0.00    +0.000 C 
DOCKED: ENDROOT
DOCKED: BRANCH   1   3
DOCKED: ATOM      2  O   UNL     1      39.730  15.177 120.207 -0.25 -0.00    +0.000 OA
DOCKED: ATOM      3  C   UNL     1      39.495  14.579 121.291 -0.33 -0.00    +0.000 C 
DOCKED: ATOM      4  N   UNL     1      40.380  14.721 122.414 -0.44 -0.00    +0.000 N 
DOCKED: ATOM      5  H   UNL     1      40.268  14.100 123.170 -0.05 -0.00    +0.000 HD
DOCKED: BRANCH   4   6
DOCKED: ATOM      6  C   UNL     1      41.419  15.710 122.506 -0.42 -0.00    +0.000 A 
DOCKED: ATOM      7  C   UNL     1      42.600  15.539 121.767 -0.32 -0.00    +0.000 A 
DOCKED: ATOM      8  C   UNL     1      43.636  16.474 121.858 -0.29 -0.00    +0.000 A 
DOCKED: ATOM      9  C   UNL     1      43.507  17.581 122.700 -0.28 -0.00    +0.000 A 
DOCKED: ATOM     10  C   UNL     1      42.344  17.751 123.457 -0.24 -0.00    +0.000 A 
DOCKED: ATOM     11  C   UNL     1      41.306  16.818 123.369 -0.32 -0.00    +0.000 A 
DOCKED: ATOM     12  CM  UNL     1      42.469  16.645 122.610 +0.00 -0.00    +0.000 AC
DOCKED: ENDBRANCH   4   6
DOCKED: ENDBRANCH   1   3
DOCKED: BRANCH   1  12
DOCKED: ATOM     13  C   UNL     1      37.085  14.528 121.909 -0.37 -0.00    +0.000 C 
DOCKED: BRANCH  12  13
DOCKED: ATOM     14  C   UNL     1      36.708  14.200 123.364 -0.51 -0.00    +0.000 C 
DOCKED: BRANCH  13  14
DOCKED: ATOM     15  C   UNL     1      35.596  13.137 123.487 -0.47 -0.00    +0.000 C 
DOCKED: BRANCH  14  15
DOCKED: ATOM     16  C   UNL     1      36.163  11.706 123.526 -0.70 -0.00    +0.000 C 
DOCKED: BRANCH  15  16
DOCKED: ATOM     17  C   UNL     1      36.385  11.130 122.121 -0.63 -0.00    +0.000 C 
DOCKED: BRANCH  16  17
DOCKED: ATOM     18  C   UNL     1      36.746   9.674 122.167 -0.68 -0.00    +0.000 C 
DOCKED: ATOM     19  N   UNL     1      37.035   9.038 123.414 -0.59 -0.00    +0.000 N 
DOCKED: ATOM     20  O   UNL     1      37.351   7.724 123.457 -2.63 -0.00    +0.000 OA
DOCKED: ATOM     21  O   UNL     1      36.764   9.003 121.100 -2.63 -0.00    +0.000 OA
DOCKED: ATOM     22  H   UNL     1      37.003   9.561 124.247 -0.55 -0.00    +0.000 HD
DOCKED: ENDBRANCH  16  17
DOCKED: ENDBRANCH  15  16
DOCKED: ENDBRANCH  14  15
DOCKED: ENDBRANCH  13  14
DOCKED: ENDBRANCH  12  13
DOCKED: ENDBRANCH   1  12
DOCKED: TORSDOF 8DOCKED: TER
DOCKED: ENDMDL
________________________________________________________________________________


	BEGINNING GENETIC ALGORITHM DOCKING 94 of 100
Run: 94 Seed: 278683050 571307811 [ Run 94 of 100 GA/GALS ]
Beginning LAMARCKIAN GENETIC ALGORITHM (LGA), with a maximum of 2500000 energy evaluations.

Final-Value: -13.769


	FINAL GENETIC ALGORITHM DOCKED STATE
	_______________________________________________


Detailed state:  trans 36.847 12.525 121.254 quatxyzw 0.705821 -0.184196 0.682753 0.041673 center 0.108 0.248 -0.022 ntor 8 68.7686 49.9907 32.7518 173.0164 179.4358 -60.3779 21.9543 42.9359
State:	 36.847  12.525 121.254   0.706 -0.184  0.683 175.223     68.77   49.99   32.75  173.02  179.44  -60.38   21.95   42.94

DOCKED: MODEL       94
DOCKED: USER    Run = 94
DOCKED: USER    DPF = ligand_dock.biased.dpf
DOCKED: USER  
DOCKED: USER    Estimated Free Energy of Binding    =  -10.56 kcal/mol  [=(1)+(2)+(3)-(4)]
DOCKED: USER    Estimated Inhibition Constant, Ki   =   18.16 nM (nanomolar)  [Temperature = 298.15 K]
DOCKED: USER    
DOCKED: USER    (1) Final Intermolecular Energy     =  -12.95 kcal/mol
DOCKED: USER        vdW + Hbond + desolv Energy     =  -12.95 kcal/mol
DOCKED: USER        Electrostatic Energy            =   +0.00 kcal/mol
DOCKED: USER    (2) Final Total Internal Energy     =   -0.82 kcal/mol
DOCKED: USER    (3) Torsional Free Energy           =   +2.39 kcal/mol
DOCKED: USER    (4) Unbound System's Energy  [=(2)] =   -0.82 kcal/mol
DOCKED: USER    
DOCKED: USER    
DOCKED: USER    NEWDPF move ligand.dum.pdbqt
DOCKED: USER    NEWDPF about 0.108000 0.248000 -0.022000
DOCKED: USER    NEWDPF tran0 36.847268 12.524879 121.254476
DOCKED: USER    NEWDPF quaternion0 0.705821 -0.184196 0.682753 0.041673
DOCKED: USER    NEWDPF axisangle0 0.706434 -0.184356 0.683347 175.223298
DOCKED: USER    NEWDPF quat0 0.706434 -0.184356 0.683347 175.223298
DOCKED: USER    NEWDPF dihe0 68.77 49.99 32.75 173.02 179.44 -60.38 21.95 42.94 
DOCKED: USER  keepresnum = 1 
DOCKED: USER  
DOCKED: REMARK  Name = 
DOCKED: REMARK  8 active torsions:
DOCKED: REMARK  status: ('A' for Active; 'I' for Inactive)
DOCKED: REMARK    1  A    between atoms: C_2  and  C_10
DOCKED: REMARK    2  A    between atoms: N_3  and  C_4
DOCKED: REMARK    3  A    between atoms: C_10  and  C_11
DOCKED: REMARK    4  A    between atoms: C_11  and  C_12
DOCKED: REMARK    5  A    between atoms: C_12  and  C_13
DOCKED: REMARK    6  A    between atoms: C_13  and  C_14
DOCKED: REMARK    7  A    between atoms: C_14  and  C_15
DOCKED: REMARK    8  A    between atoms: C_15  and  C_16
DOCKED: REMARK                            x       y       z     vdW  Elec       q    Type
DOCKED: REMARK                         _______ _______ _______ _____ _____    ______ ____
DOCKED: USER                              x       y       z     vdW  Elec       q    Type
DOCKED: USER                           _______ _______ _______ _____ _____    ______ ____
DOCKED: ROOT
DOCKED: ATOM      1  C   UNL     1      36.870  14.014 121.418 -0.23 -0.00    +0.000 C 
DOCKED: ENDROOT
DOCKED: BRANCH   1   3
DOCKED: ATOM      2  O   UNL     1      38.073  15.114 119.675 -0.23 -0.00    +0.000 OA
DOCKED: ATOM      3  C   UNL     1      37.153  14.305 119.975 -0.31 -0.00    +0.000 C 
DOCKED: ATOM      4  N   UNL     1      36.377  13.665 118.949 -0.36 -0.00    +0.000 N 
DOCKED: ATOM      5  H   UNL     1      35.558  13.191 119.220 -0.12 -0.00    +0.000 HD
DOCKED: BRANCH   4   6
DOCKED: ATOM      6  C   UNL     1      36.720  13.669 117.553 -0.36 -0.00    +0.000 A 
DOCKED: ATOM      7  C   UNL     1      35.866  14.305 116.637 -0.30 -0.00    +0.000 A 
DOCKED: ATOM      8  C   UNL     1      36.164  14.302 115.271 -0.25 -0.00    +0.000 A 
DOCKED: ATOM      9  C   UNL     1      37.308  13.651 114.805 -0.35 -0.00    +0.000 A 
DOCKED: ATOM     10  C   UNL     1      38.154  12.996 115.705 -0.45 -0.00    +0.000 A 
DOCKED: ATOM     11  C   UNL     1      37.860  12.996 117.072 -0.30 -0.00    +0.000 A 
DOCKED: ATOM     12  CM  UNL     1      37.011  13.653 116.174 +0.00 -0.00    +0.000 AC
DOCKED: ENDBRANCH   4   6
DOCKED: ENDBRANCH   1   3
DOCKED: BRANCH   1  12
DOCKED: ATOM     13  C   UNL     1      38.119  13.445 122.100 -0.43 -0.00    +0.000 C 
DOCKED: BRANCH  12  13
DOCKED: ATOM     14  C   UNL     1      37.810  12.769 123.447 -0.39 -0.00    +0.000 C 
DOCKED: BRANCH  13  14
DOCKED: ATOM     15  C   UNL     1      36.301  12.661 123.750 -0.65 -0.00    +0.000 C 
DOCKED: BRANCH  14  15
DOCKED: ATOM     16  C   UNL     1      35.625  11.541 122.940 -0.58 -0.00    +0.000 C 
DOCKED: BRANCH  15  16
DOCKED: ATOM     17  C   UNL     1      36.518  11.021 121.806 -0.54 -0.00    +0.000 C 
DOCKED: BRANCH  16  17
DOCKED: ATOM     18  C   UNL     1      36.860   9.571 121.986 -0.65 -0.00    +0.000 C 
DOCKED: ATOM     19  N   UNL     1      36.931   9.001 123.294 -0.62 -0.00    +0.000 N 
DOCKED: ATOM     20  O   UNL     1      37.230   7.692 123.457 -2.64 -0.00    +0.000 OA
DOCKED: ATOM     21  O   UNL     1      37.058   8.847 120.973 -2.70 -0.00    +0.000 OA
DOCKED: ATOM     22  H   UNL     1      36.759   9.565 124.083 -0.48 -0.00    +0.000 HD
DOCKED: ENDBRANCH  16  17
DOCKED: ENDBRANCH  15  16
DOCKED: ENDBRANCH  14  15
DOCKED: ENDBRANCH  13  14
DOCKED: ENDBRANCH  12  13
DOCKED: ENDBRANCH   1  12
DOCKED: TORSDOF 8DOCKED: TER
DOCKED: ENDMDL
________________________________________________________________________________


	BEGINNING GENETIC ALGORITHM DOCKING 95 of 100
Run: 95 Seed: 2110971909 1227806417 [ Run 95 of 100 GA/GALS ]
Beginning LAMARCKIAN GENETIC ALGORITHM (LGA), with a maximum of 2500000 energy evaluations.

Final-Value: -12.957


	FINAL GENETIC ALGORITHM DOCKED STATE
	_______________________________________________


Detailed state:  trans 35.719 16.198 122.165 quatxyzw 0.207017 -0.751807 0.613770 -0.123353 center 0.108 0.248 -0.022 ntor 8 156.4639 30.4053 22.5696 -99.3333 179.9487 42.6898 173.9914 -179.7389
State:	 35.719  16.198 122.165   0.209 -0.758  0.618 -165.829    156.46   30.41   22.57  -99.33  179.95   42.69  173.99 -179.74

DOCKED: MODEL       95
DOCKED: USER    Run = 95
DOCKED: USER    DPF = ligand_dock.biased.dpf
DOCKED: USER  
DOCKED: USER    Estimated Free Energy of Binding    =   -9.60 kcal/mol  [=(1)+(2)+(3)-(4)]
DOCKED: USER    Estimated Inhibition Constant, Ki   =   91.94 nM (nanomolar)  [Temperature = 298.15 K]
DOCKED: USER    
DOCKED: USER    (1) Final Intermolecular Energy     =  -11.99 kcal/mol
DOCKED: USER        vdW + Hbond + desolv Energy     =  -11.99 kcal/mol
DOCKED: USER        Electrostatic Energy            =   +0.00 kcal/mol
DOCKED: USER    (2) Final Total Internal Energy     =   -0.97 kcal/mol
DOCKED: USER    (3) Torsional Free Energy           =   +2.39 kcal/mol
DOCKED: USER    (4) Unbound System's Energy  [=(2)] =   -0.97 kcal/mol
DOCKED: USER    
DOCKED: USER    
DOCKED: USER    NEWDPF move ligand.dum.pdbqt
DOCKED: USER    NEWDPF about 0.108000 0.248000 -0.022000
DOCKED: USER    NEWDPF tran0 35.719117 16.198272 122.165217
DOCKED: USER    NEWDPF quaternion0 0.207017 -0.751807 0.613770 -0.123353
DOCKED: USER    NEWDPF axisangle0 0.208610 -0.757593 0.618494 -165.828708
DOCKED: USER    NEWDPF quat0 0.208610 -0.757593 0.618494 -165.828708
DOCKED: USER    NEWDPF dihe0 156.46 30.41 22.57 -99.33 179.95 42.69 173.99 -179.74 
DOCKED: USER  keepresnum = 1 
DOCKED: USER  
DOCKED: REMARK  Name = 
DOCKED: REMARK  8 active torsions:
DOCKED: REMARK  status: ('A' for Active; 'I' for Inactive)
DOCKED: REMARK    1  A    between atoms: C_2  and  C_10
DOCKED: REMARK    2  A    between atoms: N_3  and  C_4
DOCKED: REMARK    3  A    between atoms: C_10  and  C_11
DOCKED: REMARK    4  A    between atoms: C_11  and  C_12
DOCKED: REMARK    5  A    between atoms: C_12  and  C_13
DOCKED: REMARK    6  A    between atoms: C_13  and  C_14
DOCKED: REMARK    7  A    between atoms: C_14  and  C_15
DOCKED: REMARK    8  A    between atoms: C_15  and  C_16
DOCKED: REMARK                            x       y       z     vdW  Elec       q    Type
DOCKED: REMARK                         _______ _______ _______ _____ _____    ______ ____
DOCKED: USER                              x       y       z     vdW  Elec       q    Type
DOCKED: USER                           _______ _______ _______ _____ _____    ______ ____
DOCKED: ROOT
DOCKED: ATOM      1  C   UNL     1      36.646  16.285 123.339 -0.34 -0.00    +0.000 C 
DOCKED: ENDROOT
DOCKED: BRANCH   1   3
DOCKED: ATOM      2  O   UNL     1      37.827  16.248 121.266 -0.18 -0.00    +0.000 OA
DOCKED: ATOM      3  C   UNL     1      37.903  16.232 122.524 -0.27 -0.00    +0.000 C 
DOCKED: ATOM      4  N   UNL     1      39.180  16.162 123.180 -0.25 -0.00    +0.000 N 
DOCKED: ATOM      5  H   UNL     1      39.191  15.965 124.145 +0.04 -0.00    +0.000 HD
DOCKED: BRANCH   4   6
DOCKED: ATOM      6  C   UNL     1      40.441  16.361 122.521 -0.28 -0.00    +0.000 A 
DOCKED: ATOM      7  C   UNL     1      41.439  15.379 122.632 -0.47 -0.00    +0.000 A 
DOCKED: ATOM      8  C   UNL     1      42.683  15.561 122.021 -0.33 -0.00    +0.000 A 
DOCKED: ATOM      9  C   UNL     1      42.948  16.731 121.306 -0.22 -0.00    +0.000 A 
DOCKED: ATOM     10  C   UNL     1      41.970  17.725 121.206 -0.11 -0.00    +0.000 A 
DOCKED: ATOM     11  C   UNL     1      40.724  17.548 121.817 -0.12 -0.00    +0.000 A 
DOCKED: ATOM     12  CM  UNL     1      41.701  16.551 121.918 +0.00 -0.00    +0.000 AC
DOCKED: ENDBRANCH   4   6
DOCKED: ENDBRANCH   1   3
DOCKED: BRANCH   1  12
DOCKED: ATOM     13  C   UNL     1      35.974  14.908 123.369 -0.48 -0.00    +0.000 C 
DOCKED: BRANCH  12  13
DOCKED: ATOM     14  C   UNL     1      36.572  13.928 122.344 -0.36 -0.00    +0.000 C 
DOCKED: BRANCH  13  14
DOCKED: ATOM     15  C   UNL     1      37.390  12.788 122.985 -0.58 -0.00    +0.000 C 
DOCKED: BRANCH  14  15
DOCKED: ATOM     16  C   UNL     1      36.488  11.704 123.601 -0.70 -0.00    +0.000 C 
DOCKED: BRANCH  15  16
DOCKED: ATOM     17  C   UNL     1      35.835  10.814 122.536 -0.66 -0.00    +0.000 C 
DOCKED: BRANCH  16  17
DOCKED: ATOM     18  C   UNL     1      36.584   9.527 122.348 -0.71 -0.00    +0.000 C 
DOCKED: ATOM     19  N   UNL     1      36.772   8.632 123.445 -0.63 -0.00    +0.000 N 
DOCKED: ATOM     20  O   UNL     1      37.439   7.467 123.275 -2.29 -0.00    +0.000 OA
DOCKED: ATOM     21  O   UNL     1      37.025   9.223 121.207 -2.72 -0.00    +0.000 OA
DOCKED: ATOM     22  H   UNL     1      36.412   8.864 124.332 -0.31 -0.00    +0.000 HD
DOCKED: ENDBRANCH  16  17
DOCKED: ENDBRANCH  15  16
DOCKED: ENDBRANCH  14  15
DOCKED: ENDBRANCH  13  14
DOCKED: ENDBRANCH  12  13
DOCKED: ENDBRANCH   1  12
DOCKED: TORSDOF 8DOCKED: TER
DOCKED: ENDMDL
________________________________________________________________________________


	BEGINNING GENETIC ALGORITHM DOCKING 96 of 100
Run: 96 Seed: 614347816 395624626 [ Run 96 of 100 GA/GALS ]
Beginning LAMARCKIAN GENETIC ALGORITHM (LGA), with a maximum of 2500000 energy evaluations.

Final-Value: -13.471


	FINAL GENETIC ALGORITHM DOCKED STATE
	_______________________________________________


Detailed state:  trans 35.448 15.736 124.706 quatxyzw 0.844648 -0.265214 0.278059 -0.372712 center 0.108 0.248 -0.022 ntor 8 160.7963 140.2590 -174.2965 79.3360 -13.3405 173.8314 168.3282 180.0000
State:	 35.448  15.736 124.706   0.910 -0.286  0.300 -136.234    160.80  140.26 -174.30   79.34  -13.34  173.83  168.33  180.00

DOCKED: MODEL       96
DOCKED: USER    Run = 96
DOCKED: USER    DPF = ligand_dock.biased.dpf
DOCKED: USER  
DOCKED: USER    Estimated Free Energy of Binding    =  -10.33 kcal/mol  [=(1)+(2)+(3)-(4)]
DOCKED: USER    Estimated Inhibition Constant, Ki   =   26.86 nM (nanomolar)  [Temperature = 298.15 K]
DOCKED: USER    
DOCKED: USER    (1) Final Intermolecular Energy     =  -12.71 kcal/mol
DOCKED: USER        vdW + Hbond + desolv Energy     =  -12.71 kcal/mol
DOCKED: USER        Electrostatic Energy            =   +0.00 kcal/mol
DOCKED: USER    (2) Final Total Internal Energy     =   -0.76 kcal/mol
DOCKED: USER    (3) Torsional Free Energy           =   +2.39 kcal/mol
DOCKED: USER    (4) Unbound System's Energy  [=(2)] =   -0.76 kcal/mol
DOCKED: USER    
DOCKED: USER    
DOCKED: USER    NEWDPF move ligand.dum.pdbqt
DOCKED: USER    NEWDPF about 0.108000 0.248000 -0.022000
DOCKED: USER    NEWDPF tran0 35.448398 15.736012 124.705748
DOCKED: USER    NEWDPF quaternion0 0.844648 -0.265214 0.278059 -0.372712
DOCKED: USER    NEWDPF axisangle0 0.910233 -0.285807 0.299649 -136.234022
DOCKED: USER    NEWDPF quat0 0.910233 -0.285807 0.299649 -136.234022
DOCKED: USER    NEWDPF dihe0 160.80 140.26 -174.30 79.34 -13.34 173.83 168.33 180.00 
DOCKED: USER  keepresnum = 1 
DOCKED: USER  
DOCKED: REMARK  Name = 
DOCKED: REMARK  8 active torsions:
DOCKED: REMARK  status: ('A' for Active; 'I' for Inactive)
DOCKED: REMARK    1  A    between atoms: C_2  and  C_10
DOCKED: REMARK    2  A    between atoms: N_3  and  C_4
DOCKED: REMARK    3  A    between atoms: C_10  and  C_11
DOCKED: REMARK    4  A    between atoms: C_11  and  C_12
DOCKED: REMARK    5  A    between atoms: C_12  and  C_13
DOCKED: REMARK    6  A    between atoms: C_13  and  C_14
DOCKED: REMARK    7  A    between atoms: C_14  and  C_15
DOCKED: REMARK    8  A    between atoms: C_15  and  C_16
DOCKED: REMARK                            x       y       z     vdW  Elec       q    Type
DOCKED: REMARK                         _______ _______ _______ _____ _____    ______ ____
DOCKED: USER                              x       y       z     vdW  Elec       q    Type
DOCKED: USER                           _______ _______ _______ _____ _____    ______ ____
DOCKED: ROOT
DOCKED: ATOM      1  C   UNL     1      36.093  16.862 123.957 -0.34 -0.00    +0.000 C 
DOCKED: ENDROOT
DOCKED: BRANCH   1   3
DOCKED: ATOM      2  O   UNL     1      34.053  16.159 122.937 -0.48 -0.00    +0.000 OA
DOCKED: ATOM      3  C   UNL     1      35.070  16.900 122.861 -0.38 -0.00    +0.000 C 
DOCKED: ATOM      4  N   UNL     1      35.256  17.775 121.737 -0.27 -0.00    +0.000 N 
DOCKED: ATOM      5  H   UNL     1      36.140  18.194 121.621 +0.00 -0.00    +0.000 HD
DOCKED: BRANCH   4   6
DOCKED: ATOM      6  C   UNL     1      34.237  18.080 120.770 -0.28 -0.00    +0.000 A 
DOCKED: ATOM      7  C   UNL     1      32.905  18.218 121.195 -0.21 -0.00    +0.000 A 
DOCKED: ATOM      8  C   UNL     1      31.892  18.489 120.271 -0.44 -0.00    +0.000 A 
DOCKED: ATOM      9  C   UNL     1      32.196  18.611 118.913 -0.31 -0.00    +0.000 A 
DOCKED: ATOM     10  C   UNL     1      33.514  18.455 118.476 -0.20 -0.00    +0.000 A 
DOCKED: ATOM     11  C   UNL     1      34.531  18.182 119.397 -0.21 -0.00    +0.000 A 
DOCKED: ATOM     12  CM  UNL     1      33.213  18.339 119.837 +0.00 -0.00    +0.000 AC
DOCKED: ENDBRANCH   4   6
DOCKED: ENDBRANCH   1   3
DOCKED: BRANCH   1  12
DOCKED: ATOM     13  C   UNL     1      36.985  15.625 123.808 -0.29 -0.00    +0.000 C 
DOCKED: BRANCH  12  13
DOCKED: ATOM     14  C   UNL     1      36.368  14.549 122.897 -0.44 -0.00    +0.000 C 
DOCKED: BRANCH  13  14
DOCKED: ATOM     15  C   UNL     1      36.123  13.204 123.611 -0.60 -0.00    +0.000 C 
DOCKED: BRANCH  14  15
DOCKED: ATOM     16  C   UNL     1      36.963  12.064 123.006 -0.65 -0.00    +0.000 C 
DOCKED: BRANCH  15  16
DOCKED: ATOM     17  C   UNL     1      36.114  11.091 122.177 -0.62 -0.00    +0.000 C 
DOCKED: BRANCH  16  17
DOCKED: ATOM     18  C   UNL     1      36.705   9.712 122.159 -0.68 -0.00    +0.000 C 
DOCKED: ATOM     19  N   UNL     1      36.831   8.962 123.369 -0.60 -0.00    +0.000 N 
DOCKED: ATOM     20  O   UNL     1      37.355   7.715 123.352 -2.55 -0.00    +0.000 OA
DOCKED: ATOM     21  O   UNL     1      37.065   9.203 121.064 -2.74 -0.00    +0.000 OA
DOCKED: ATOM     22  H   UNL     1      36.533   9.356 124.221 -0.42 -0.00    +0.000 HD
DOCKED: ENDBRANCH  16  17
DOCKED: ENDBRANCH  15  16
DOCKED: ENDBRANCH  14  15
DOCKED: ENDBRANCH  13  14
DOCKED: ENDBRANCH  12  13
DOCKED: ENDBRANCH   1  12
DOCKED: TORSDOF 8DOCKED: TER
DOCKED: ENDMDL
________________________________________________________________________________


	BEGINNING GENETIC ALGORITHM DOCKING 97 of 100
Run: 97 Seed: 592856869 1088258994 [ Run 97 of 100 GA/GALS ]
Beginning LAMARCKIAN GENETIC ALGORITHM (LGA), with a maximum of 2500000 energy evaluations.

Final-Value: -12.887


	FINAL GENETIC ALGORITHM DOCKED STATE
	_______________________________________________


Detailed state:  trans 35.442 15.823 121.524 quatxyzw 0.507008 -0.494505 0.424386 -0.564185 center 0.108 0.248 -0.022 ntor 8 -117.1628 -156.3771 -87.7943 106.2777 78.2530 -177.2953 -76.6219 -114.6696
State:	 35.442  15.823 121.524   0.614 -0.599  0.514 -111.309   -117.16 -156.38  -87.79  106.28   78.25 -177.30  -76.62 -114.67

DOCKED: MODEL       97
DOCKED: USER    Run = 97
DOCKED: USER    DPF = ligand_dock.biased.dpf
DOCKED: USER  
DOCKED: USER    Estimated Free Energy of Binding    =   -9.35 kcal/mol  [=(1)+(2)+(3)-(4)]
DOCKED: USER    Estimated Inhibition Constant, Ki   =  140.69 nM (nanomolar)  [Temperature = 298.15 K]
DOCKED: USER    
DOCKED: USER    (1) Final Intermolecular Energy     =  -11.73 kcal/mol
DOCKED: USER        vdW + Hbond + desolv Energy     =  -11.73 kcal/mol
DOCKED: USER        Electrostatic Energy            =   +0.00 kcal/mol
DOCKED: USER    (2) Final Total Internal Energy     =   -1.15 kcal/mol
DOCKED: USER    (3) Torsional Free Energy           =   +2.39 kcal/mol
DOCKED: USER    (4) Unbound System's Energy  [=(2)] =   -1.15 kcal/mol
DOCKED: USER    
DOCKED: USER    
DOCKED: USER    NEWDPF move ligand.dum.pdbqt
DOCKED: USER    NEWDPF about 0.108000 0.248000 -0.022000
DOCKED: USER    NEWDPF tran0 35.441647 15.823236 121.523945
DOCKED: USER    NEWDPF quaternion0 0.507008 -0.494505 0.424386 -0.564185
DOCKED: USER    NEWDPF axisangle0 0.614072 -0.598930 0.514003 -111.308607
DOCKED: USER    NEWDPF quat0 0.614072 -0.598930 0.514003 -111.308607
DOCKED: USER    NEWDPF dihe0 -117.16 -156.38 -87.79 106.28 78.25 -177.30 -76.62 -114.67 
DOCKED: USER  keepresnum = 1 
DOCKED: USER  
DOCKED: REMARK  Name = 
DOCKED: REMARK  8 active torsions:
DOCKED: REMARK  status: ('A' for Active; 'I' for Inactive)
DOCKED: REMARK    1  A    between atoms: C_2  and  C_10
DOCKED: REMARK    2  A    between atoms: N_3  and  C_4
DOCKED: REMARK    3  A    between atoms: C_10  and  C_11
DOCKED: REMARK    4  A    between atoms: C_11  and  C_12
DOCKED: REMARK    5  A    between atoms: C_12  and  C_13
DOCKED: REMARK    6  A    between atoms: C_13  and  C_14
DOCKED: REMARK    7  A    between atoms: C_14  and  C_15
DOCKED: REMARK    8  A    between atoms: C_15  and  C_16
DOCKED: REMARK                            x       y       z     vdW  Elec       q    Type
DOCKED: REMARK                         _______ _______ _______ _____ _____    ______ ____
DOCKED: USER                              x       y       z     vdW  Elec       q    Type
DOCKED: USER                           _______ _______ _______ _____ _____    ______ ____
DOCKED: ROOT
DOCKED: ATOM      1  C   UNL     1      36.839  15.922 120.992 -0.21 -0.00    +0.000 C 
DOCKED: ENDROOT
DOCKED: BRANCH   1   3
DOCKED: ATOM      2  O   UNL     1      35.824  16.536 118.922 -0.18 -0.00    +0.000 OA
DOCKED: ATOM      3  C   UNL     1      36.461  15.659 119.566 -0.13 -0.00    +0.000 C 
DOCKED: ATOM      4  N   UNL     1      36.823  14.414 118.947 -0.29 -0.00    +0.000 N 
DOCKED: ATOM      5  H   UNL     1      37.150  13.689 119.527 -0.02 -0.00    +0.000 HD
DOCKED: BRANCH   4   6
DOCKED: ATOM      6  C   UNL     1      36.741  14.158 117.535 -0.33 -0.00    +0.000 A 
DOCKED: ATOM      7  C   UNL     1      37.892  13.747 116.842 -0.34 -0.00    +0.000 A 
DOCKED: ATOM      8  C   UNL     1      37.844  13.515 115.464 -0.40 -0.00    +0.000 A 
DOCKED: ATOM      9  C   UNL     1      36.652  13.707 114.762 -0.31 -0.00    +0.000 A 
DOCKED: ATOM     10  C   UNL     1      35.506  14.136 115.437 -0.26 -0.00    +0.000 A 
DOCKED: ATOM     11  C   UNL     1      35.549  14.369 116.816 -0.30 -0.00    +0.000 A 
DOCKED: ATOM     12  CM  UNL     1      36.698  13.939 116.143 +0.00 -0.00    +0.000 AC
DOCKED: ENDBRANCH   4   6
DOCKED: ENDBRANCH   1   3
DOCKED: BRANCH   1  12
DOCKED: ATOM     13  C   UNL     1      36.737  14.633 121.815 -0.24 -0.00    +0.000 C 
DOCKED: BRANCH  12  13
DOCKED: ATOM     14  C   UNL     1      38.091  13.922 121.982 -0.46 -0.00    +0.000 C 
DOCKED: BRANCH  13  14
DOCKED: ATOM     15  C   UNL     1      38.191  12.595 121.203 -0.21 -0.00    +0.000 C 
DOCKED: BRANCH  14  15
DOCKED: ATOM     16  C   UNL     1      36.809  11.965 120.951 -0.46 -0.00    +0.000 C 
DOCKED: BRANCH  15  16
DOCKED: ATOM     17  C   UNL     1      36.277  11.216 122.180 -0.63 -0.00    +0.000 C 
DOCKED: BRANCH  16  17
DOCKED: ATOM     18  C   UNL     1      36.723   9.784 122.197 -0.68 -0.00    +0.000 C 
DOCKED: ATOM     19  N   UNL     1      37.016   9.131 123.434 -0.57 -0.00    +0.000 N 
DOCKED: ATOM     20  O   UNL     1      37.409   7.836 123.451 -2.55 -0.00    +0.000 OA
DOCKED: ATOM     21  O   UNL     1      36.813   9.146 121.113 -2.65 -0.00    +0.000 OA
DOCKED: ATOM     22  H   UNL     1      36.929   9.626 124.280 -0.50 -0.00    +0.000 HD
DOCKED: ENDBRANCH  16  17
DOCKED: ENDBRANCH  15  16
DOCKED: ENDBRANCH  14  15
DOCKED: ENDBRANCH  13  14
DOCKED: ENDBRANCH  12  13
DOCKED: ENDBRANCH   1  12
DOCKED: TORSDOF 8DOCKED: TER
DOCKED: ENDMDL
________________________________________________________________________________


	BEGINNING GENETIC ALGORITHM DOCKING 98 of 100
Run: 98 Seed: 1095044778 1635537554 [ Run 98 of 100 GA/GALS ]
Beginning LAMARCKIAN GENETIC ALGORITHM (LGA), with a maximum of 2500000 energy evaluations.

Final-Value: -13.097


	FINAL GENETIC ALGORITHM DOCKED STATE
	_______________________________________________


Detailed state:  trans 37.806 15.468 123.432 quatxyzw 0.587354 -0.160599 -0.484343 -0.628200 center 0.108 0.248 -0.022 ntor 8 -111.3460 -179.7555 91.3722 149.9629 26.0039 -168.6305 44.0299 -15.1245
State:	 37.806  15.468 123.432   0.755 -0.206 -0.623 -102.165   -111.35 -179.76   91.37  149.96   26.00 -168.63   44.03  -15.12

DOCKED: MODEL       98
DOCKED: USER    Run = 98
DOCKED: USER    DPF = ligand_dock.biased.dpf
DOCKED: USER  
DOCKED: USER    Estimated Free Energy of Binding    =   -9.90 kcal/mol  [=(1)+(2)+(3)-(4)]
DOCKED: USER    Estimated Inhibition Constant, Ki   =   55.41 nM (nanomolar)  [Temperature = 298.15 K]
DOCKED: USER    
DOCKED: USER    (1) Final Intermolecular Energy     =  -12.29 kcal/mol
DOCKED: USER        vdW + Hbond + desolv Energy     =  -12.29 kcal/mol
DOCKED: USER        Electrostatic Energy            =   +0.00 kcal/mol
DOCKED: USER    (2) Final Total Internal Energy     =   -0.81 kcal/mol
DOCKED: USER    (3) Torsional Free Energy           =   +2.39 kcal/mol
DOCKED: USER    (4) Unbound System's Energy  [=(2)] =   -0.81 kcal/mol
DOCKED: USER    
DOCKED: USER    
DOCKED: USER    NEWDPF move ligand.dum.pdbqt
DOCKED: USER    NEWDPF about 0.108000 0.248000 -0.022000
DOCKED: USER    NEWDPF tran0 37.805509 15.467883 123.431664
DOCKED: USER    NEWDPF quaternion0 0.587354 -0.160599 -0.484343 -0.628200
DOCKED: USER    NEWDPF axisangle0 0.754904 -0.206411 -0.622507 -102.165060
DOCKED: USER    NEWDPF quat0 0.754904 -0.206411 -0.622507 -102.165060
DOCKED: USER    NEWDPF dihe0 -111.35 -179.76 91.37 149.96 26.00 -168.63 44.03 -15.12 
DOCKED: USER  keepresnum = 1 
DOCKED: USER  
DOCKED: REMARK  Name = 
DOCKED: REMARK  8 active torsions:
DOCKED: REMARK  status: ('A' for Active; 'I' for Inactive)
DOCKED: REMARK    1  A    between atoms: C_2  and  C_10
DOCKED: REMARK    2  A    between atoms: N_3  and  C_4
DOCKED: REMARK    3  A    between atoms: C_10  and  C_11
DOCKED: REMARK    4  A    between atoms: C_11  and  C_12
DOCKED: REMARK    5  A    between atoms: C_12  and  C_13
DOCKED: REMARK    6  A    between atoms: C_13  and  C_14
DOCKED: REMARK    7  A    between atoms: C_14  and  C_15
DOCKED: REMARK    8  A    between atoms: C_15  and  C_16
DOCKED: REMARK                            x       y       z     vdW  Elec       q    Type
DOCKED: REMARK                         _______ _______ _______ _____ _____    ______ ____
DOCKED: USER                              x       y       z     vdW  Elec       q    Type
DOCKED: USER                           _______ _______ _______ _____ _____    ______ ____
DOCKED: ROOT
DOCKED: ATOM      1  C   UNL     1      37.262  16.110 122.192 -0.26 -0.00    +0.000 C 
DOCKED: ENDROOT
DOCKED: BRANCH   1   3
DOCKED: ATOM      2  O   UNL     1      35.806  17.999 122.274 -0.24 -0.00    +0.000 OA
DOCKED: ATOM      3  C   UNL     1      36.370  17.072 122.917 -0.27 -0.00    +0.000 C 
DOCKED: ATOM      4  N   UNL     1      36.168  16.935 124.333 -0.29 -0.00    +0.000 N 
DOCKED: ATOM      5  H   UNL     1      36.763  16.325 124.826 -0.02 -0.00    +0.000 HD
DOCKED: BRANCH   4   6
DOCKED: ATOM      6  C   UNL     1      35.153  17.629 125.077 -0.30 -0.00    +0.000 A 
DOCKED: ATOM      7  C   UNL     1      35.117  19.032 125.049 -0.22 -0.00    +0.000 A 
DOCKED: ATOM      8  C   UNL     1      34.155  19.732 125.784 -0.19 -0.00    +0.000 A 
DOCKED: ATOM      9  C   UNL     1      33.229  19.037 126.566 -0.25 -0.00    +0.000 A 
DOCKED: ATOM     10  C   UNL     1      33.268  17.641 126.618 -0.29 -0.00    +0.000 A 
DOCKED: ATOM     11  C   UNL     1      34.230  16.937 125.885 -0.33 -0.00    +0.000 A 
DOCKED: ATOM     12  CM  UNL     1      34.192  18.335 125.830 -0.18 -0.00    +0.000 AC
DOCKED: ENDBRANCH   4   6
DOCKED: ENDBRANCH   1   3
DOCKED: BRANCH   1  12
DOCKED: ATOM     13  C   UNL     1      36.691  14.690 122.278 -0.35 -0.00    +0.000 C 
DOCKED: BRANCH  12  13
DOCKED: ATOM     14  C   UNL     1      37.781  13.616 122.446 -0.50 -0.00    +0.000 C 
DOCKED: BRANCH  13  14
DOCKED: ATOM     15  C   UNL     1      38.110  12.863 121.140 -0.39 -0.00    +0.000 C 
DOCKED: BRANCH  14  15
DOCKED: ATOM     16  C   UNL     1      37.045  11.807 120.795 -0.48 -0.00    +0.000 C 
DOCKED: BRANCH  15  16
DOCKED: ATOM     17  C   UNL     1      36.481  11.118 122.044 -0.62 -0.00    +0.000 C 
DOCKED: BRANCH  16  17
DOCKED: ATOM     18  C   UNL     1      36.883   9.674 122.114 -0.64 -0.00    +0.000 C 
DOCKED: ATOM     19  N   UNL     1      37.025   9.022 123.378 -0.60 -0.00    +0.000 N 
DOCKED: ATOM     20  O   UNL     1      37.379   7.718 123.442 -2.61 -0.00    +0.000 OA
DOCKED: ATOM     21  O   UNL     1      37.069   9.026 121.049 -2.72 -0.00    +0.000 OA
DOCKED: ATOM     22  H   UNL     1      36.863   9.526 124.208 -0.53 -0.00    +0.000 HD
DOCKED: ENDBRANCH  16  17
DOCKED: ENDBRANCH  15  16
DOCKED: ENDBRANCH  14  15
DOCKED: ENDBRANCH  13  14
DOCKED: ENDBRANCH  12  13
DOCKED: ENDBRANCH   1  12
DOCKED: TORSDOF 8DOCKED: TER
DOCKED: ENDMDL
________________________________________________________________________________


	BEGINNING GENETIC ALGORITHM DOCKING 99 of 100
Run: 99 Seed: 1878853191 573263166 [ Run 99 of 100 GA/GALS ]
Beginning LAMARCKIAN GENETIC ALGORITHM (LGA), with a maximum of 2500000 energy evaluations.

Final-Value: -13.948


	FINAL GENETIC ALGORITHM DOCKED STATE
	_______________________________________________


Detailed state:  trans 38.991 13.249 122.337 quatxyzw 0.067454 -0.222504 -0.965253 -0.119288 center 0.108 0.248 -0.022 ntor 8 -157.2943 -174.4726 82.5104 -30.9907 180.0000 -172.1487 91.3326 157.6460
State:	 38.991  13.249 122.337   0.068 -0.224 -0.972 -166.298   -157.29 -174.47   82.51  -30.99  180.00 -172.15   91.33  157.65

DOCKED: MODEL       99
DOCKED: USER    Run = 99
DOCKED: USER    DPF = ligand_dock.biased.dpf
DOCKED: USER  
DOCKED: USER    Estimated Free Energy of Binding    =  -10.73 kcal/mol  [=(1)+(2)+(3)-(4)]
DOCKED: USER    Estimated Inhibition Constant, Ki   =   13.70 nM (nanomolar)  [Temperature = 298.15 K]
DOCKED: USER    
DOCKED: USER    (1) Final Intermolecular Energy     =  -13.11 kcal/mol
DOCKED: USER        vdW + Hbond + desolv Energy     =  -13.11 kcal/mol
DOCKED: USER        Electrostatic Energy            =   +0.00 kcal/mol
DOCKED: USER    (2) Final Total Internal Energy     =   -0.83 kcal/mol
DOCKED: USER    (3) Torsional Free Energy           =   +2.39 kcal/mol
DOCKED: USER    (4) Unbound System's Energy  [=(2)] =   -0.83 kcal/mol
DOCKED: USER    
DOCKED: USER    
DOCKED: USER    NEWDPF move ligand.dum.pdbqt
DOCKED: USER    NEWDPF about 0.108000 0.248000 -0.022000
DOCKED: USER    NEWDPF tran0 38.991276 13.249215 122.337445
DOCKED: USER    NEWDPF quaternion0 0.067454 -0.222504 -0.965253 -0.119288
DOCKED: USER    NEWDPF axisangle0 0.067940 -0.224104 -0.972194 -166.298013
DOCKED: USER    NEWDPF quat0 0.067940 -0.224104 -0.972194 -166.298013
DOCKED: USER    NEWDPF dihe0 -157.29 -174.47 82.51 -30.99 180.00 -172.15 91.33 157.65 
DOCKED: USER  keepresnum = 1 
DOCKED: USER  
DOCKED: REMARK  Name = 
DOCKED: REMARK  8 active torsions:
DOCKED: REMARK  status: ('A' for Active; 'I' for Inactive)
DOCKED: REMARK    1  A    between atoms: C_2  and  C_10
DOCKED: REMARK    2  A    between atoms: N_3  and  C_4
DOCKED: REMARK    3  A    between atoms: C_10  and  C_11
DOCKED: REMARK    4  A    between atoms: C_11  and  C_12
DOCKED: REMARK    5  A    between atoms: C_12  and  C_13
DOCKED: REMARK    6  A    between atoms: C_13  and  C_14
DOCKED: REMARK    7  A    between atoms: C_14  and  C_15
DOCKED: REMARK    8  A    between atoms: C_15  and  C_16
DOCKED: REMARK                            x       y       z     vdW  Elec       q    Type
DOCKED: REMARK                         _______ _______ _______ _____ _____    ______ ____
DOCKED: USER                              x       y       z     vdW  Elec       q    Type
DOCKED: USER                           _______ _______ _______ _____ _____    ______ ____
DOCKED: ROOT
DOCKED: ATOM      1  C   UNL     1      39.059  14.473 121.476 -0.38 -0.00    +0.000 C 
DOCKED: ENDROOT
DOCKED: BRANCH   1   3
DOCKED: ATOM      2  O   UNL     1      40.909  14.386 122.980 -1.03 -0.00    +0.000 OA
DOCKED: ATOM      3  C   UNL     1      40.431  14.878 121.922 -0.41 -0.00    +0.000 C 
DOCKED: ATOM      4  N   UNL     1      41.188  15.822 121.146 -0.24 -0.00    +0.000 N 
DOCKED: ATOM      5  H   UNL     1      40.716  16.320 120.439 +0.00 -0.00    +0.000 HD
DOCKED: BRANCH   4   6
DOCKED: ATOM      6  C   UNL     1      42.588  16.087 121.333 -0.27 -0.00    +0.000 A 
DOCKED: ATOM      7  C   UNL     1      43.021  16.690 122.525 -0.36 -0.00    +0.000 A 
DOCKED: ATOM      8  C   UNL     1      44.375  16.981 122.720 -0.29 -0.00    +0.000 A 
DOCKED: ATOM      9  C   UNL     1      45.306  16.685 121.722 -0.24 +0.00    +0.000 A 
DOCKED: ATOM     10  C   UNL     1      44.884  16.104 120.524 -0.24 +0.00    +0.000 A 
DOCKED: ATOM     11  C   UNL     1      43.530  15.813 120.323 -0.23 -0.00    +0.000 A 
DOCKED: ATOM     12  CM  UNL     1      43.950  16.394 121.524 +0.00 -0.00    +0.000 AC
DOCKED: ENDBRANCH   4   6
DOCKED: ENDBRANCH   1   3
DOCKED: BRANCH   1  12
DOCKED: ATOM     13  C   UNL     1      38.039  14.735 122.590 -0.43 -0.00    +0.000 C 
DOCKED: BRANCH  12  13
DOCKED: ATOM     14  C   UNL     1      37.774  13.496 123.463 -0.45 -0.00    +0.000 C 
DOCKED: BRANCH  13  14
DOCKED: ATOM     15  C   UNL     1      36.417  12.820 123.178 -0.63 -0.00    +0.000 C 
DOCKED: BRANCH  14  15
DOCKED: ATOM     16  C   UNL     1      36.444  11.988 121.883 -0.55 -0.00    +0.000 C 
DOCKED: BRANCH  15  16
DOCKED: ATOM     17  C   UNL     1      35.620  10.700 122.001 -0.46 -0.00    +0.000 C 
DOCKED: BRANCH  16  17
DOCKED: ATOM     18  C   UNL     1      36.496   9.486 122.105 -0.68 -0.00    +0.000 C 
DOCKED: ATOM     19  N   UNL     1      36.664   8.819 123.358 -0.61 -0.00    +0.000 N 
DOCKED: ATOM     20  O   UNL     1      37.445   7.718 123.450 -2.59 -0.00    +0.000 OA
DOCKED: ATOM     21  O   UNL     1      37.062   9.036 121.073 -2.72 -0.00    +0.000 OA
DOCKED: ATOM     22  H   UNL     1      36.206   9.162 124.159 -0.30 -0.00    +0.000 HD
DOCKED: ENDBRANCH  16  17
DOCKED: ENDBRANCH  15  16
DOCKED: ENDBRANCH  14  15
DOCKED: ENDBRANCH  13  14
DOCKED: ENDBRANCH  12  13
DOCKED: ENDBRANCH   1  12
DOCKED: TORSDOF 8DOCKED: TER
DOCKED: ENDMDL
________________________________________________________________________________


	BEGINNING GENETIC ALGORITHM DOCKING 100 of 100
Run: 100 Seed: 1862882133 1131347438 [ Run 100 of 100 GA/GALS ]
Beginning LAMARCKIAN GENETIC ALGORITHM (LGA), with a maximum of 2500000 energy evaluations.

Final-Value: -12.831


	FINAL GENETIC ALGORITHM DOCKED STATE
	_______________________________________________


Detailed state:  trans 38.307 10.547 122.391 quatxyzw 0.822188 0.537805 -0.136543 0.126996 center 0.108 0.248 -0.022 ntor 8 -44.2427 -178.5230 18.3196 17.2353 -14.1663 48.5413 -28.8916 -121.4174
State:	 38.307  10.547 122.391   0.829  0.542 -0.138 165.408    -44.24 -178.52   18.32   17.24  -14.17   48.54  -28.89 -121.42

DOCKED: MODEL      100
DOCKED: USER    Run = 100
DOCKED: USER    DPF = ligand_dock.biased.dpf
DOCKED: USER  
DOCKED: USER    Estimated Free Energy of Binding    =   -9.70 kcal/mol  [=(1)+(2)+(3)-(4)]
DOCKED: USER    Estimated Inhibition Constant, Ki   =   77.79 nM (nanomolar)  [Temperature = 298.15 K]
DOCKED: USER    
DOCKED: USER    (1) Final Intermolecular Energy     =  -12.08 kcal/mol
DOCKED: USER        vdW + Hbond + desolv Energy     =  -12.08 kcal/mol
DOCKED: USER        Electrostatic Energy            =   +0.00 kcal/mol
DOCKED: USER    (2) Final Total Internal Energy     =   -0.75 kcal/mol
DOCKED: USER    (3) Torsional Free Energy           =   +2.39 kcal/mol
DOCKED: USER    (4) Unbound System's Energy  [=(2)] =   -0.75 kcal/mol
DOCKED: USER    
DOCKED: USER    
DOCKED: USER    NEWDPF move ligand.dum.pdbqt
DOCKED: USER    NEWDPF about 0.108000 0.248000 -0.022000
DOCKED: USER    NEWDPF tran0 38.306676 10.546532 122.391350
DOCKED: USER    NEWDPF quaternion0 0.822188 0.537805 -0.136543 0.126996
DOCKED: USER    NEWDPF axisangle0 0.828900 0.542195 -0.137658 165.407938
DOCKED: USER    NEWDPF quat0 0.828900 0.542195 -0.137658 165.407938
DOCKED: USER    NEWDPF dihe0 -44.24 -178.52 18.32 17.24 -14.17 48.54 -28.89 -121.42 
DOCKED: USER  keepresnum = 1 
DOCKED: USER  
DOCKED: REMARK  Name = 
DOCKED: REMARK  8 active torsions:
DOCKED: REMARK  status: ('A' for Active; 'I' for Inactive)
DOCKED: REMARK    1  A    between atoms: C_2  and  C_10
DOCKED: REMARK    2  A    between atoms: N_3  and  C_4
DOCKED: REMARK    3  A    between atoms: C_10  and  C_11
DOCKED: REMARK    4  A    between atoms: C_11  and  C_12
DOCKED: REMARK    5  A    between atoms: C_12  and  C_13
DOCKED: REMARK    6  A    between atoms: C_13  and  C_14
DOCKED: REMARK    7  A    between atoms: C_14  and  C_15
DOCKED: REMARK    8  A    between atoms: C_15  and  C_16
DOCKED: REMARK                            x       y       z     vdW  Elec       q    Type
DOCKED: REMARK                         _______ _______ _______ _____ _____    ______ ____
DOCKED: USER                              x       y       z     vdW  Elec       q    Type
DOCKED: USER                           _______ _______ _______ _____ _____    ______ ____
DOCKED: ROOT
DOCKED: ATOM      1  C   UNL     1      37.062  10.798 123.187 -0.61 -0.00    +0.000 C 
DOCKED: ENDROOT
DOCKED: BRANCH   1   3
DOCKED: ATOM      2  O   UNL     1      37.097   8.426 123.445 -2.12 -0.00    +0.000 OA
DOCKED: ATOM      3  C   UNL     1      36.490   9.428 122.980 -0.69 -0.00    +0.000 C 
DOCKED: ATOM      4  N   UNL     1      35.259   9.267 122.255 -0.58 -0.00    +0.000 N 
DOCKED: ATOM      5  H   UNL     1      34.917  10.042 121.753 -0.07 -0.00    +0.000 HD
DOCKED: BRANCH   4   6
DOCKED: ATOM      6  C   UNL     1      34.495   8.051 122.216 -0.60 -0.00    +0.000 A 
DOCKED: ATOM      7  C   UNL     1      34.072   7.543 120.976 -0.43 -0.00    +0.000 A 
DOCKED: ATOM      8  C   UNL     1      33.307   6.375 120.913 -0.22 -0.00    +0.000 A 
DOCKED: ATOM      9  C   UNL     1      32.944   5.711 122.087 -0.43 -0.00    +0.000 A 
DOCKED: ATOM     10  C   UNL     1      33.341   6.218 123.327 -0.56 -0.00    +0.000 A 
DOCKED: ATOM     11  C   UNL     1      34.106   7.387 123.395 -0.65 -0.00    +0.000 A 
DOCKED: ATOM     12  CM  UNL     1      33.711   6.881 122.152 +0.00 -0.00    +0.000 AC
DOCKED: ENDBRANCH   4   6
DOCKED: ENDBRANCH   1   3
DOCKED: BRANCH   1  12
DOCKED: ATOM     13  C   UNL     1      36.968  11.613 121.892 -0.57 -0.00    +0.000 C 
DOCKED: BRANCH  12  13
DOCKED: ATOM     14  C   UNL     1      36.698  13.107 122.144 -0.49 -0.00    +0.000 C 
DOCKED: BRANCH  13  14
DOCKED: ATOM     15  C   UNL     1      37.851  14.027 121.690 -0.43 -0.00    +0.000 C 
DOCKED: BRANCH  14  15
DOCKED: ATOM     16  C   UNL     1      38.473  14.800 122.866 -0.39 -0.00    +0.000 C 
DOCKED: BRANCH  15  16
DOCKED: ATOM     17  C   UNL     1      39.426  15.908 122.396 -0.31 -0.00    +0.000 C 
DOCKED: BRANCH  16  17
DOCKED: ATOM     18  C   UNL     1      40.855  15.591 122.725 -0.44 -0.00    +0.000 C 
DOCKED: ATOM     19  N   UNL     1      41.746  16.625 123.150 -0.38 -0.00    +0.000 N 
DOCKED: ATOM     20  O   UNL     1      43.032  16.340 123.456 -1.02 -0.00    +0.000 OA
DOCKED: ATOM     21  O   UNL     1      41.262  14.401 122.654 -1.08 -0.00    +0.000 OA
DOCKED: ATOM     22  H   UNL     1      41.421  17.551 123.220 -0.01 -0.00    +0.000 HD
DOCKED: ENDBRANCH  16  17
DOCKED: ENDBRANCH  15  16
DOCKED: ENDBRANCH  14  15
DOCKED: ENDBRANCH  13  14
DOCKED: ENDBRANCH  12  13
DOCKED: ENDBRANCH   1  12
DOCKED: TORSDOF 8DOCKED: TER
DOCKED: ENDMDL
________________________________________________________________________________

DPF> analysis                             # perform a ranked cluster analysis


		CLUSTER ANALYSIS OF CONFORMATIONS
		_________________________________

Number of conformations = 100

RMSD cluster analysis will be performed using the ligand atoms only (22 / 22 total atoms).

Outputting structurally similar clusters, ranked in order of increasing energy.


________________________________________________________________________________

Number of distinct conformational clusters found = 20,  out of 100 runs,
Using an rmsd-tolerance of 2.0 A


	CLUSTERING HISTOGRAM
	____________________

________________________________________________________________________________
     |           |     |           |     |                                    
Clus | Lowest    | Run | Mean      | Num | Histogram                          
-ter | Binding   |     | Binding   | in  |                                    
Rank | Energy    |     | Energy    | Clus|    5    10   15   20   25   30   35
_____|___________|_____|___________|_____|____:____|____:____|____:____|____:___
   1 |    -11.07 |  78 |    -10.40 |  13 |#############
   2 |    -10.87 |  52 |     -9.96 |  12 |############
   3 |    -10.73 |  27 |    -10.22 |  18 |##################
   4 |    -10.73 |  93 |    -10.12 |  17 |#################
   5 |    -10.63 |   8 |     -9.96 |  11 |###########
   6 |    -10.56 |   3 |    -10.10 |   9 |#########
   7 |    -10.53 |  91 |    -10.53 |   1 |#
   8 |    -10.33 |  96 |     -9.98 |   3 |###
   9 |    -10.29 |  77 |     -9.77 |   2 |##
  10 |     -9.94 |  38 |     -9.94 |   1 |#
  11 |     -9.86 |  65 |     -9.72 |   2 |##
  12 |     -9.80 |  75 |     -9.80 |   1 |#
  13 |     -9.68 |  17 |     -9.45 |   2 |##
  14 |     -9.59 |  81 |     -9.59 |   1 |#
  15 |     -9.57 |  11 |     -9.57 |   1 |#
  16 |     -9.52 |  90 |     -9.23 |   2 |##
  17 |     -9.40 |  19 |     -9.40 |   1 |#
  18 |     -9.20 |  59 |     -9.20 |   1 |#
  19 |     -9.19 |  61 |     -9.19 |   1 |#
  20 |     -8.83 |  31 |     -8.83 |   1 |#
_____|___________|_____|___________|_____|______________________________________


Number of multi-member conformational clusters found = 11, out of 100 runs.

	RMSD TABLE
	__________

_____________________________________________________________________
     |      |      |           |         |                 |
Rank | Sub- | Run  | Binding   | Cluster | Reference       | Grep
     | Rank |      | Energy    | RMSD    | RMSD            | Pattern
_____|______|______|___________|_________|_________________|___________
   1      1     78      -11.07      0.00    129.55           RANKING
   1      2     42      -10.98      1.31    128.92           RANKING
   1      3      2      -10.88      0.43    129.65           RANKING
   1      4     30      -10.74      1.29    129.31           RANKING
   1      5     35      -10.68      1.24    129.12           RANKING
   1      6     43      -10.56      1.08    129.72           RANKING
   1      7     86      -10.51      1.78    129.03           RANKING
   1      8     69      -10.44      1.21    129.52           RANKING
   1      9     58      -10.35      1.97    128.57           RANKING
   1     10     98       -9.90      1.69    128.82           RANKING
   1     11      4       -9.87      1.61    129.22           RANKING
   1     12     29       -9.84      1.79    129.41           RANKING
   1     13     18       -9.43      0.89    129.91           RANKING
   2      1     52      -10.87      0.00    128.39           RANKING
   2      2     49      -10.81      0.32    128.33           RANKING
   2      3     44      -10.44      0.86    128.71           RANKING
   2      4     55      -10.35      0.93    127.82           RANKING
   2      5     24      -10.35      1.21    128.50           RANKING
   2      6     21      -10.20      0.69    128.42           RANKING
   2      7     89       -9.93      1.37    128.28           RANKING
   2      8     82       -9.78      0.59    128.20           RANKING
   2      9     64       -9.50      1.79    127.23           RANKING
   2     10     40       -9.45      1.24    128.54           RANKING
   2     11     56       -9.20      1.18    128.38           RANKING
   2     12     37       -8.59      1.53    128.23           RANKING
   3      1     27      -10.73      0.00    125.08           RANKING
   3      2     76      -10.72      1.08    125.03           RANKING
   3      3     23      -10.65      0.82    125.48           RANKING
   3      4     26      -10.64      0.96    124.77           RANKING
   3      5     92      -10.56      0.55    125.04           RANKING
   3      6     94      -10.56      0.77    125.42           RANKING
   3      7     48      -10.54      0.73    124.95           RANKING
   3      8     57      -10.49      1.53    124.73           RANKING
   3      9     84      -10.37      1.23    125.26           RANKING
   3     10      9      -10.21      1.29    125.32           RANKING
   3     11     51      -10.21      0.89    125.35           RANKING
   3     12     32      -10.04      0.87    125.17           RANKING
   3     13     28       -9.91      1.03    125.05           RANKING
   3     14     88       -9.87      1.10    124.93           RANKING
   3     15     60       -9.74      1.95    126.55           RANKING
   3     16      1       -9.72      1.52    126.11           RANKING
   3     17     46       -9.58      1.68    126.17           RANKING
   3     18     97       -9.35      1.11    125.16           RANKING
   4      1     93      -10.73      0.00    128.65           RANKING
   4      2     99      -10.73      1.49    128.48           RANKING
   4      3     39      -10.70      1.20    128.93           RANKING
   4      4     45      -10.69      0.52    128.75           RANKING
   4      5     16      -10.57      1.55    128.78           RANKING
   4      6      7      -10.36      1.95    128.31           RANKING
   4      7     73      -10.25      1.74    128.53           RANKING
   4      8     41      -10.10      1.56    128.81           RANKING
   4      9     33       -9.99      1.37    128.78           RANKING
   4     10     68       -9.90      1.79    128.32           RANKING
   4     11     13       -9.82      1.17    128.47           RANKING
   4     12     74       -9.82      1.43    128.86           RANKING
   4     13     80       -9.75      1.17    128.43           RANKING
   4     14     36       -9.73      1.57    128.64           RANKING
   4     15     72       -9.68      1.07    128.58           RANKING
   4     16     95       -9.60      1.38    128.58           RANKING
   4     17     25       -9.59      1.64    128.73           RANKING
   5      1      8      -10.63      0.00    128.09           RANKING
   5      2     83      -10.45      0.74    127.92           RANKING
   5      3      5      -10.29      0.74    127.80           RANKING
   5      4     70      -10.03      1.41    127.78           RANKING
   5      5     87      -10.00      1.67    127.90           RANKING
   5      6     20       -9.94      1.93    127.44           RANKING
   5      7     15       -9.89      1.82    127.58           RANKING
   5      8     53       -9.68      1.58    127.37           RANKING
   5      9     63       -9.63      1.10    128.11           RANKING
   5     10     62       -9.57      1.52    127.37           RANKING
   5     11     12       -9.48      1.60    127.86           RANKING
   6      1      3      -10.56      0.00    127.63           RANKING
   6      2     54      -10.41      1.41    127.64           RANKING
   6      3     50      -10.36      1.47    127.69           RANKING
   6      4     85      -10.36      1.06    127.93           RANKING
   6      5     66      -10.20      1.21    127.27           RANKING
   6      6     47      -10.19      1.82    126.95           RANKING
   6      7     10      -10.12      1.17    127.39           RANKING
   6      8    100       -9.70      1.29    127.63           RANKING
   6      9     22       -8.97      1.64    127.83           RANKING
   7      1     91      -10.53      0.00    127.80           RANKING
   8      1     96      -10.33      0.00    126.98           RANKING
   8      2     14      -10.09      1.31    127.19           RANKING
   8      3     79       -9.51      1.42    126.70           RANKING
   9      1     77      -10.29      0.00    129.73           RANKING
   9      2     67       -9.26      1.93    129.49           RANKING
  10      1     38       -9.94      0.00    128.18           RANKING
  11      1     65       -9.86      0.00    124.12           RANKING
  11      2      6       -9.58      1.10    123.56           RANKING
  12      1     75       -9.80      0.00    127.11           RANKING
  13      1     17       -9.68      0.00    124.39           RANKING
  13      2     34       -9.23      1.48    125.16           RANKING
  14      1     81       -9.59      0.00    128.87           RANKING
  15      1     11       -9.57      0.00    126.98           RANKING
  16      1     90       -9.52      0.00    125.92           RANKING
  16      2     71       -8.93      1.99    126.49           RANKING
  17      1     19       -9.40      0.00    126.97           RANKING
  18      1     59       -9.20      0.00    129.07           RANKING
  19      1     61       -9.19      0.00    127.51           RANKING
  20      1     31       -8.83      0.00    126.17           RANKING
_______________________________________________________________________



	INFORMATION ENTROPY ANALYSIS FOR THIS CLUSTERING
	________________________________________________


Information entropy for this clustering = 0.53  (rmstol = 2.00 Angstrom)

_______________________________________________________________________


	STATISTICAL MECHANICAL ANALYSIS
	_______________________________


Partition function, Q =   101.71            at Temperature, T = 298.15 K
Free energy,        A ~ -2738.51 kcal/mol   at Temperature, T = 298.15 K
Internal energy,    U =   -10.03 kcal/mol   at Temperature, T = 298.15 K
Entropy,            S =     9.15 kcal/mol/K at Temperature, T = 298.15 K

_______________________________________________________________________


	LOWEST ENERGY DOCKED CONFORMATION from EACH CLUSTER
	___________________________________________________



Keeping original residue number (specified in the input PDBQ file) for outputting.

MODEL       78
USER    Run = 78
USER    Cluster Rank = 1
USER    Number of conformations in this cluster = 13
USER  
USER    RMSD from reference structure       = 129.547 A
USER  
USER    Estimated Free Energy of Binding    =  -11.07 kcal/mol  [=(1)+(2)+(3)-(4)]
USER    Estimated Inhibition Constant, Ki   =    7.70 nM (nanomolar)  [Temperature = 298.15 K]
USER    
USER    (1) Final Intermolecular Energy     =  -13.46 kcal/mol
USER        vdW + Hbond + desolv Energy     =  -13.46 kcal/mol
USER        Electrostatic Energy            =   +0.00 kcal/mol
USER    (2) Final Total Internal Energy     =   -0.65 kcal/mol
USER    (3) Torsional Free Energy           =   +2.39 kcal/mol
USER    (4) Unbound System's Energy  [=(2)] =   -0.65 kcal/mol
USER    
USER    
USER  
USER    DPF = ligand_dock.biased.dpf
USER    NEWDPF move	ligand.dum.pdbqt
USER    NEWDPF about	0.108000 0.248000 -0.022000
USER    NEWDPF tran0	35.798984 16.092421 122.726177
USER    NEWDPF axisangle0	-0.349846 0.777553 -0.522512 -68.185523
USER    NEWDPF quaternion0	-0.196101 0.435845 -0.292886 -0.828131
USER    NEWDPF dihe0	-148.19 161.97 -27.95 -179.42 -46.96 45.53 -22.78 -175.85 
USER  
USER                              x       y       z    vdW   Elec        q     RMS 
ATOM      1  C   UNL     1      34.975  15.201 123.603 -0.51 -0.00    +0.000    129.547
ATOM      2  O   UNL     1      34.903  17.472 124.331 -0.38 -0.00    +0.000    129.547
ATOM      3  C   UNL     1      34.620  16.271 124.591 -0.53 -0.00    +0.000    129.547
ATOM      4  N   UNL     1      33.966  15.922 125.822 -0.48 -0.00    +0.000    129.547
ATOM      5  H   UNL     1      33.931  14.970 126.071 -0.04 -0.00    +0.000    129.547
ATOM      6  C   UNL     1      33.358  16.871 126.714 -0.36 -0.00    +0.000    129.547
ATOM      7  C   UNL     1      32.806  16.423 127.925 -0.40 -0.00    +0.000    129.547
ATOM      8  C   UNL     1      32.187  17.323 128.798 -0.32 -0.00    +0.000    129.547
ATOM      9  C   UNL     1      32.100  18.676 128.463 -0.18 -0.00    +0.000    129.547
ATOM     10  C   UNL     1      32.626  19.130 127.251 -0.22 -0.00    +0.000    129.547
ATOM     11  C   UNL     1      33.246  18.234 126.374 -0.28 -0.00    +0.000    129.547
ATOM     12  CM  UNL     1      32.720  17.776 127.587 +0.00 -0.00    +0.000    129.547
ATOM     13  C   UNL     1      36.444  14.795 123.765 -0.46 -0.00    +0.000    129.547
ATOM     14  C   UNL     1      36.709  13.334 123.362 -0.60 -0.00    +0.000    129.547
ATOM     15  C   UNL     1      37.580  13.192 122.097 -0.50 -0.00    +0.000    129.547
ATOM     16  C   UNL     1      37.254  11.911 121.308 -0.52 -0.00    +0.000    129.547
ATOM     17  C   UNL     1      36.242  11.019 122.039 -0.61 -0.00    +0.000    129.547
ATOM     18  C   UNL     1      36.708   9.595 122.117 -0.69 -0.00    +0.000    129.547
ATOM     19  N   UNL     1      37.022   9.004 123.379 -0.60 -0.00    +0.000    129.547
ATOM     20  O   UNL     1      37.433   7.717 123.452 -2.60 -0.00    +0.000    129.547
ATOM     21  O   UNL     1      36.795   8.909 121.063 -2.64 -0.00    +0.000    129.547
ATOM     22  H   UNL     1      36.937   9.537 124.202 -0.55 -0.00    +0.000    129.547
TER
ENDMDL
MODEL       52
USER    Run = 52
USER    Cluster Rank = 2
USER    Number of conformations in this cluster = 12
USER  
USER    RMSD from reference structure       = 128.391 A
USER  
USER    Estimated Free Energy of Binding    =  -10.87 kcal/mol  [=(1)+(2)+(3)-(4)]
USER    Estimated Inhibition Constant, Ki   =   10.73 nM (nanomolar)  [Temperature = 298.15 K]
USER    
USER    (1) Final Intermolecular Energy     =  -13.26 kcal/mol
USER        vdW + Hbond + desolv Energy     =  -13.26 kcal/mol
USER        Electrostatic Energy            =   +0.00 kcal/mol
USER    (2) Final Total Internal Energy     =   -1.10 kcal/mol
USER    (3) Torsional Free Energy           =   +2.39 kcal/mol
USER    (4) Unbound System's Energy  [=(2)] =   -1.10 kcal/mol
USER    
USER    
USER  
USER    DPF = ligand_dock.biased.dpf
USER    NEWDPF move	ligand.dum.pdbqt
USER    NEWDPF about	0.108000 0.248000 -0.022000
USER    NEWDPF tran0	39.571450 14.979624 121.778973
USER    NEWDPF axisangle0	-0.707045 -0.267692 0.654544 92.978942
USER    NEWDPF quaternion0	-0.512783 -0.194143 0.474707 0.688488
USER    NEWDPF dihe0	153.01 41.67 -140.82 -169.33 -51.39 -151.96 -136.05 -170.29 
USER  
USER                              x       y       z    vdW   Elec        q     RMS 
ATOM      1  C   UNL     1      38.255  15.335 121.158 -0.27 -0.00    +0.000    128.391
ATOM      2  O   UNL     1      38.306  15.921 123.471 -0.35 -0.00    +0.000    128.391
ATOM      3  C   UNL     1      37.596  15.722 122.448 -0.32 -0.00    +0.000    128.391
ATOM      4  N   UNL     1      36.167  15.860 122.509 -0.29 -0.00    +0.000    128.391
ATOM      5  H   UNL     1      35.639  15.519 121.751 -0.00 -0.00    +0.000    128.391
ATOM      6  C   UNL     1      35.458  16.465 123.603 -0.37 -0.00    +0.000    128.391
ATOM      7  C   UNL     1      35.553  17.852 123.802 -0.27 -0.00    +0.000    128.391
ATOM      8  C   UNL     1      34.893  18.461 124.874 -0.27 -0.00    +0.000    128.391
ATOM      9  C   UNL     1      34.146  17.689 125.766 -0.35 -0.00    +0.000    128.391
ATOM     10  C   UNL     1      34.062  16.305 125.591 -0.41 -0.00    +0.000    128.391
ATOM     11  C   UNL     1      34.721  15.692 124.521 -0.50 -0.00    +0.000    128.391
ATOM     12  CM  UNL     1      34.806  17.078 124.693 -0.32 -0.00    +0.000    128.391
ATOM     13  C   UNL     1      38.418  13.813 121.081 -0.40 -0.00    +0.000    128.391
ATOM     14  C   UNL     1      37.221  13.052 121.678 -0.50 -0.00    +0.000    128.391
ATOM     15  C   UNL     1      37.312  12.859 123.205 -0.59 -0.00    +0.000    128.391
ATOM     16  C   UNL     1      36.513  11.635 123.685 -0.70 -0.00    +0.000    128.391
ATOM     17  C   UNL     1      35.910  10.840 122.519 -0.66 -0.00    +0.000    128.391
ATOM     18  C   UNL     1      36.594   9.517 122.333 -0.71 -0.00    +0.000    128.391
ATOM     19  N   UNL     1      36.687   8.591 123.418 -0.64 -0.00    +0.000    128.391
ATOM     20  O   UNL     1      37.295   7.395 123.249 -2.30 -0.00    +0.000    128.391
ATOM     21  O   UNL     1      37.063   9.211 121.204 -2.74 -0.00    +0.000    128.391
ATOM     22  H   UNL     1      36.305   8.826 124.294 -0.29 -0.00    +0.000    128.391
TER
ENDMDL
MODEL       27
USER    Run = 27
USER    Cluster Rank = 3
USER    Number of conformations in this cluster = 18
USER  
USER    RMSD from reference structure       = 125.081 A
USER  
USER    Estimated Free Energy of Binding    =  -10.73 kcal/mol  [=(1)+(2)+(3)-(4)]
USER    Estimated Inhibition Constant, Ki   =   13.58 nM (nanomolar)  [Temperature = 298.15 K]
USER    
USER    (1) Final Intermolecular Energy     =  -13.12 kcal/mol
USER        vdW + Hbond + desolv Energy     =  -13.12 kcal/mol
USER        Electrostatic Energy            =   +0.00 kcal/mol
USER    (2) Final Total Internal Energy     =   -0.94 kcal/mol
USER    (3) Torsional Free Energy           =   +2.39 kcal/mol
USER    (4) Unbound System's Energy  [=(2)] =   -0.94 kcal/mol
USER    
USER    
USER  
USER    DPF = ligand_dock.biased.dpf
USER    NEWDPF move	ligand.dum.pdbqt
USER    NEWDPF about	0.108000 0.248000 -0.022000
USER    NEWDPF tran0	36.838698 12.959094 120.544413
USER    NEWDPF axisangle0	0.709701 -0.200891 0.675253 -175.357493
USER    NEWDPF quaternion0	0.709119 -0.200727 0.674699 -0.040502
USER    NEWDPF dihe0	122.09 101.80 -152.32 109.34 177.26 -8.59 -9.36 28.54 
USER  
USER                              x       y       z    vdW   Elec        q     RMS 
ATOM      1  C   UNL     1      37.065  14.440 120.567 -0.28 -0.00    +0.000    125.081
ATOM      2  O   UNL     1      38.128  15.420 118.668 -0.19 -0.00    +0.000    125.081
ATOM      3  C   UNL     1      37.307  14.563 119.092 -0.30 -0.00    +0.000    125.081
ATOM      4  N   UNL     1      36.601  13.709 118.177 -0.39 -0.00    +0.000    125.081
ATOM      5  H   UNL     1      35.841  13.189 118.525 -0.09 -0.00    +0.000    125.081
ATOM      6  C   UNL     1      36.934  13.562 116.786 -0.34 -0.00    +0.000    125.081
ATOM      7  C   UNL     1      38.216  13.114 116.429 -0.37 -0.00    +0.000    125.081
ATOM      8  C   UNL     1      38.572  12.987 115.082 -0.47 -0.00    +0.000    125.081
ATOM      9  C   UNL     1      37.658  13.321 114.081 -0.31 -0.00    +0.000    125.081
ATOM     10  C   UNL     1      36.386  13.788 114.425 -0.29 -0.00    +0.000    125.081
ATOM     11  C   UNL     1      36.026  13.917 115.770 -0.27 -0.00    +0.000    125.081
ATOM     12  CM  UNL     1      37.299  13.449 115.429 +0.00 -0.00    +0.000    125.081
ATOM     13  C   UNL     1      38.264  13.769 121.247 -0.42 -0.00    +0.000    125.081
ATOM     14  C   UNL     1      38.261  13.947 122.775 -0.47 -0.00    +0.000    125.081
ATOM     15  C   UNL     1      36.995  13.389 123.458 -0.57 -0.00    +0.000    125.081
ATOM     16  C   UNL     1      36.992  11.851 123.507 -0.68 -0.00    +0.000    125.081
ATOM     17  C   UNL     1      36.633  11.226 122.153 -0.63 -0.00    +0.000    125.081
ATOM     18  C   UNL     1      36.877   9.745 122.140 -0.63 -0.00    +0.000    125.081
ATOM     19  N   UNL     1      36.874   9.000 123.359 -0.60 -0.00    +0.000    125.081
ATOM     20  O   UNL     1      37.084   7.664 123.348 -2.60 -0.00    +0.000    125.081
ATOM     21  O   UNL     1      37.058   9.153 121.042 -2.73 -0.00    +0.000    125.081
ATOM     22  H   UNL     1      36.716   9.463 124.214 -0.49 -0.00    +0.000    125.081
TER
ENDMDL
MODEL       93
USER    Run = 93
USER    Cluster Rank = 4
USER    Number of conformations in this cluster = 17
USER  
USER    RMSD from reference structure       = 128.648 A
USER  
USER    Estimated Free Energy of Binding    =  -10.73 kcal/mol  [=(1)+(2)+(3)-(4)]
USER    Estimated Inhibition Constant, Ki   =   13.65 nM (nanomolar)  [Temperature = 298.15 K]
USER    
USER    (1) Final Intermolecular Energy     =  -13.12 kcal/mol
USER        vdW + Hbond + desolv Energy     =  -13.12 kcal/mol
USER        Electrostatic Energy            =   +0.00 kcal/mol
USER    (2) Final Total Internal Energy     =   -0.96 kcal/mol
USER    (3) Torsional Free Energy           =   +2.39 kcal/mol
USER    (4) Unbound System's Energy  [=(2)] =   -0.96 kcal/mol
USER    
USER    
USER  
USER    DPF = ligand_dock.biased.dpf
USER    NEWDPF move	ligand.dum.pdbqt
USER    NEWDPF about	0.108000 0.248000 -0.022000
USER    NEWDPF tran0	38.285167 13.658639 122.900567
USER    NEWDPF axisangle0	-0.057297 0.640503 0.765815 153.580870
USER    NEWDPF quaternion0	-0.055781 0.623556 0.745552 0.228513
USER    NEWDPF dihe0	88.53 120.63 73.35 100.31 -167.95 -161.35 78.65 11.59 
USER  
USER                              x       y       z    vdW   Elec        q     RMS 
ATOM      1  C   UNL     1      38.278  13.710 121.403 -0.42 -0.00    +0.000    128.648
ATOM      2  O   UNL     1      39.730  15.177 120.207 -0.25 -0.00    +0.000    128.648
ATOM      3  C   UNL     1      39.495  14.579 121.291 -0.33 -0.00    +0.000    128.648
ATOM      4  N   UNL     1      40.380  14.721 122.414 -0.44 -0.00    +0.000    128.648
ATOM      5  H   UNL     1      40.268  14.100 123.170 -0.05 -0.00    +0.000    128.648
ATOM      6  C   UNL     1      41.419  15.710 122.506 -0.42 -0.00    +0.000    128.648
ATOM      7  C   UNL     1      42.600  15.539 121.767 -0.32 -0.00    +0.000    128.648
ATOM      8  C   UNL     1      43.636  16.474 121.858 -0.29 -0.00    +0.000    128.648
ATOM      9  C   UNL     1      43.507  17.581 122.700 -0.28 -0.00    +0.000    128.648
ATOM     10  C   UNL     1      42.344  17.751 123.457 -0.24 -0.00    +0.000    128.648
ATOM     11  C   UNL     1      41.306  16.818 123.369 -0.32 -0.00    +0.000    128.648
ATOM     12  CM  UNL     1      42.469  16.645 122.610 +0.00 -0.00    +0.000    128.648
ATOM     13  C   UNL     1      37.085  14.528 121.909 -0.37 -0.00    +0.000    128.648
ATOM     14  C   UNL     1      36.708  14.200 123.364 -0.51 -0.00    +0.000    128.648
ATOM     15  C   UNL     1      35.596  13.137 123.487 -0.47 -0.00    +0.000    128.648
ATOM     16  C   UNL     1      36.163  11.706 123.526 -0.70 -0.00    +0.000    128.648
ATOM     17  C   UNL     1      36.385  11.130 122.121 -0.63 -0.00    +0.000    128.648
ATOM     18  C   UNL     1      36.746   9.674 122.167 -0.68 -0.00    +0.000    128.648
ATOM     19  N   UNL     1      37.035   9.038 123.414 -0.59 -0.00    +0.000    128.648
ATOM     20  O   UNL     1      37.351   7.724 123.457 -2.63 -0.00    +0.000    128.648
ATOM     21  O   UNL     1      36.764   9.003 121.100 -2.63 -0.00    +0.000    128.648
ATOM     22  H   UNL     1      37.003   9.561 124.247 -0.55 -0.00    +0.000    128.648
TER
ENDMDL
MODEL        8
USER    Run = 8
USER    Cluster Rank = 5
USER    Number of conformations in this cluster = 11
USER  
USER    RMSD from reference structure       = 128.092 A
USER  
USER    Estimated Free Energy of Binding    =  -10.63 kcal/mol  [=(1)+(2)+(3)-(4)]
USER    Estimated Inhibition Constant, Ki   =   16.03 nM (nanomolar)  [Temperature = 298.15 K]
USER    
USER    (1) Final Intermolecular Energy     =  -13.02 kcal/mol
USER        vdW + Hbond + desolv Energy     =  -13.02 kcal/mol
USER        Electrostatic Energy            =   +0.00 kcal/mol
USER    (2) Final Total Internal Energy     =   -0.80 kcal/mol
USER    (3) Torsional Free Energy           =   +2.39 kcal/mol
USER    (4) Unbound System's Energy  [=(2)] =   -0.80 kcal/mol
USER    
USER    
USER  
USER    DPF = ligand_dock.biased.dpf
USER    NEWDPF move	ligand.dum.pdbqt
USER    NEWDPF about	0.108000 0.248000 -0.022000
USER    NEWDPF tran0	37.542193 11.725076 121.290902
USER    NEWDPF axisangle0	-0.747557 -0.586931 0.310918 -119.769573
USER    NEWDPF quaternion0	-0.646651 -0.507706 0.268949 -0.501740
USER    NEWDPF dihe0	136.39 -179.20 87.29 -29.38 -143.43 53.21 -60.16 -151.40 
USER  
USER                              x       y       z    vdW   Elec        q     RMS 
ATOM      1  C   UNL     1      37.114  11.301 122.662 -0.56 -0.00    +0.000    128.092
ATOM      2  O   UNL     1      36.835   9.426 121.213 -2.49 -0.00    +0.000    128.092
ATOM      3  C   UNL     1      36.395  10.067 122.205 -0.65 -0.00    +0.000    128.092
ATOM      4  N   UNL     1      35.213   9.629 122.896 -0.60 -0.00    +0.000    128.092
ATOM      5  H   UNL     1      34.799  10.250 123.538 -0.43 -0.00    +0.000    128.092
ATOM      6  C   UNL     1      34.597   8.344 122.711 -0.61 -0.00    +0.000    128.092
ATOM      7  C   UNL     1      34.102   7.993 121.444 -0.57 -0.00    +0.000    128.092
ATOM      8  C   UNL     1      33.477   6.759 121.245 -0.42 -0.00    +0.000    128.092
ATOM      9  C   UNL     1      33.326   5.870 122.312 -0.62 -0.00    +0.000    128.092
ATOM     10  C   UNL     1      33.795   6.217 123.581 -0.58 -0.00    +0.000    128.092
ATOM     11  C   UNL     1      34.421   7.451 123.786 -0.59 -0.00    +0.000    128.092
ATOM     12  CM  UNL     1      33.953   7.106 122.513 +0.00 -0.00    +0.000    128.092
ATOM     13  C   UNL     1      36.314  12.553 122.284 -0.49 -0.00    +0.000    128.092
ATOM     14  C   UNL     1      35.779  13.313 123.510 -0.54 -0.00    +0.000    128.092
ATOM     15  C   UNL     1      36.290  14.765 123.606 -0.49 -0.00    +0.000    128.092
ATOM     16  C   UNL     1      35.160  15.792 123.414 -0.47 -0.00    +0.000    128.092
ATOM     17  C   UNL     1      35.349  17.037 124.291 -0.39 -0.00    +0.000    128.092
ATOM     18  C   UNL     1      34.310  17.123 125.370 -0.44 -0.00    +0.000    128.092
ATOM     19  N   UNL     1      33.873  15.944 126.049 -0.46 -0.00    +0.000    128.092
ATOM     20  O   UNL     1      32.944  16.020 127.029 -1.18 -0.00    +0.000    128.092
ATOM     21  O   UNL     1      33.843  18.246 125.698 -0.39 -0.00    +0.000    128.092
ATOM     22  H   UNL     1      34.252  15.069 125.802 -0.05 -0.00    +0.000    128.092
TER
ENDMDL
MODEL        3
USER    Run = 3
USER    Cluster Rank = 6
USER    Number of conformations in this cluster = 9
USER  
USER    RMSD from reference structure       = 127.627 A
USER  
USER    Estimated Free Energy of Binding    =  -10.56 kcal/mol  [=(1)+(2)+(3)-(4)]
USER    Estimated Inhibition Constant, Ki   =   18.05 nM (nanomolar)  [Temperature = 298.15 K]
USER    
USER    (1) Final Intermolecular Energy     =  -12.95 kcal/mol
USER        vdW + Hbond + desolv Energy     =  -12.95 kcal/mol
USER        Electrostatic Energy            =   +0.00 kcal/mol
USER    (2) Final Total Internal Energy     =   -0.82 kcal/mol
USER    (3) Torsional Free Energy           =   +2.39 kcal/mol
USER    (4) Unbound System's Energy  [=(2)] =   -0.82 kcal/mol
USER    
USER    
USER  
USER    DPF = ligand_dock.biased.dpf
USER    NEWDPF move	ligand.dum.pdbqt
USER    NEWDPF about	0.108000 0.248000 -0.022000
USER    NEWDPF tran0	36.435932 12.160634 121.572780
USER    NEWDPF axisangle0	-0.475068 -0.615330 0.629031 -86.975379
USER    NEWDPF quaternion0	-0.326941 -0.423469 0.432898 -0.725522
USER    NEWDPF dihe0	-161.97 -174.44 -105.65 56.31 -122.02 -121.71 44.99 -94.70 
USER  
USER                              x       y       z    vdW   Elec        q     RMS 
ATOM      1  C   UNL     1      37.103  11.252 122.560 -0.55 -0.00    +0.000    127.627
ATOM      2  O   UNL     1      36.902   9.298 121.205 -2.62 -0.00    +0.000    127.627
ATOM      3  C   UNL     1      36.390  10.013 122.109 -0.63 -0.00    +0.000    127.627
ATOM      4  N   UNL     1      35.133   9.653 122.705 -0.60 -0.00    +0.000    127.627
ATOM      5  H   UNL     1      34.680  10.325 123.265 -0.36 -0.00    +0.000    127.627
ATOM      6  C   UNL     1      34.494   8.377 122.538 -0.61 -0.00    +0.000    127.627
ATOM      7  C   UNL     1      34.508   7.457 123.600 -0.63 -0.00    +0.000    127.627
ATOM      8  C   UNL     1      33.915   6.199 123.454 -0.62 -0.00    +0.000    127.627
ATOM      9  C   UNL     1      33.318   5.841 122.244 -0.60 -0.00    +0.000    127.627
ATOM     10  C   UNL     1      33.317   6.740 121.174 -0.41 -0.00    +0.000    127.627
ATOM     11  C   UNL     1      33.909   8.000 121.314 -0.57 -0.00    +0.000    127.627
ATOM     12  CM  UNL     1      33.910   7.102 122.387 +0.00 -0.00    +0.000    127.627
ATOM     13  C   UNL     1      36.145  12.166 123.332 -0.67 -0.00    +0.000    127.627
ATOM     14  C   UNL     1      36.360  13.658 123.022 -0.53 -0.00    +0.000    127.627
ATOM     15  C   UNL     1      37.812  14.130 123.246 -0.44 -0.00    +0.000    127.627
ATOM     16  C   UNL     1      38.324  15.002 122.086 -0.37 -0.00    +0.000    127.627
ATOM     17  C   UNL     1      39.686  14.532 121.561 -0.35 -0.00    +0.000    127.627
ATOM     18  C   UNL     1      40.792  15.459 121.971 -0.40 -0.00    +0.000    127.627
ATOM     19  N   UNL     1      41.640  15.131 123.074 -0.56 +0.00    +0.000    127.627
ATOM     20  O   UNL     1      42.643  15.962 123.440 -1.12 +0.00    +0.000    127.627
ATOM     21  O   UNL     1      40.991  16.520 121.320 -0.20 -0.00    +0.000    127.627
ATOM     22  H   UNL     1      41.493  14.294 123.571 -0.09 +0.00    +0.000    127.627
TER
ENDMDL
MODEL       91
USER    Run = 91
USER    Cluster Rank = 7
USER    Number of conformations in this cluster = 1
USER  
USER    RMSD from reference structure       = 127.804 A
USER  
USER    Estimated Free Energy of Binding    =  -10.53 kcal/mol  [=(1)+(2)+(3)-(4)]
USER    Estimated Inhibition Constant, Ki   =   19.11 nM (nanomolar)  [Temperature = 298.15 K]
USER    
USER    (1) Final Intermolecular Energy     =  -12.92 kcal/mol
USER        vdW + Hbond + desolv Energy     =  -12.92 kcal/mol
USER        Electrostatic Energy            =   +0.00 kcal/mol
USER    (2) Final Total Internal Energy     =   -0.80 kcal/mol
USER    (3) Torsional Free Energy           =   +2.39 kcal/mol
USER    (4) Unbound System's Energy  [=(2)] =   -0.80 kcal/mol
USER    
USER    
USER  
USER    DPF = ligand_dock.biased.dpf
USER    NEWDPF move	ligand.dum.pdbqt
USER    NEWDPF about	0.108000 0.248000 -0.022000
USER    NEWDPF tran0	38.808354 16.188346 121.681211
USER    NEWDPF axisangle0	0.056353 -0.898235 0.435888 -161.623839
USER    NEWDPF quaternion0	0.055630 -0.886710 0.430296 -0.159676
USER    NEWDPF dihe0	-177.01 -178.53 86.21 38.30 73.24 159.02 -16.88 24.24 
USER  
USER                              x       y       z    vdW   Elec        q     RMS 
ATOM      1  C   UNL     1      39.511  15.494 122.807 -0.29 -0.00    +0.000    127.804
ATOM      2  O   UNL     1      41.502  14.267 122.331 -1.01 +0.00    +0.000    127.804
ATOM      3  C   UNL     1      40.787  15.267 122.052 -0.43 -0.00    +0.000    127.804
ATOM      4  N   UNL     1      41.184  16.189 121.024 -0.20 -0.00    +0.000    127.804
ATOM      5  H   UNL     1      40.705  17.046 120.964 +0.00 -0.00    +0.000    127.804
ATOM      6  C   UNL     1      42.236  15.940 120.076 -0.11 -0.00    +0.000    127.804
ATOM      7  C   UNL     1      43.551  15.765 120.537 -0.24 -0.00    +0.000    127.804
ATOM      8  C   UNL     1      44.595  15.546 119.633 -0.28 -0.00    +0.000    127.804
ATOM      9  C   UNL     1      44.339  15.515 118.261 -0.28 -0.00    +0.000    127.804
ATOM     10  C   UNL     1      43.038  15.709 117.789 -0.25 -0.00    +0.000    127.804
ATOM     11  C   UNL     1      41.990  15.929 118.689 -0.13 -0.00    +0.000    127.804
ATOM     12  CM  UNL     1      43.291  15.734 119.164 +0.00 -0.00    +0.000    127.804
ATOM     13  C   UNL     1      38.414  14.559 122.288 -0.43 -0.00    +0.000    127.804
ATOM     14  C   UNL     1      37.298  14.316 123.320 -0.47 -0.00    +0.000    127.804
ATOM     15  C   UNL     1      36.899  12.832 123.458 -0.63 -0.00    +0.000    127.804
ATOM     16  C   UNL     1      37.095  12.054 122.144 -0.57 -0.00    +0.000    127.804
ATOM     17  C   UNL     1      36.065  10.929 121.974 -0.56 -0.00    +0.000    127.804
ATOM     18  C   UNL     1      36.697   9.573 122.086 -0.69 -0.00    +0.000    127.804
ATOM     19  N   UNL     1      36.887   8.965 123.365 -0.60 -0.00    +0.000    127.804
ATOM     20  O   UNL     1      37.448   7.739 123.467 -2.58 -0.00    +0.000    127.804
ATOM     21  O   UNL     1      37.036   8.955 121.041 -2.70 -0.00    +0.000    127.804
ATOM     22  H   UNL     1      36.606   9.443 124.179 -0.45 -0.00    +0.000    127.804
TER
ENDMDL
MODEL       96
USER    Run = 96
USER    Cluster Rank = 8
USER    Number of conformations in this cluster = 3
USER  
USER    RMSD from reference structure       = 126.977 A
USER  
USER    Estimated Free Energy of Binding    =  -10.33 kcal/mol  [=(1)+(2)+(3)-(4)]
USER    Estimated Inhibition Constant, Ki   =   26.86 nM (nanomolar)  [Temperature = 298.15 K]
USER    
USER    (1) Final Intermolecular Energy     =  -12.71 kcal/mol
USER        vdW + Hbond + desolv Energy     =  -12.71 kcal/mol
USER        Electrostatic Energy            =   +0.00 kcal/mol
USER    (2) Final Total Internal Energy     =   -0.76 kcal/mol
USER    (3) Torsional Free Energy           =   +2.39 kcal/mol
USER    (4) Unbound System's Energy  [=(2)] =   -0.76 kcal/mol
USER    
USER    
USER  
USER    DPF = ligand_dock.biased.dpf
USER    NEWDPF move	ligand.dum.pdbqt
USER    NEWDPF about	0.108000 0.248000 -0.022000
USER    NEWDPF tran0	35.448398 15.736012 124.705748
USER    NEWDPF axisangle0	0.910233 -0.285807 0.299649 -136.234022
USER    NEWDPF quaternion0	0.844648 -0.265214 0.278059 -0.372712
USER    NEWDPF dihe0	160.80 140.26 -174.30 79.34 -13.34 173.83 168.33 180.00 
USER  
USER                              x       y       z    vdW   Elec        q     RMS 
ATOM      1  C   UNL     1      36.093  16.862 123.957 -0.34 -0.00    +0.000    126.977
ATOM      2  O   UNL     1      34.053  16.159 122.937 -0.48 -0.00    +0.000    126.977
ATOM      3  C   UNL     1      35.070  16.900 122.861 -0.38 -0.00    +0.000    126.977
ATOM      4  N   UNL     1      35.256  17.775 121.737 -0.27 -0.00    +0.000    126.977
ATOM      5  H   UNL     1      36.140  18.194 121.621 +0.00 -0.00    +0.000    126.977
ATOM      6  C   UNL     1      34.237  18.080 120.770 -0.28 -0.00    +0.000    126.977
ATOM      7  C   UNL     1      32.905  18.218 121.195 -0.21 -0.00    +0.000    126.977
ATOM      8  C   UNL     1      31.892  18.489 120.271 -0.44 -0.00    +0.000    126.977
ATOM      9  C   UNL     1      32.196  18.611 118.913 -0.31 -0.00    +0.000    126.977
ATOM     10  C   UNL     1      33.514  18.455 118.476 -0.20 -0.00    +0.000    126.977
ATOM     11  C   UNL     1      34.531  18.182 119.397 -0.21 -0.00    +0.000    126.977
ATOM     12  CM  UNL     1      33.213  18.339 119.837 +0.00 -0.00    +0.000    126.977
ATOM     13  C   UNL     1      36.985  15.625 123.808 -0.29 -0.00    +0.000    126.977
ATOM     14  C   UNL     1      36.368  14.549 122.897 -0.44 -0.00    +0.000    126.977
ATOM     15  C   UNL     1      36.123  13.204 123.611 -0.60 -0.00    +0.000    126.977
ATOM     16  C   UNL     1      36.963  12.064 123.006 -0.65 -0.00    +0.000    126.977
ATOM     17  C   UNL     1      36.114  11.091 122.177 -0.62 -0.00    +0.000    126.977
ATOM     18  C   UNL     1      36.705   9.712 122.159 -0.68 -0.00    +0.000    126.977
ATOM     19  N   UNL     1      36.831   8.962 123.369 -0.60 -0.00    +0.000    126.977
ATOM     20  O   UNL     1      37.355   7.715 123.352 -2.55 -0.00    +0.000    126.977
ATOM     21  O   UNL     1      37.065   9.203 121.064 -2.74 -0.00    +0.000    126.977
ATOM     22  H   UNL     1      36.533   9.356 124.221 -0.42 -0.00    +0.000    126.977
TER
ENDMDL
MODEL       77
USER    Run = 77
USER    Cluster Rank = 9
USER    Number of conformations in this cluster = 2
USER  
USER    RMSD from reference structure       = 129.726 A
USER  
USER    Estimated Free Energy of Binding    =  -10.29 kcal/mol  [=(1)+(2)+(3)-(4)]
USER    Estimated Inhibition Constant, Ki   =   28.85 nM (nanomolar)  [Temperature = 298.15 K]
USER    
USER    (1) Final Intermolecular Energy     =  -12.67 kcal/mol
USER        vdW + Hbond + desolv Energy     =  -12.67 kcal/mol
USER        Electrostatic Energy            =   +0.00 kcal/mol
USER    (2) Final Total Internal Energy     =   -0.79 kcal/mol
USER    (3) Torsional Free Energy           =   +2.39 kcal/mol
USER    (4) Unbound System's Energy  [=(2)] =   -0.79 kcal/mol
USER    
USER    
USER  
USER    DPF = ligand_dock.biased.dpf
USER    NEWDPF move	ligand.dum.pdbqt
USER    NEWDPF about	0.108000 0.248000 -0.022000
USER    NEWDPF tran0	40.225099 13.992543 123.211429
USER    NEWDPF axisangle0	-0.421181 0.360308 0.832337 151.524028
USER    NEWDPF quaternion0	-0.408243 0.349240 0.806770 0.245950
USER    NEWDPF dihe0	-158.18 170.68 -138.82 -22.36 -171.62 140.55 89.03 -97.63 
USER  
USER                              x       y       z    vdW   Elec        q     RMS 
ATOM      1  C   UNL     1      40.466  15.022 122.150 -0.44 -0.00    +0.000    129.726
ATOM      2  O   UNL     1      42.248  16.058 123.353 -1.13 +0.00    +0.000    129.726
ATOM      3  C   UNL     1      41.016  16.056 123.086 -0.38 -0.00    +0.000    129.726
ATOM      4  N   UNL     1      40.138  17.032 123.672 -0.26 -0.00    +0.000    129.726
ATOM      5  H   UNL     1      39.168  16.886 123.590 -0.01 -0.00    +0.000    129.726
ATOM      6  C   UNL     1      40.584  18.207 124.369 -0.26 -0.00    +0.000    129.726
ATOM      7  C   UNL     1      41.143  19.269 123.640 -0.13 -0.00    +0.000    129.726
ATOM      8  C   UNL     1      41.607  20.413 124.297 -0.09 -0.00    +0.000    129.726
ATOM      9  C   UNL     1      41.531  20.500 125.689 -0.12 -0.00    +0.000    129.726
ATOM     10  C   UNL     1      40.996  19.441 126.426 -0.21 -0.00    +0.000    129.726
ATOM     11  C   UNL     1      40.531  18.295 125.774 -0.31 -0.00    +0.000    129.726
ATOM     12  CM  UNL     1      41.066  19.354 125.032 +0.00 -0.00    +0.000    129.726
ATOM     13  C   UNL     1      38.951  14.886 122.341 -0.41 -0.00    +0.000    129.726
ATOM     14  C   UNL     1      38.567  13.716 123.264 -0.22 -0.00    +0.000    129.726
ATOM     15  C   UNL     1      37.172  13.129 122.968 -0.58 -0.00    +0.000    129.726
ATOM     16  C   UNL     1      37.212  12.075 121.848 -0.53 -0.00    +0.000    129.726
ATOM     17  C   UNL     1      36.102  11.026 121.995 -0.58 -0.00    +0.000    129.726
ATOM     18  C   UNL     1      36.658   9.636 122.103 -0.68 -0.00    +0.000    129.726
ATOM     19  N   UNL     1      36.697   8.969 123.366 -0.59 -0.00    +0.000    129.726
ATOM     20  O   UNL     1      37.190   7.712 123.463 -2.66 -0.00    +0.000    129.726
ATOM     21  O   UNL     1      37.066   9.046 121.067 -2.72 -0.00    +0.000    129.726
ATOM     22  H   UNL     1      36.362   9.426 124.171 -0.37 -0.00    +0.000    129.726
TER
ENDMDL
MODEL       38
USER    Run = 38
USER    Cluster Rank = 10
USER    Number of conformations in this cluster = 1
USER  
USER    RMSD from reference structure       = 128.180 A
USER  
USER    Estimated Free Energy of Binding    =   -9.94 kcal/mol  [=(1)+(2)+(3)-(4)]
USER    Estimated Inhibition Constant, Ki   =   51.37 nM (nanomolar)  [Temperature = 298.15 K]
USER    
USER    (1) Final Intermolecular Energy     =  -12.33 kcal/mol
USER        vdW + Hbond + desolv Energy     =  -12.33 kcal/mol
USER        Electrostatic Energy            =   +0.00 kcal/mol
USER    (2) Final Total Internal Energy     =   -1.04 kcal/mol
USER    (3) Torsional Free Energy           =   +2.39 kcal/mol
USER    (4) Unbound System's Energy  [=(2)] =   -1.04 kcal/mol
USER    
USER    
USER  
USER    DPF = ligand_dock.biased.dpf
USER    NEWDPF move	ligand.dum.pdbqt
USER    NEWDPF about	0.108000 0.248000 -0.022000
USER    NEWDPF tran0	35.176003 14.824744 122.414227
USER    NEWDPF axisangle0	0.197051 -0.432883 0.879649 165.493215
USER    NEWDPF quaternion0	0.195474 -0.429419 0.872610 0.126258
USER    NEWDPF dihe0	177.36 125.34 -145.66 -174.65 -84.52 13.71 119.04 7.20 
USER  
USER                              x       y       z    vdW   Elec        q     RMS 
ATOM      1  C   UNL     1      35.260  16.002 123.337 -0.45 -0.00    +0.000    128.180
ATOM      2  O   UNL     1      37.334  17.076 123.825 -0.28 -0.00    +0.000    128.180
ATOM      3  C   UNL     1      36.710  16.278 123.075 -0.33 -0.00    +0.000    128.180
ATOM      4  N   UNL     1      37.374  15.635 121.975 -0.24 -0.00    +0.000    128.180
ATOM      5  H   UNL     1      36.817  15.171 121.308 -0.01 -0.00    +0.000    128.180
ATOM      6  C   UNL     1      38.799  15.624 121.784 -0.25 -0.00    +0.000    128.180
ATOM      7  C   UNL     1      39.612  14.949 122.710 -0.34 -0.00    +0.000    128.180
ATOM      8  C   UNL     1      41.002  14.944 122.560 -0.47 -0.00    +0.000    128.180
ATOM      9  C   UNL     1      41.594  15.626 121.494 -0.29 -0.00    +0.000    128.180
ATOM     10  C   UNL     1      40.797  16.318 120.579 -0.16 -0.00    +0.000    128.180
ATOM     11  C   UNL     1      39.406  16.326 120.725 -0.14 -0.00    +0.000    128.180
ATOM     12  CM  UNL     1      40.201  15.631 121.642 +0.00 -0.00    +0.000    128.180
ATOM     13  C   UNL     1      35.105  14.741 124.194 -0.52 -0.00    +0.000    128.180
ATOM     14  C   UNL     1      35.537  13.461 123.458 -0.45 -0.00    +0.000    128.180
ATOM     15  C   UNL     1      37.063  13.236 123.456 -0.58 -0.00    +0.000    128.180
ATOM     16  C   UNL     1      37.447  11.859 122.884 -0.44 -0.00    +0.000    128.180
ATOM     17  C   UNL     1      36.219  11.036 122.474 -0.67 -0.00    +0.000    128.180
ATOM     18  C   UNL     1      36.570   9.600 122.217 -0.69 -0.00    +0.000    128.180
ATOM     19  N   UNL     1      36.735   8.690 123.306 -0.65 -0.00    +0.000    128.180
ATOM     20  O   UNL     1      37.043   7.392 123.076 -2.34 -0.00    +0.000    128.180
ATOM     21  O   UNL     1      36.691   9.190 121.032 -2.60 +0.00    +0.000    128.180
ATOM     22  H   UNL     1      36.623   9.009 124.231 -0.43 -0.00    +0.000    128.180
TER
ENDMDL
MODEL       65
USER    Run = 65
USER    Cluster Rank = 11
USER    Number of conformations in this cluster = 2
USER  
USER    RMSD from reference structure       = 124.121 A
USER  
USER    Estimated Free Energy of Binding    =   -9.86 kcal/mol  [=(1)+(2)+(3)-(4)]
USER    Estimated Inhibition Constant, Ki   =   58.80 nM (nanomolar)  [Temperature = 298.15 K]
USER    
USER    (1) Final Intermolecular Energy     =  -12.25 kcal/mol
USER        vdW + Hbond + desolv Energy     =  -12.25 kcal/mol
USER        Electrostatic Energy            =   +0.00 kcal/mol
USER    (2) Final Total Internal Energy     =   -0.80 kcal/mol
USER    (3) Torsional Free Energy           =   +2.39 kcal/mol
USER    (4) Unbound System's Energy  [=(2)] =   -0.80 kcal/mol
USER    
USER    
USER  
USER    DPF = ligand_dock.biased.dpf
USER    NEWDPF move	ligand.dum.pdbqt
USER    NEWDPF about	0.108000 0.248000 -0.022000
USER    NEWDPF tran0	37.845545 15.638936 118.605127
USER    NEWDPF axisangle0	-0.166382 -0.907753 -0.385100 -36.079325
USER    NEWDPF quaternion0	-0.051524 -0.281109 -0.119256 -0.950842
USER    NEWDPF dihe0	-75.25 -133.95 -8.94 78.83 28.18 -143.90 -28.89 -167.88 
USER  
USER                              x       y       z    vdW   Elec        q     RMS 
ATOM      1  C   UNL     1      37.364  14.267 118.246 -0.34 -0.00    +0.000    124.121
ATOM      2  O   UNL     1      35.882  15.937 117.403 -0.17 -0.00    +0.000    124.121
ATOM      3  C   UNL     1      36.042  14.724 117.706 -0.31 -0.00    +0.000    124.121
ATOM      4  N   UNL     1      34.970  13.780 117.542 -0.35 -0.00    +0.000    124.121
ATOM      5  H   UNL     1      35.069  12.894 117.959 -0.09 -0.00    +0.000    124.121
ATOM      6  C   UNL     1      33.764  14.045 116.807 -0.30 -0.00    +0.000    124.121
ATOM      7  C   UNL     1      32.612  13.290 117.080 -0.35 -0.00    +0.000    124.121
ATOM      8  C   UNL     1      31.432  13.511 116.361 -0.46 -0.00    +0.000    124.121
ATOM      9  C   UNL     1      31.397  14.478 115.355 -0.28 -0.00    +0.000    124.121
ATOM     10  C   UNL     1      32.543  15.222 115.060 -0.19 -0.00    +0.000    124.121
ATOM     11  C   UNL     1      33.725  15.003 115.775 -0.22 -0.00    +0.000    124.121
ATOM     12  CM  UNL     1      32.579  14.258 116.073 +0.00 -0.00    +0.000    124.121
ATOM     13  C   UNL     1      37.379  14.377 119.775 -0.32 -0.00    +0.000    124.121
ATOM     14  C   UNL     1      38.187  13.253 120.447 -0.42 -0.00    +0.000    124.121
ATOM     15  C   UNL     1      37.442  11.903 120.496 -0.53 -0.00    +0.000    124.121
ATOM     16  C   UNL     1      36.335  11.889 121.565 -0.50 -0.00    +0.000    124.121
ATOM     17  C   UNL     1      36.707  11.028 122.779 -0.67 -0.00    +0.000    124.121
ATOM     18  C   UNL     1      36.807   9.574 122.422 -0.68 -0.00    +0.000    124.121
ATOM     19  N   UNL     1      36.995   8.590 123.441 -0.66 -0.00    +0.000    124.121
ATOM     20  O   UNL     1      37.075   7.278 123.122 -2.26 -0.00    +0.000    124.121
ATOM     21  O   UNL     1      36.695   9.218 121.218 -2.62 -0.00    +0.000    124.121
ATOM     22  H   UNL     1      37.065   8.869 124.382 -0.53 -0.00    +0.000    124.121
TER
ENDMDL
MODEL       75
USER    Run = 75
USER    Cluster Rank = 12
USER    Number of conformations in this cluster = 1
USER  
USER    RMSD from reference structure       = 127.111 A
USER  
USER    Estimated Free Energy of Binding    =   -9.80 kcal/mol  [=(1)+(2)+(3)-(4)]
USER    Estimated Inhibition Constant, Ki   =   66.09 nM (nanomolar)  [Temperature = 298.15 K]
USER    
USER    (1) Final Intermolecular Energy     =  -12.18 kcal/mol
USER        vdW + Hbond + desolv Energy     =  -12.18 kcal/mol
USER        Electrostatic Energy            =   +0.00 kcal/mol
USER    (2) Final Total Internal Energy     =   -1.24 kcal/mol
USER    (3) Torsional Free Energy           =   +2.39 kcal/mol
USER    (4) Unbound System's Energy  [=(2)] =   -1.24 kcal/mol
USER    
USER    
USER  
USER    DPF = ligand_dock.biased.dpf
USER    NEWDPF move	ligand.dum.pdbqt
USER    NEWDPF about	0.108000 0.248000 -0.022000
USER    NEWDPF tran0	35.828585 12.188220 121.814758
USER    NEWDPF axisangle0	0.204607 0.483470 -0.851112 83.235550
USER    NEWDPF quaternion0	0.135891 0.321101 -0.565273 0.747592
USER    NEWDPF dihe0	-180.00 -35.55 31.96 91.70 -106.97 -156.41 49.35 -74.14 
USER  
USER                              x       y       z    vdW   Elec        q     RMS 
ATOM      1  C   UNL     1      37.044  11.471 122.317 -0.58 -0.00    +0.000    127.111
ATOM      2  O   UNL     1      37.066   9.425 121.089 -2.56 -0.00    +0.000    127.111
ATOM      3  C   UNL     1      36.528  10.097 122.010 -0.62 -0.00    +0.000    127.111
ATOM      4  N   UNL     1      35.427   9.560 122.762 -0.60 -0.00    +0.000    127.111
ATOM      5  H   UNL     1      34.918  10.177 123.337 -0.33 -0.00    +0.000    127.111
ATOM      6  C   UNL     1      35.020   8.182 122.730 -0.61 -0.00    +0.000    127.111
ATOM      7  C   UNL     1      33.745   7.852 122.241 -0.62 -0.00    +0.000    127.111
ATOM      8  C   UNL     1      33.317   6.521 122.223 -0.57 -0.00    +0.000    127.111
ATOM      9  C   UNL     1      34.150   5.510 122.707 -0.33 -0.00    +0.000    127.111
ATOM     10  C   UNL     1      35.412   5.829 123.215 -0.62 -0.00    +0.000    127.111
ATOM     11  C   UNL     1      35.845   7.159 123.236 -0.65 -0.00    +0.000    127.111
ATOM     12  CM  UNL     1      34.581   6.842 122.726 +0.00 -0.00    +0.000    127.111
ATOM     13  C   UNL     1      36.307  12.056 123.527 -0.70 -0.00    +0.000    127.111
ATOM     14  C   UNL     1      35.914  13.531 123.332 -0.53 -0.00    +0.000    127.111
ATOM     15  C   UNL     1      36.998  14.525 123.797 -0.32 -0.00    +0.000    127.111
ATOM     16  C   UNL     1      36.977  15.830 122.983 -0.35 -0.00    +0.000    127.111
ATOM     17  C   UNL     1      37.965  15.802 121.809 -0.26 -0.00    +0.000    127.111
ATOM     18  C   UNL     1      38.126  14.419 121.250 -0.37 -0.00    +0.000    127.111
ATOM     19  N   UNL     1      37.180  13.902 120.312 -0.34 -0.00    +0.000    127.111
ATOM     20  O   UNL     1      37.329  12.659 119.800 -0.50 -0.00    +0.000    127.111
ATOM     21  O   UNL     1      39.120  13.721 121.589 -0.69 -0.00    +0.000    127.111
ATOM     22  H   UNL     1      36.413  14.455 120.037 -0.01 -0.00    +0.000    127.111
TER
ENDMDL
MODEL       17
USER    Run = 17
USER    Cluster Rank = 13
USER    Number of conformations in this cluster = 2
USER  
USER    RMSD from reference structure       = 124.391 A
USER  
USER    Estimated Free Energy of Binding    =   -9.68 kcal/mol  [=(1)+(2)+(3)-(4)]
USER    Estimated Inhibition Constant, Ki   =   80.51 nM (nanomolar)  [Temperature = 298.15 K]
USER    
USER    (1) Final Intermolecular Energy     =  -12.06 kcal/mol
USER        vdW + Hbond + desolv Energy     =  -12.06 kcal/mol
USER        Electrostatic Energy            =   +0.00 kcal/mol
USER    (2) Final Total Internal Energy     =   -0.88 kcal/mol
USER    (3) Torsional Free Energy           =   +2.39 kcal/mol
USER    (4) Unbound System's Energy  [=(2)] =   -0.88 kcal/mol
USER    
USER    
USER  
USER    DPF = ligand_dock.biased.dpf
USER    NEWDPF move	ligand.dum.pdbqt
USER    NEWDPF about	0.108000 0.248000 -0.022000
USER    NEWDPF tran0	38.377897 13.136487 118.716743
USER    NEWDPF axisangle0	-0.306432 -0.642996 -0.701895 -139.439365
USER    NEWDPF quaternion0	-0.287435 -0.603135 -0.658383 -0.346613
USER    NEWDPF dihe0	-74.12 177.15 -161.47 55.68 23.73 -92.34 77.81 -55.57 
USER  
USER                              x       y       z    vdW   Elec        q     RMS 
ATOM      1  C   UNL     1      37.422  12.944 117.579 -0.31 -0.00    +0.000    124.391
ATOM      2  O   UNL     1      38.557  12.704 115.494 -0.63 -0.00    +0.000    124.391
ATOM      3  C   UNL     1      38.375  13.413 116.520 -0.34 -0.00    +0.000    124.391
ATOM      4  N   UNL     1      39.072  14.659 116.684 -0.24 -0.00    +0.000    124.391
ATOM      5  H   UNL     1      39.047  15.087 117.570 -0.06 -0.00    +0.000    124.391
ATOM      6  C   UNL     1      39.801  15.322 115.638 -0.27 -0.00    +0.000    124.391
ATOM      7  C   UNL     1      39.187  15.522 114.391 -0.21 -0.00    +0.000    124.391
ATOM      8  C   UNL     1      39.883  16.142 113.349 -0.16 -0.00    +0.000    124.391
ATOM      9  C   UNL     1      41.205  16.554 113.538 -0.16 -0.00    +0.000    124.391
ATOM     10  C   UNL     1      41.833  16.341 114.768 -0.16 -0.00    +0.000    124.391
ATOM     11  C   UNL     1      41.141  15.720 115.812 -0.26 -0.00    +0.000    124.391
ATOM     12  CM  UNL     1      40.508  15.933 114.583 +0.00 -0.00    +0.000    124.391
ATOM     13  C   UNL     1      36.930  14.132 118.414 -0.37 -0.00    +0.000    124.391
ATOM     14  C   UNL     1      37.519  14.149 119.835 -0.35 -0.00    +0.000    124.391
ATOM     15  C   UNL     1      37.940  12.756 120.345 -0.47 -0.00    +0.000    124.391
ATOM     16  C   UNL     1      36.740  11.934 120.847 -0.40 -0.00    +0.000    124.391
ATOM     17  C   UNL     1      36.988  11.328 122.234 -0.58 -0.00    +0.000    124.391
ATOM     18  C   UNL     1      37.022   9.828 122.190 -0.59 -0.00    +0.000    124.391
ATOM     19  N   UNL     1      37.065   9.069 123.401 -0.59 -0.00    +0.000    124.391
ATOM     20  O   UNL     1      37.086   7.717 123.363 -2.65 -0.00    +0.000    124.391
ATOM     21  O   UNL     1      36.983   9.236 121.079 -2.69 -0.00    +0.000    124.391
ATOM     22  H   UNL     1      37.079   9.534 124.268 -0.56 -0.00    +0.000    124.391
TER
ENDMDL
MODEL       81
USER    Run = 81
USER    Cluster Rank = 14
USER    Number of conformations in this cluster = 1
USER  
USER    RMSD from reference structure       = 128.873 A
USER  
USER    Estimated Free Energy of Binding    =   -9.59 kcal/mol  [=(1)+(2)+(3)-(4)]
USER    Estimated Inhibition Constant, Ki   =   92.72 nM (nanomolar)  [Temperature = 298.15 K]
USER    
USER    (1) Final Intermolecular Energy     =  -11.98 kcal/mol
USER        vdW + Hbond + desolv Energy     =  -11.98 kcal/mol
USER        Electrostatic Energy            =   +0.00 kcal/mol
USER    (2) Final Total Internal Energy     =   -1.02 kcal/mol
USER    (3) Torsional Free Energy           =   +2.39 kcal/mol
USER    (4) Unbound System's Energy  [=(2)] =   -1.02 kcal/mol
USER    
USER    
USER  
USER    DPF = ligand_dock.biased.dpf
USER    NEWDPF move	ligand.dum.pdbqt
USER    NEWDPF about	0.108000 0.248000 -0.022000
USER    NEWDPF tran0	35.338307 15.180064 122.156417
USER    NEWDPF axisangle0	-0.202910 0.639256 -0.741741 -128.192270
USER    NEWDPF quaternion0	-0.182524 0.575029 -0.667217 -0.436862
USER    NEWDPF dihe0	-165.35 -161.42 -93.14 80.37 161.98 126.35 177.98 -2.70 
USER  
USER                              x       y       z    vdW   Elec        q     RMS 
ATOM      1  C   UNL     1      34.772  15.537 123.496 -0.50 -0.00    +0.000    128.873
ATOM      2  O   UNL     1      35.841  17.073 124.977 -0.33 -0.00    +0.000    128.873
ATOM      3  C   UNL     1      35.857  16.509 123.849 -0.39 -0.00    +0.000    128.873
ATOM      4  N   UNL     1      36.900  16.794 122.902 -0.23 -0.00    +0.000    128.873
ATOM      5  H   UNL     1      36.777  16.483 121.976 +0.00 -0.00    +0.000    128.873
ATOM      6  C   UNL     1      38.110  17.500 123.219 -0.18 -0.00    +0.000    128.873
ATOM      7  C   UNL     1      39.346  16.848 123.073 -0.22 -0.00    +0.000    128.873
ATOM      8  C   UNL     1      40.536  17.505 123.399 -0.25 -0.00    +0.000    128.873
ATOM      9  C   UNL     1      40.503  18.813 123.887 -0.16 -0.00    +0.000    128.873
ATOM     10  C   UNL     1      39.279  19.465 124.056 -0.09 -0.00    +0.000    128.873
ATOM     11  C   UNL     1      38.085  18.811 123.732 -0.12 -0.00    +0.000    128.873
ATOM     12  CM  UNL     1      39.310  18.157 123.561 +0.00 -0.00    +0.000    128.873
ATOM     13  C   UNL     1      35.300  14.100 123.575 -0.40 -0.00    +0.000    128.873
ATOM     14  C   UNL     1      36.823  14.034 123.791 -0.41 -0.00    +0.000    128.873
ATOM     15  C   UNL     1      37.419  12.632 123.548 -0.54 -0.00    +0.000    128.873
ATOM     16  C   UNL     1      37.147  12.125 122.121 -0.56 -0.00    +0.000    128.873
ATOM     17  C   UNL     1      36.066  11.036 122.085 -0.59 -0.00    +0.000    128.873
ATOM     18  C   UNL     1      36.660   9.659 122.142 -0.69 -0.00    +0.000    128.873
ATOM     19  N   UNL     1      36.745   8.958 123.385 -0.59 -0.00    +0.000    128.873
ATOM     20  O   UNL     1      37.271   7.713 123.436 -2.63 -0.00    +0.000    128.873
ATOM     21  O   UNL     1      37.059   9.108 121.081 -2.72 -0.00    +0.000    128.873
ATOM     22  H   UNL     1      36.417   9.384 124.209 -0.39 -0.00    +0.000    128.873
TER
ENDMDL
MODEL       11
USER    Run = 11
USER    Cluster Rank = 15
USER    Number of conformations in this cluster = 1
USER  
USER    RMSD from reference structure       = 126.979 A
USER  
USER    Estimated Free Energy of Binding    =   -9.57 kcal/mol  [=(1)+(2)+(3)-(4)]
USER    Estimated Inhibition Constant, Ki   =   97.01 nM (nanomolar)  [Temperature = 298.15 K]
USER    
USER    (1) Final Intermolecular Energy     =  -11.95 kcal/mol
USER        vdW + Hbond + desolv Energy     =  -11.95 kcal/mol
USER        Electrostatic Energy            =   +0.00 kcal/mol
USER    (2) Final Total Internal Energy     =   -0.92 kcal/mol
USER    (3) Torsional Free Energy           =   +2.39 kcal/mol
USER    (4) Unbound System's Energy  [=(2)] =   -0.92 kcal/mol
USER    
USER    
USER  
USER    DPF = ligand_dock.biased.dpf
USER    NEWDPF move	ligand.dum.pdbqt
USER    NEWDPF about	0.108000 0.248000 -0.022000
USER    NEWDPF tran0	35.040094 10.395060 123.603104
USER    NEWDPF axisangle0	-0.429539 0.735738 0.523628 147.058553
USER    NEWDPF quaternion0	-0.411913 0.705547 0.502140 0.283525
USER    NEWDPF dihe0	-170.97 -155.88 -8.60 -170.91 -110.75 -175.06 23.89 -163.75 
USER  
USER                              x       y       z    vdW   Elec        q     RMS 
ATOM      1  C   UNL     1      35.849  10.314 122.345 -0.66 -0.00    +0.000    126.979
ATOM      2  O   UNL     1      36.267  12.381 123.462 -0.68 -0.00    +0.000    126.979
ATOM      3  C   UNL     1      36.288  11.747 122.372 -0.62 -0.00    +0.000    126.979
ATOM      4  N   UNL     1      36.725  12.386 121.162 -0.47 -0.00    +0.000    126.979
ATOM      5  H   UNL     1      36.553  11.924 120.310 -0.13 -0.00    +0.000    126.979
ATOM      6  C   UNL     1      37.399  13.655 121.114 -0.38 -0.00    +0.000    126.979
ATOM      7  C   UNL     1      37.362  14.410 119.930 -0.28 -0.00    +0.000    126.979
ATOM      8  C   UNL     1      38.030  15.635 119.850 -0.17 -0.00    +0.000    126.979
ATOM      9  C   UNL     1      38.755  16.111 120.945 -0.16 -0.00    +0.000    126.979
ATOM     10  C   UNL     1      38.816  15.359 122.121 -0.30 -0.00    +0.000    126.979
ATOM     11  C   UNL     1      38.150  14.132 122.206 -0.41 -0.00    +0.000    126.979
ATOM     12  CM  UNL     1      38.086  14.883 121.027 +0.00 -0.00    +0.000    126.979
ATOM     13  C   UNL     1      34.368  10.220 121.961 -0.28 -0.00    +0.000    126.979
ATOM     14  C   UNL     1      33.740   8.864 122.328 -0.64 -0.00    +0.000    126.979
ATOM     15  C   UNL     1      33.448   7.970 121.105 -0.61 -0.00    +0.000    126.979
ATOM     16  C   UNL     1      33.638   6.475 121.420 -0.45 -0.00    +0.000    126.979
ATOM     17  C   UNL     1      34.002   6.232 122.891 -0.77 -0.00    +0.000    126.979
ATOM     18  C   UNL     1      35.484   6.291 123.116 -0.76 -0.00    +0.000    126.979
ATOM     19  N   UNL     1      36.113   7.523 123.475 -0.69 -0.00    +0.000    126.979
ATOM     20  O   UNL     1      37.448   7.576 123.688 -2.34 -0.00    +0.000    126.979
ATOM     21  O   UNL     1      36.172   5.240 123.016 -1.12 -0.00    +0.000    126.979
ATOM     22  H   UNL     1      35.570   8.339 123.569 -0.03 -0.00    +0.000    126.979
TER
ENDMDL
MODEL       90
USER    Run = 90
USER    Cluster Rank = 16
USER    Number of conformations in this cluster = 2
USER  
USER    RMSD from reference structure       = 125.925 A
USER  
USER    Estimated Free Energy of Binding    =   -9.52 kcal/mol  [=(1)+(2)+(3)-(4)]
USER    Estimated Inhibition Constant, Ki   =  105.42 nM (nanomolar)  [Temperature = 298.15 K]
USER    
USER    (1) Final Intermolecular Energy     =  -11.90 kcal/mol
USER        vdW + Hbond + desolv Energy     =  -11.90 kcal/mol
USER        Electrostatic Energy            =   +0.00 kcal/mol
USER    (2) Final Total Internal Energy     =   -0.83 kcal/mol
USER    (3) Torsional Free Energy           =   +2.39 kcal/mol
USER    (4) Unbound System's Energy  [=(2)] =   -0.83 kcal/mol
USER    
USER    
USER  
USER    DPF = ligand_dock.biased.dpf
USER    NEWDPF move	ligand.dum.pdbqt
USER    NEWDPF about	0.108000 0.248000 -0.022000
USER    NEWDPF tran0	36.014372 14.531910 121.716026
USER    NEWDPF axisangle0	-0.536272 0.134019 -0.833337 150.114014
USER    NEWDPF quaternion0	-0.518137 0.129487 -0.805156 0.257858
USER    NEWDPF dihe0	-157.10 -171.09 -180.00 105.46 1.41 33.59 102.90 179.89 
USER  
USER                              x       y       z    vdW   Elec        q     RMS 
ATOM      1  C   UNL     1      36.698  15.772 121.228 -0.21 -0.00    +0.000    125.925
ATOM      2  O   UNL     1      37.092  13.907 119.792 -0.37 -0.00    +0.000    125.925
ATOM      3  C   UNL     1      37.355  15.112 120.053 -0.26 -0.00    +0.000    125.925
ATOM      4  N   UNL     1      38.279  15.853 119.239 -0.14 -0.00    +0.000    125.925
ATOM      5  H   UNL     1      38.599  16.720 119.579 +0.00 -0.00    +0.000    125.925
ATOM      6  C   UNL     1      38.766  15.412 117.961 -0.15 -0.00    +0.000    125.925
ATOM      7  C   UNL     1      37.940  14.620 117.146 -0.24 -0.00    +0.000    125.925
ATOM      8  C   UNL     1      38.399  14.158 115.909 -0.34 -0.00    +0.000    125.925
ATOM      9  C   UNL     1      39.692  14.469 115.481 -0.35 -0.00    +0.000    125.925
ATOM     10  C   UNL     1      40.530  15.239 116.292 -0.28 -0.00    +0.000    125.925
ATOM     11  C   UNL     1      40.075  15.703 117.531 -0.13 -0.00    +0.000    125.925
ATOM     12  CM  UNL     1      39.234  14.933 116.720 +0.00 -0.00    +0.000    125.925
ATOM     13  C   UNL     1      37.380  15.339 122.530 -0.36 -0.00    +0.000    125.925
ATOM     14  C   UNL     1      36.858  13.991 123.059 -0.52 -0.00    +0.000    125.925
ATOM     15  C   UNL     1      37.788  12.803 122.741 -0.40 -0.00    +0.000    125.925
ATOM     16  C   UNL     1      37.274  11.964 121.557 -0.51 -0.00    +0.000    125.925
ATOM     17  C   UNL     1      36.173  10.981 121.974 -0.58 -0.00    +0.000    125.925
ATOM     18  C   UNL     1      36.689   9.577 122.080 -0.69 -0.00    +0.000    125.925
ATOM     19  N   UNL     1      36.910   8.981 123.360 -0.61 -0.00    +0.000    125.925
ATOM     20  O   UNL     1      37.367   7.712 123.457 -2.62 -0.00    +0.000    125.925
ATOM     21  O   UNL     1      36.902   8.910 121.032 -2.67 -0.00    +0.000    125.925
ATOM     22  H   UNL     1      36.728   9.499 124.177 -0.49 -0.00    +0.000    125.925
TER
ENDMDL
MODEL       19
USER    Run = 19
USER    Cluster Rank = 17
USER    Number of conformations in this cluster = 1
USER  
USER    RMSD from reference structure       = 126.974 A
USER  
USER    Estimated Free Energy of Binding    =   -9.40 kcal/mol  [=(1)+(2)+(3)-(4)]
USER    Estimated Inhibition Constant, Ki   =  129.39 nM (nanomolar)  [Temperature = 298.15 K]
USER    
USER    (1) Final Intermolecular Energy     =  -11.78 kcal/mol
USER        vdW + Hbond + desolv Energy     =  -11.78 kcal/mol
USER        Electrostatic Energy            =   +0.00 kcal/mol
USER    (2) Final Total Internal Energy     =   -1.14 kcal/mol
USER    (3) Torsional Free Energy           =   +2.39 kcal/mol
USER    (4) Unbound System's Energy  [=(2)] =   -1.14 kcal/mol
USER    
USER    
USER  
USER    DPF = ligand_dock.biased.dpf
USER    NEWDPF move	ligand.dum.pdbqt
USER    NEWDPF about	0.108000 0.248000 -0.022000
USER    NEWDPF tran0	39.093356 15.418150 121.999667
USER    NEWDPF axisangle0	0.835015 -0.491538 -0.247266 -75.595812
USER    NEWDPF quaternion0	0.511762 -0.301253 -0.151544 -0.790177
USER    NEWDPF dihe0	-151.08 -174.71 -98.82 -3.39 102.87 66.98 119.47 23.18 
USER  
USER                              x       y       z    vdW   Elec        q     RMS 
ATOM      1  C   UNL     1      39.121  15.170 120.523 -0.26 -0.00    +0.000    126.974
ATOM      2  O   UNL     1      37.099  15.396 119.276 -0.22 -0.00    +0.000    126.974
ATOM      3  C   UNL     1      37.786  15.797 120.254 -0.20 -0.00    +0.000    126.974
ATOM      4  N   UNL     1      37.302  16.847 121.108 -0.14 -0.00    +0.000    126.974
ATOM      5  H   UNL     1      37.938  17.256 121.739 +0.01 -0.00    +0.000    126.974
ATOM      6  C   UNL     1      35.951  17.338 121.103 -0.19 -0.00    +0.000    126.974
ATOM      7  C   UNL     1      35.132  17.109 122.220 -0.29 -0.00    +0.000    126.974
ATOM      8  C   UNL     1      33.806  17.554 122.229 -0.26 -0.00    +0.000    126.974
ATOM      9  C   UNL     1      33.283  18.218 121.117 -0.26 -0.00    +0.000    126.974
ATOM     10  C   UNL     1      34.082  18.432 119.992 -0.27 -0.00    +0.000    126.974
ATOM     11  C   UNL     1      35.409  17.988 119.978 -0.19 -0.00    +0.000    126.974
ATOM     12  CM  UNL     1      34.610  17.773 121.106 +0.00 -0.00    +0.000    126.974
ATOM     13  C   UNL     1      38.942  13.820 121.225 -0.33 -0.00    +0.000    126.974
ATOM     14  C   UNL     1      38.361  13.955 122.643 -0.45 -0.00    +0.000    126.974
ATOM     15  C   UNL     1      37.219  12.961 122.938 -0.59 -0.00    +0.000    126.974
ATOM     16  C   UNL     1      36.909  12.057 121.732 -0.56 -0.00    +0.000    126.974
ATOM     17  C   UNL     1      35.945  10.919 122.088 -0.57 -0.00    +0.000    126.974
ATOM     18  C   UNL     1      36.645   9.593 122.149 -0.69 -0.00    +0.000    126.974
ATOM     19  N   UNL     1      36.814   8.920 123.399 -0.60 -0.00    +0.000    126.974
ATOM     20  O   UNL     1      37.437   7.720 123.454 -2.60 -0.00    +0.000    126.974
ATOM     21  O   UNL     1      37.062   9.058 121.087 -2.72 -0.00    +0.000    126.974
ATOM     22  H   UNL     1      36.473   9.332 124.225 -0.39 -0.00    +0.000    126.974
TER
ENDMDL
MODEL       59
USER    Run = 59
USER    Cluster Rank = 18
USER    Number of conformations in this cluster = 1
USER  
USER    RMSD from reference structure       = 129.066 A
USER  
USER    Estimated Free Energy of Binding    =   -9.20 kcal/mol  [=(1)+(2)+(3)-(4)]
USER    Estimated Inhibition Constant, Ki   =  179.90 nM (nanomolar)  [Temperature = 298.15 K]
USER    
USER    (1) Final Intermolecular Energy     =  -11.59 kcal/mol
USER        vdW + Hbond + desolv Energy     =  -11.59 kcal/mol
USER        Electrostatic Energy            =   +0.00 kcal/mol
USER    (2) Final Total Internal Energy     =   -0.81 kcal/mol
USER    (3) Torsional Free Energy           =   +2.39 kcal/mol
USER    (4) Unbound System's Energy  [=(2)] =   -0.81 kcal/mol
USER    
USER    
USER  
USER    DPF = ligand_dock.biased.dpf
USER    NEWDPF move	ligand.dum.pdbqt
USER    NEWDPF about	0.108000 0.248000 -0.022000
USER    NEWDPF tran0	37.251439 15.343359 124.927033
USER    NEWDPF axisangle0	-0.454890 0.641897 0.617286 124.677354
USER    NEWDPF quaternion0	-0.402900 0.568533 0.546735 0.464244
USER    NEWDPF dihe0	-178.73 -172.68 -177.97 125.43 -3.50 -75.35 10.15 -33.59 
USER  
USER                              x       y       z    vdW   Elec        q     RMS 
ATOM      1  C   UNL     1      37.524  15.470 123.460 -0.35 -0.00    +0.000    129.066
ATOM      2  O   UNL     1      38.293  17.561 122.604 -0.15 -0.00    +0.000    129.066
ATOM      3  C   UNL     1      37.583  16.968 123.460 -0.26 -0.00    +0.000    129.066
ATOM      4  N   UNL     1      36.835  17.714 124.435 -0.22 -0.00    +0.000    129.066
ATOM      5  H   UNL     1      36.447  17.220 125.194 -0.02 -0.00    +0.000    129.066
ATOM      6  C   UNL     1      36.615  19.133 124.374 -0.16 -0.00    +0.000    129.066
ATOM      7  C   UNL     1      36.486  19.756 123.122 -0.15 -0.00    +0.000    129.066
ATOM      8  C   UNL     1      36.296  21.139 123.035 -0.11 -0.00    +0.000    129.066
ATOM      9  C   UNL     1      36.249  21.914 124.196 -0.13 -0.00    +0.000    129.066
ATOM     10  C   UNL     1      36.397  21.307 125.446 -0.09 -0.00    +0.000    129.066
ATOM     11  C   UNL     1      36.588  19.925 125.538 -0.12 -0.00    +0.000    129.066
ATOM     12  CM  UNL     1      36.439  20.529 124.285 +0.00 -0.00    +0.000    129.066
ATOM     13  C   UNL     1      36.077  14.995 123.632 -0.49 -0.00    +0.000    129.066
ATOM     14  C   UNL     1      35.958  13.465 123.738 -0.59 -0.00    +0.000    129.066
ATOM     15  C   UNL     1      37.278  12.722 123.448 -0.60 -0.00    +0.000    129.066
ATOM     16  C   UNL     1      37.258  12.016 122.081 -0.51 -0.00    +0.000    129.066
ATOM     17  C   UNL     1      36.150  10.959 121.987 -0.58 -0.00    +0.000    129.066
ATOM     18  C   UNL     1      36.697   9.566 122.085 -0.69 -0.00    +0.000    129.066
ATOM     19  N   UNL     1      36.954   8.977 123.362 -0.61 -0.00    +0.000    129.066
ATOM     20  O   UNL     1      37.439   7.717 123.452 -2.60 -0.00    +0.000    129.066
ATOM     21  O   UNL     1      36.905   8.902 121.034 -2.67 -0.00    +0.000    129.066
ATOM     22  H   UNL     1      36.775   9.492 124.182 -0.50 -0.00    +0.000    129.066
TER
ENDMDL
MODEL       61
USER    Run = 61
USER    Cluster Rank = 19
USER    Number of conformations in this cluster = 1
USER  
USER    RMSD from reference structure       = 127.508 A
USER  
USER    Estimated Free Energy of Binding    =   -9.19 kcal/mol  [=(1)+(2)+(3)-(4)]
USER    Estimated Inhibition Constant, Ki   =  183.39 nM (nanomolar)  [Temperature = 298.15 K]
USER    
USER    (1) Final Intermolecular Energy     =  -11.58 kcal/mol
USER        vdW + Hbond + desolv Energy     =  -11.58 kcal/mol
USER        Electrostatic Energy            =   +0.00 kcal/mol
USER    (2) Final Total Internal Energy     =   -0.96 kcal/mol
USER    (3) Torsional Free Energy           =   +2.39 kcal/mol
USER    (4) Unbound System's Energy  [=(2)] =   -0.96 kcal/mol
USER    
USER    
USER  
USER    DPF = ligand_dock.biased.dpf
USER    NEWDPF move	ligand.dum.pdbqt
USER    NEWDPF about	0.108000 0.248000 -0.022000
USER    NEWDPF tran0	37.843717 11.735156 123.111238
USER    NEWDPF axisangle0	-0.797794 -0.575239 -0.180624 153.929338
USER    NEWDPF quaternion0	-0.777236 -0.560416 -0.175969 0.225552
USER    NEWDPF dihe0	-139.63 -144.72 179.61 174.00 -96.65 167.33 8.48 114.68 
USER  
USER                              x       y       z    vdW   Elec        q     RMS 
ATOM      1  C   UNL     1      36.462  11.864 122.547 -0.64 -0.00    +0.000    127.508
ATOM      2  O   UNL     1      37.056   9.779 121.551 -1.93 -0.00    +0.000    127.508
ATOM      3  C   UNL     1      36.270  10.395 122.320 -0.67 -0.00    +0.000    127.508
ATOM      4  N   UNL     1      35.193   9.704 122.974 -0.59 -0.00    +0.000    127.508
ATOM      5  H   UNL     1      34.497  10.245 123.412 -0.41 -0.00    +0.000    127.508
ATOM      6  C   UNL     1      35.067   8.273 123.034 -0.61 -0.00    +0.000    127.508
ATOM      7  C   UNL     1      36.226   7.480 123.045 -0.69 -0.00    +0.000    127.508
ATOM      8  C   UNL     1      36.130   6.085 123.077 -0.59 -0.00    +0.000    127.508
ATOM      9  C   UNL     1      34.877   5.470 123.083 -0.52 -0.00    +0.000    127.508
ATOM     10  C   UNL     1      33.717   6.248 123.050 -0.68 -0.00    +0.000    127.508
ATOM     11  C   UNL     1      33.808   7.644 123.017 -0.62 -0.00    +0.000    127.508
ATOM     12  CM  UNL     1      34.971   6.867 123.051 +0.00 -0.00    +0.000    127.508
ATOM     13  C   UNL     1      37.447  12.436 121.520 -0.51 -0.00    +0.000    127.508
ATOM     14  C   UNL     1      37.734  13.932 121.735 -0.44 -0.00    +0.000    127.508
ATOM     15  C   UNL     1      37.481  14.794 120.481 -0.30 -0.00    +0.000    127.508
ATOM     16  C   UNL     1      37.293  16.282 120.828 -0.19 -0.00    +0.000    127.508
ATOM     17  C   UNL     1      37.104  16.510 122.333 -0.24 -0.00    +0.000    127.508
ATOM     18  C   UNL     1      35.718  16.151 122.782 -0.35 -0.00    +0.000    127.508
ATOM     19  N   UNL     1      35.519  15.178 123.809 -0.50 -0.00    +0.000    127.508
ATOM     20  O   UNL     1      34.270  14.860 124.221 -0.66 -0.00    +0.000    127.508
ATOM     21  O   UNL     1      34.725  16.734 122.268 -0.39 -0.00    +0.000    127.508
ATOM     22  H   UNL     1      36.297  14.736 124.221 -0.04 -0.00    +0.000    127.508
TER
ENDMDL
MODEL       31
USER    Run = 31
USER    Cluster Rank = 20
USER    Number of conformations in this cluster = 1
USER  
USER    RMSD from reference structure       = 126.173 A
USER  
USER    Estimated Free Energy of Binding    =   -8.83 kcal/mol  [=(1)+(2)+(3)-(4)]
USER    Estimated Inhibition Constant, Ki   =  338.52 nM (nanomolar)  [Temperature = 298.15 K]
USER    
USER    (1) Final Intermolecular Energy     =  -11.21 kcal/mol
USER        vdW + Hbond + desolv Energy     =  -11.21 kcal/mol
USER        Electrostatic Energy            =   +0.00 kcal/mol
USER    (2) Final Total Internal Energy     =   -0.89 kcal/mol
USER    (3) Torsional Free Energy           =   +2.39 kcal/mol
USER    (4) Unbound System's Energy  [=(2)] =   -0.89 kcal/mol
USER    
USER    
USER  
USER    DPF = ligand_dock.biased.dpf
USER    NEWDPF move	ligand.dum.pdbqt
USER    NEWDPF about	0.108000 0.248000 -0.022000
USER    NEWDPF tran0	36.720615 15.213879 123.345404
USER    NEWDPF axisangle0	-0.541253 0.777118 -0.321144 99.867483
USER    NEWDPF quaternion0	-0.414221 0.594729 -0.245772 0.643673
USER    NEWDPF dihe0	-85.59 -178.36 -130.49 53.76 -36.36 99.19 -156.00 -160.36 
USER  
USER                              x       y       z    vdW   Elec        q     RMS 
ATOM      1  C   UNL     1      37.984  14.726 122.706 -0.43 -0.00    +0.000    126.173
ATOM      2  O   UNL     1      36.517  15.580 121.029 -0.23 -0.00    +0.000    126.173
ATOM      3  C   UNL     1      37.460  14.789 121.303 -0.33 -0.00    +0.000    126.173
ATOM      4  N   UNL     1      38.030  13.949 120.286 -0.33 -0.00    +0.000    126.173
ATOM      5  H   UNL     1      38.628  13.220 120.573 -0.08 -0.00    +0.000    126.173
ATOM      6  C   UNL     1      37.788  14.103 118.878 -0.28 -0.00    +0.000    126.173
ATOM      7  C   UNL     1      38.503  15.075 118.159 -0.15 -0.00    +0.000    126.173
ATOM      8  C   UNL     1      38.267  15.262 116.793 -0.18 -0.00    +0.000    126.173
ATOM      9  C   UNL     1      37.305  14.491 116.136 -0.27 -0.00    +0.000    126.173
ATOM     10  C   UNL     1      36.573  13.536 116.846 -0.31 -0.00    +0.000    126.173
ATOM     11  C   UNL     1      36.805  13.346 118.212 -0.36 -0.00    +0.000    126.173
ATOM     12  CM  UNL     1      37.540  14.302 117.504 +0.00 -0.00    +0.000    126.173
ATOM     13  C   UNL     1      37.351  13.550 123.457 -0.52 -0.00    +0.000    126.173
ATOM     14  C   UNL     1      36.718  12.509 122.516 -0.59 -0.00    +0.000    126.173
ATOM     15  C   UNL     1      36.381  11.175 123.211 -0.70 -0.00    +0.000    126.173
ATOM     16  C   UNL     1      36.709   9.959 122.326 -0.68 -0.00    +0.000    126.173
ATOM     17  C   UNL     1      35.558   8.946 122.276 -0.67 -0.00    +0.000    126.173
ATOM     18  C   UNL     1      35.903   7.674 122.991 -0.77 -0.00    +0.000    126.173
ATOM     19  N   UNL     1      34.937   6.628 123.117 -0.70 -0.00    +0.000    126.173
ATOM     20  O   UNL     1      35.250   5.476 123.754 -1.06 -0.00    +0.000    126.173
ATOM     21  O   UNL     1      37.063   7.516 123.458 -2.55 -0.00    +0.000    126.173
ATOM     22  H   UNL     1      34.037   6.747 122.736 -0.02 -0.00    +0.000    126.173
TER
ENDMDL


AVSFLD: # AVS field file
AVSFLD: #
AVSFLD: # Created by AutoDock
AVSFLD: #
AVSFLD: ndim=2           # number of dimensions in the field
AVSFLD: nspace=1         # number of physical coordinates
AVSFLD: veclen=7         # vector size
AVSFLD: dim1=22          # atoms
AVSFLD: dim2=20          # conformations
AVSFLD: data=Real       # data type (byte,integer,Real,double)
AVSFLD: field=uniform    # field coordinate layout
AVSFLD: label= x y z vdW Elec q RMS
AVSFLD: variable 1 file = ligand_dock.biased.dlg.pdb filetype = ascii offset = 5 stride = 12
AVSFLD: variable 2 file = ligand_dock.biased.dlg.pdb filetype = ascii offset = 6 stride = 12
AVSFLD: variable 3 file = ligand_dock.biased.dlg.pdb filetype = ascii offset = 7 stride = 12
AVSFLD: variable 4 file = ligand_dock.biased.dlg.pdb filetype = ascii offset = 8 stride = 12
AVSFLD: variable 5 file = ligand_dock.biased.dlg.pdb filetype = ascii offset = 9 stride = 12
AVSFLD: variable 6 file = ligand_dock.biased.dlg.pdb filetype = ascii offset = 10 stride = 12
AVSFLD: variable 7 file = ligand_dock.biased.dlg.pdb filetype = ascii offset = 11 stride = 12
AVSFLD: # end of file

>>> Closing the docking parameter file (DPF)...
This docking finished at:			6:18 15" p.m., 11/08/2024


________________________________________________________________________________

autodock4: Successful Completion on "ThinkStation-P620"

Real= 11m 06.54s,  CPU= 11m 06.31s,  System= 0.19s
________________________________________________________________________________

