REMARK  Name = 
REMARK  7 active torsions:
REMARK  status: ('A' for Active; 'I' for Inactive)
REMARK    1  A    between atoms: C_3  and  C_4
REMARK    2  A    between atoms: C_4  and  C_5
REMARK    3  A    between atoms: C_5  and  C_6
REMARK    4  A    between atoms: C_6  and  C_7
REMARK    5  A    between atoms: C_7  and  C_8
REMARK    6  A    between atoms: C_8  and  C_9
REMARK    7  A    between atoms: C_9  and  C_10
REMARK                            x       y       z     vdW  Elec       q    Type
REMARK                         _______ _______ _______ _____ _____    ______ ____
ROOT
ATOM      1  C   UNL     1       0.479  -1.472   0.494  0.00  0.00    +0.000 C 
ENDROOT
BRANCH   1   2
ATOM      2  C   UNL     1       1.140  -0.755  -0.692  0.00  0.00    +0.000 C 
BRANCH   2   3
ATOM      3  C   UNL     1       2.667  -0.834  -0.599  0.00  0.00    +0.000 C 
BRANCH   3   6
ATOM      4  O   UNL     1       4.047   1.960  -2.741  0.00  0.00    +0.000 OA
ATOM      5  N   UNL     1       3.490   1.303  -1.697  0.00  0.00    +0.000 N 
ATOM      6  C   UNL     1       3.301  -0.113  -1.749  0.00  0.00    +0.000 C 
ATOM      7  O   UNL     1       3.633  -0.754  -2.782  0.00  0.00    +0.000 OA
ATOM      8  H   UNL     1       3.214   1.803  -0.896  0.00  0.00    +0.000 HD
ENDBRANCH   3   6
ENDBRANCH   2   3
ENDBRANCH   1   2
BRANCH   1   9
ATOM      9  C   UNL     1      -1.051  -1.579   0.355  0.00  0.00    +0.000 C 
BRANCH   9  10
ATOM     10  C   UNL     1      -1.794  -0.233   0.287  0.00  0.00    +0.000 C 
BRANCH  10  11
ATOM     11  C   UNL     1      -1.608   0.617   1.551  0.00  0.00    +0.000 C 
BRANCH  11  12
ATOM     12  C   UNL     1      -2.495   1.825   1.504  0.00  0.00    +0.000 C 
ATOM     13  N   UNL     1      -3.850   1.741   1.951  0.00  0.00    +0.000 N 
ATOM     14  O   UNL     1      -4.659   2.825   1.895  0.00  0.00    +0.000 OA
ATOM     15  O   UNL     1      -2.054   2.906   1.031  0.00  0.00    +0.000 OA
ATOM     16  H   UNL     1      -4.197   0.890   2.302  0.00  0.00    +0.000 HD
ENDBRANCH  11  12
ENDBRANCH  10  11
ENDBRANCH   9  10
ENDBRANCH   1   9
TORSDOF 7
