          AutoDock 4.2 Release 4.2.6   
         (C) 1989-2012 The Scripps Research Institute
        AutoDock comes with ABSOLUTELY NO WARRANTY.
        AutoDock is free software, and you are welcome
        to redistribute it under certain conditions;
        for details type 'autodock4 -C'

                     main.cc  $Revision: 1.213 $

                   Compiled on Feb 20 2022 at 09:48:33


This file was created at:			6:07 09" p.m., 11/08/2024
                   on host:		"ThinkStation-P620"
Current Working Directory = "/home/antonio/Documenti/buccheri/IDROSSAMICO HDAC/HDAC 8/DP (copia)/Ligand_8"

      ________________________________________________________________

                   SETTING UP DEFAULT PARAMETER LIBRARY
      ________________________________________________________________


Random number generator was seeded with values 355278, 1731085629.
Docking parameter file (DPF) used for this docking:		ligand_dock.biased.dpf
DPF> autodock_parameter_version 4.2       # used by autodock to validate parameter set

	Autodock parameter version 4.2.
DPF> outlev 1                             # diagnostic output level

Output Level = 1  ADT-COMPATIBLE OUTPUT DURING DOCKING.
DPF> intelec                              # calculate internal electrostatics

Electrostatic energies will be calculated for all non-bonds between moving atoms.
DPF> seed pid time                        # seeds for random generator

Random number generator was seeded with values 355278, 1731085629.
DPF> ligand_types C HD OA N               # atoms types in ligand

DPF> fld receptor.maps.fld                # grid_data_file

Opening Grid Map Dimensions file:		receptor.maps.fld
Grid Point Spacing =				0.375 Angstroms

Even Number of User-specified Grid Points =	70 x-points
						70 y-points
						70 z-points

Coordinates of Central Grid Point of Maps =	(36.691, 12.592, 124.207)
Macromolecule file used to create Grid Maps =	receptor.pdbqt
Grid Parameter file used to create Grid Maps =	receptor.gpf
Minimum coordinates in grid = (23.566, -0.533, 111.082)
Maximum coordinates in grid = (49.816, 25.717, 137.332)

DPF> map receptor.C.map                   # atom-specific affinity map

DPF> map receptor.HD.map                  # atom-specific affinity map

DPF> map receptor.OA.biased.map

DPF> map receptor.N.map                   # atom-specific affinity map

DPF> elecmap receptor.e.map               # electrostatics map

DPF> desolvmap receptor.d.map             # desolvation map

DPF> move ligand.pdbqt                    # small molecule

1,4-interactions will be _ignored_ in the non-bonded internal energy calculation.

Ligand PDBQT file = "ligand.pdbqt"

INPUT LIGAND PDBQT FILE:
________________________

INPUT-LIGAND-PDBQT: REMARK  Name = 
INPUT-LIGAND-PDBQT: REMARK  7 active torsions:
INPUT-LIGAND-PDBQT: REMARK  status: ('A' for Active; 'I' for Inactive)
INPUT-LIGAND-PDBQT: REMARK    1  A    between atoms: C_3  and  C_4
INPUT-LIGAND-PDBQT: REMARK    2  A    between atoms: C_4  and  C_5
INPUT-LIGAND-PDBQT: REMARK    3  A    between atoms: C_5  and  C_6
INPUT-LIGAND-PDBQT: REMARK    4  A    between atoms: C_6  and  C_7
INPUT-LIGAND-PDBQT: REMARK    5  A    between atoms: C_7  and  C_8
INPUT-LIGAND-PDBQT: REMARK    6  A    between atoms: C_8  and  C_9
INPUT-LIGAND-PDBQT: REMARK    7  A    between atoms: C_9  and  C_10
INPUT-LIGAND-PDBQT: REMARK                            x       y       z     vdW  Elec       q    Type
INPUT-LIGAND-PDBQT: REMARK                         _______ _______ _______ _____ _____    ______ ____
INPUT-LIGAND-PDBQT: ROOT
INPUT-LIGAND-PDBQT: ATOM      1  C   UNL     1       0.479  -1.472   0.494  0.00  0.00    +0.000 C 
INPUT-LIGAND-PDBQT: ENDROOT
INPUT-LIGAND-PDBQT: BRANCH   1   2
INPUT-LIGAND-PDBQT: ATOM      2  C   UNL     1       1.140  -0.755  -0.692  0.00  0.00    +0.000 C 
INPUT-LIGAND-PDBQT: BRANCH   2   3
INPUT-LIGAND-PDBQT: ATOM      3  C   UNL     1       2.667  -0.834  -0.599  0.00  0.00    +0.000 C 
INPUT-LIGAND-PDBQT: BRANCH   3   6
INPUT-LIGAND-PDBQT: ATOM      4  O   UNL     1       4.047   1.960  -2.741  0.00  0.00    +0.000 OA
INPUT-LIGAND-PDBQT: ATOM      5  N   UNL     1       3.490   1.303  -1.697  0.00  0.00    +0.000 N 
INPUT-LIGAND-PDBQT: ATOM      6  C   UNL     1       3.301  -0.113  -1.749  0.00  0.00    +0.000 C 
INPUT-LIGAND-PDBQT: ATOM      7  O   UNL     1       3.633  -0.754  -2.782  0.00  0.00    +0.000 OA
INPUT-LIGAND-PDBQT: ATOM      8  H   UNL     1       3.214   1.803  -0.896  0.00  0.00    +0.000 HD
INPUT-LIGAND-PDBQT: ENDBRANCH   3   6
INPUT-LIGAND-PDBQT: ENDBRANCH   2   3
INPUT-LIGAND-PDBQT: ENDBRANCH   1   2
INPUT-LIGAND-PDBQT: BRANCH   1   9
INPUT-LIGAND-PDBQT: ATOM      9  C   UNL     1      -1.051  -1.579   0.355  0.00  0.00    +0.000 C 
INPUT-LIGAND-PDBQT: BRANCH   9  10
INPUT-LIGAND-PDBQT: ATOM     10  C   UNL     1      -1.794  -0.233   0.287  0.00  0.00    +0.000 C 
INPUT-LIGAND-PDBQT: BRANCH  10  11
INPUT-LIGAND-PDBQT: ATOM     11  C   UNL     1      -1.608   0.617   1.551  0.00  0.00    +0.000 C 
INPUT-LIGAND-PDBQT: BRANCH  11  12
INPUT-LIGAND-PDBQT: ATOM     12  C   UNL     1      -2.495   1.825   1.504  0.00  0.00    +0.000 C 
INPUT-LIGAND-PDBQT: ATOM     13  N   UNL     1      -3.850   1.741   1.951  0.00  0.00    +0.000 N 
INPUT-LIGAND-PDBQT: ATOM     14  O   UNL     1      -4.659   2.825   1.895  0.00  0.00    +0.000 OA
INPUT-LIGAND-PDBQT: ATOM     15  O   UNL     1      -2.054   2.906   1.031  0.00  0.00    +0.000 OA
INPUT-LIGAND-PDBQT: ATOM     16  H   UNL     1      -4.197   0.890   2.302  0.00  0.00    +0.000 HD
INPUT-LIGAND-PDBQT: ENDBRANCH  11  12
INPUT-LIGAND-PDBQT: ENDBRANCH  10  11
INPUT-LIGAND-PDBQT: ENDBRANCH   9  10
INPUT-LIGAND-PDBQT: ENDBRANCH   1   9
INPUT-LIGAND-PDBQT: TORSDOF 7
________________________________________________________________________________

Total charge on ligand                               =	+0.000 e
REMARK  Name = 
REMARK  7 active torsions:
REMARK  status: ('A' for Active; 'I' for Inactive)
REMARK    1  A    between atoms: C_3  and  C_4
REMARK    2  A    between atoms: C_4  and  C_5
REMARK    3  A    between atoms: C_5  and  C_6
REMARK    4  A    between atoms: C_6  and  C_7
REMARK    5  A    between atoms: C_7  and  C_8
REMARK    6  A    between atoms: C_8  and  C_9
REMARK    7  A    between atoms: C_9  and  C_10
REMARK                            x       y       z     vdW  Elec       q    Type
REMARK                         _______ _______ _______ _____ _____    ______ ____


Number of Rotatable Bonds in Small Molecule =	7 torsions
Number of atoms in ligand:  16

Number of non-hydrogen atoms in ligand:  14

Number of vibrational degrees of freedom of ligand:  42


Number of torsional degrees of freedom = 7
Estimated loss of torsional free energy upon binding = +2.0881 kcal/mol


DPF> about 0.016 0.633 0.013            # small molecule center

Small molecule center of rotation =	(+0.016, +0.633, +0.013)

DPF> tran0 random                         # initial coordinates/A or random

Initial translation =			(44.899, 14.278, 113.772) Angstroms
DPF> quaternion0 random                   # initial orientation

Each run will begin with a new, random initial orientation.
Initial quaternion,  (x,y,z,w) =	( -0.794, -0.104, -0.504, 0.323 ),
DPF> dihe0 random                         # initial dihedrals (relative) or random

DPF> torsdof 7                            # torsional degrees of freedom

Number of torsional degrees of freedom = 7
Free energy coefficient for torsional degrees of freedom = 0.2983, the factory default value.

Estimated loss of torsional free energy upon binding = +2.0881 kcal/mol

DPF> rmstol 2.0                           # cluster_tolerance/A

Maximum RMS tolerance for conformational cluster analysis = 2.00 Angstroms
DPF> extnrg 1000.0                        # external grid energy

External grid energy (beyond grid map walls) = 1000.00

DPF> e0max 0.0 10000                      # max initial energy; max number of retries

Using user-specified maximum number of retries for simanneal initialization, 10000 retries.
If the simanneal initial energy is greater than e0max, 0.000,
then a new, random initial state will be created.

DPF> ga_pop_size 150                      # number of individuals in population

A population of 150 individuals will be used
DPF> ga_num_evals 2500000                 # maximum number of energy evaluations

There will be at most 2500000 function evaluations used.
DPF> ga_num_generations 27000             # maximum number of generations

The GA will run for at most 27000 generations.
DPF> ga_elitism 1                         # number of top individuals to survive to next generation

The 1 best will be preserved each GA generation.
DPF> ga_mutation_rate 0.02                # rate of gene mutation

The mutation rate is 0.020000.
DPF> ga_crossover_rate 0.8                # rate of crossover

The crossover rate is 0.800000.
DPF> ga_window_size 10                    # 

The GA's selection window is 10 generations.
DPF> ga_cauchy_alpha 0.0                  # Alpha parameter of Cauchy distribution

The alpha parameter (for the Cauchy distribution) is being set to 0.000000.
DPF> ga_cauchy_beta 1.0                   # Beta parameter Cauchy distribution

The beta parameter (for the Cauchy distribution) is being set to 1.000000.
DPF> set_ga                               # set the above parameters for GA or LGA

DPF> sw_max_its 300                       # iterations of Solis & Wets local search

Solis & Wets algorithms will perform at most 300 iterations.
DPF> sw_max_succ 4                        # consecutive successes before changing rho

Solis & Wets algorithms expand rho every 4 in a row successes.
DPF> sw_max_fail 4                        # consecutive failures before changing rho

Solis & Wets algorithms contract rho every 4 in a row failures.
DPF> sw_rho 1.0                           # size of local search space to sample

rho is set to 1.000000.
DPF> sw_lb_rho 0.01                       # lower bound on rho

rho will never get smaller than 0.010000.
DPF> ls_search_freq 0.06                  # probability of performing local search on individual

Local search will be performed with frequency 0.060000.
DPF> set_psw1                             # set the above pseudo-Solis & Wets parameters

Creating a new Local Search object using the pseudo-Solis-Wets algorithm (pSW1) with the current settings.

DPF> unbound_model bound                  # state of unbound ligand

DPF> ga_run 100                           # do this many hybrid GA-LS runs

centering ligand on specified point: 0.016 0.633 0.013
Furthest true ligand atom from "about" center is 5.496 Angstroms (maxrad).
Number of requested GA dockings = 100 runs
Unbound model to be used is 'same as bound' [AutoDock 4.2 default].

	BEGINNING GENETIC ALGORITHM DOCKING 1 of 100
Run: 1 Seed: 1643195690 1254041780 [ Run 1 of 100 GA/GALS ]
Beginning LAMARCKIAN GENETIC ALGORITHM (LGA), with a maximum of 2500000 energy evaluations.

Final-Value: -13.178


	FINAL GENETIC ALGORITHM DOCKED STATE
	_______________________________________________


Detailed state:  trans 37.053 12.120 124.630 quatxyzw 0.458352 -0.399105 -0.769976 -0.194335 center 0.016 0.633 0.013 ntor 7 -36.3099 -168.0488 15.2733 111.1961 4.0605 -20.8564 -168.0198
State:	 37.053  12.120 124.630   0.467 -0.407 -0.785 -157.588    -36.31 -168.05   15.27  111.20    4.06  -20.86 -168.02

DOCKED: MODEL        1
DOCKED: USER    Run = 1
DOCKED: USER    DPF = ligand_dock.biased.dpf
DOCKED: USER  
DOCKED: USER    Estimated Free Energy of Binding    =  -10.50 kcal/mol  [=(1)+(2)+(3)-(4)]
DOCKED: USER    Estimated Inhibition Constant, Ki   =   19.97 nM (nanomolar)  [Temperature = 298.15 K]
DOCKED: USER    
DOCKED: USER    (1) Final Intermolecular Energy     =  -12.59 kcal/mol
DOCKED: USER        vdW + Hbond + desolv Energy     =  -12.59 kcal/mol
DOCKED: USER        Electrostatic Energy            =   +0.00 kcal/mol
DOCKED: USER    (2) Final Total Internal Energy     =   -0.59 kcal/mol
DOCKED: USER    (3) Torsional Free Energy           =   +2.09 kcal/mol
DOCKED: USER    (4) Unbound System's Energy  [=(2)] =   -0.59 kcal/mol
DOCKED: USER    
DOCKED: USER    
DOCKED: USER    NEWDPF move ligand.pdbqt
DOCKED: USER    NEWDPF about 0.016000 0.633000 0.013000
DOCKED: USER    NEWDPF tran0 37.052655 12.119951 124.629553
DOCKED: USER    NEWDPF quaternion0 0.458352 -0.399105 -0.769976 -0.194335
DOCKED: USER    NEWDPF axisangle0 0.467260 -0.406862 -0.784940 -157.588296
DOCKED: USER    NEWDPF quat0 0.467260 -0.406862 -0.784940 -157.588296
DOCKED: USER    NEWDPF dihe0 -36.31 -168.05 15.27 111.20 4.06 -20.86 -168.02 
DOCKED: USER  keepresnum = 1 
DOCKED: USER  
DOCKED: REMARK  Name = 
DOCKED: REMARK  7 active torsions:
DOCKED: REMARK  status: ('A' for Active; 'I' for Inactive)
DOCKED: REMARK    1  A    between atoms: C_3  and  C_4
DOCKED: REMARK    2  A    between atoms: C_4  and  C_5
DOCKED: REMARK    3  A    between atoms: C_5  and  C_6
DOCKED: REMARK    4  A    between atoms: C_6  and  C_7
DOCKED: REMARK    5  A    between atoms: C_7  and  C_8
DOCKED: REMARK    6  A    between atoms: C_8  and  C_9
DOCKED: REMARK    7  A    between atoms: C_9  and  C_10
DOCKED: REMARK                            x       y       z     vdW  Elec       q    Type
DOCKED: REMARK                         _______ _______ _______ _____ _____    ______ ____
DOCKED: USER                              x       y       z     vdW  Elec       q    Type
DOCKED: USER                           _______ _______ _______ _____ _____    ______ ____
DOCKED: ROOT
DOCKED: ATOM      1  C   UNL     1      36.545  13.297 122.831 -0.55 -0.00    +0.000 C 
DOCKED: ENDROOT
DOCKED: BRANCH   1   2
DOCKED: ATOM      2  C   UNL     1      37.185  11.906 122.726 -0.57 -0.00    +0.000 C 
DOCKED: BRANCH   2   3
DOCKED: ATOM      3  C   UNL     1      36.395  11.010 121.767 -0.48 -0.00    +0.000 C 
DOCKED: BRANCH   3   6
DOCKED: ATOM      4  O   UNL     1      37.201   7.723 123.455 -2.66 -0.00    +0.000 OA
DOCKED: ATOM      5  N   UNL     1      36.845   9.016 123.276 -0.62 -0.00    +0.000 N 
DOCKED: ATOM      6  C   UNL     1      36.772   9.573 121.961 -0.66 -0.00    +0.000 C 
DOCKED: ATOM      7  O   UNL     1      37.064   8.863 120.961 -2.71 -0.00    +0.000 OA
DOCKED: ATOM      8  H   UNL     1      36.633   9.578 124.055 -0.45 -0.00    +0.000 HD
DOCKED: ENDBRANCH   3   6
DOCKED: ENDBRANCH   2   3
DOCKED: ENDBRANCH   1   2
DOCKED: BRANCH   1   9
DOCKED: ATOM      9  C   UNL     1      37.444  14.319 123.553 -0.33 -0.00    +0.000 C 
DOCKED: BRANCH   9  10
DOCKED: ATOM     10  C   UNL     1      37.623  15.660 122.819 -0.34 -0.00    +0.000 C 
DOCKED: BRANCH  10  11
DOCKED: ATOM     11  C   UNL     1      38.703  15.605 121.730 -0.28 -0.00    +0.000 C 
DOCKED: BRANCH  11  12
DOCKED: ATOM     12  C   UNL     1      40.036  15.275 122.331 -0.42 -0.00    +0.000 C 
DOCKED: ATOM     13  N   UNL     1      40.833  16.304 122.923 -0.33 -0.00    +0.000 N 
DOCKED: ATOM     14  O   UNL     1      42.045  16.013 123.452 -1.13 +0.00    +0.000 OA
DOCKED: ATOM     15  O   UNL     1      40.471  14.094 122.277 -1.04 +0.00    +0.000 OA
DOCKED: ATOM     16  H   UNL     1      40.499  17.229 122.946 -0.00 -0.00    +0.000 HD
DOCKED: ENDBRANCH  11  12
DOCKED: ENDBRANCH  10  11
DOCKED: ENDBRANCH   9  10
DOCKED: ENDBRANCH   1   9
DOCKED: TORSDOF 7
DOCKED: TER
DOCKED: ENDMDL
________________________________________________________________________________


	BEGINNING GENETIC ALGORITHM DOCKING 2 of 100
Run: 2 Seed: 1745231407 1211694712 [ Run 2 of 100 GA/GALS ]
Beginning LAMARCKIAN GENETIC ALGORITHM (LGA), with a maximum of 2500000 energy evaluations.

Final-Value: -12.389


	FINAL GENETIC ALGORITHM DOCKED STATE
	_______________________________________________


Detailed state:  trans 37.975 12.636 123.635 quatxyzw -0.218298 0.414916 0.781721 0.411222 center 0.016 0.633 0.013 ntor 7 64.9131 108.4050 -33.5368 -24.8975 -45.7276 -122.7754 40.0284
State:	 37.975  12.636 123.635  -0.239  0.455  0.858 131.437     64.91  108.40  -33.54  -24.90  -45.73 -122.78   40.03

DOCKED: MODEL        2
DOCKED: USER    Run = 2
DOCKED: USER    DPF = ligand_dock.biased.dpf
DOCKED: USER  
DOCKED: USER    Estimated Free Energy of Binding    =   -9.88 kcal/mol  [=(1)+(2)+(3)-(4)]
DOCKED: USER    Estimated Inhibition Constant, Ki   =   57.64 nM (nanomolar)  [Temperature = 298.15 K]
DOCKED: USER    
DOCKED: USER    (1) Final Intermolecular Energy     =  -11.96 kcal/mol
DOCKED: USER        vdW + Hbond + desolv Energy     =  -11.96 kcal/mol
DOCKED: USER        Electrostatic Energy            =   +0.00 kcal/mol
DOCKED: USER    (2) Final Total Internal Energy     =   -0.42 kcal/mol
DOCKED: USER    (3) Torsional Free Energy           =   +2.09 kcal/mol
DOCKED: USER    (4) Unbound System's Energy  [=(2)] =   -0.42 kcal/mol
DOCKED: USER    
DOCKED: USER    
DOCKED: USER    NEWDPF move ligand.pdbqt
DOCKED: USER    NEWDPF about 0.016000 0.633000 0.013000
DOCKED: USER    NEWDPF tran0 37.975388 12.635651 123.635044
DOCKED: USER    NEWDPF quaternion0 -0.218298 0.414916 0.781721 0.411222
DOCKED: USER    NEWDPF axisangle0 -0.239484 0.455183 0.857587 131.436762
DOCKED: USER    NEWDPF quat0 -0.239484 0.455183 0.857587 131.436762
DOCKED: USER    NEWDPF dihe0 64.91 108.40 -33.54 -24.90 -45.73 -122.78 40.03 
DOCKED: USER  keepresnum = 1 
DOCKED: USER  
DOCKED: REMARK  Name = 
DOCKED: REMARK  7 active torsions:
DOCKED: REMARK  status: ('A' for Active; 'I' for Inactive)
DOCKED: REMARK    1  A    between atoms: C_3  and  C_4
DOCKED: REMARK    2  A    between atoms: C_4  and  C_5
DOCKED: REMARK    3  A    between atoms: C_5  and  C_6
DOCKED: REMARK    4  A    between atoms: C_6  and  C_7
DOCKED: REMARK    5  A    between atoms: C_7  and  C_8
DOCKED: REMARK    6  A    between atoms: C_8  and  C_9
DOCKED: REMARK    7  A    between atoms: C_9  and  C_10
DOCKED: REMARK                            x       y       z     vdW  Elec       q    Type
DOCKED: REMARK                         _______ _______ _______ _____ _____    ______ ____
DOCKED: USER                              x       y       z     vdW  Elec       q    Type
DOCKED: USER                           _______ _______ _______ _____ _____    ______ ____
DOCKED: ROOT
DOCKED: ATOM      1  C   UNL     1      36.413  13.148 122.161 -0.32 -0.00    +0.000 C 
DOCKED: ENDROOT
DOCKED: BRANCH   1   2
DOCKED: ATOM      2  C   UNL     1      37.179  11.819 122.090 -0.53 -0.00    +0.000 C 
DOCKED: BRANCH   2   3
DOCKED: ATOM      3  C   UNL     1      36.619  10.809 123.096 -0.69 -0.00    +0.000 C 
DOCKED: BRANCH   3   6
DOCKED: ATOM      4  O   UNL     1      37.068   7.056 122.972 -1.94 -0.00    +0.000 OA
DOCKED: ATOM      5  N   UNL     1      36.943   8.315 123.453 -0.70 -0.00    +0.000 N 
DOCKED: ATOM      6  C   UNL     1      36.739   9.414 122.562 -0.71 -0.00    +0.000 C 
DOCKED: ATOM      7  O   UNL     1      36.698   9.216 121.318 -2.54 -0.00    +0.000 OA
DOCKED: ATOM      8  H   UNL     1      36.991   8.475 124.422 -0.45 -0.00    +0.000 HD
DOCKED: ENDBRANCH   3   6
DOCKED: ENDBRANCH   2   3
DOCKED: ENDBRANCH   1   2
DOCKED: BRANCH   1   9
DOCKED: ATOM      9  C   UNL     1      37.325  14.378 121.995 -0.40 -0.00    +0.000 C 
DOCKED: BRANCH   9  10
DOCKED: ATOM     10  C   UNL     1      38.813  14.131 122.302 -0.40 -0.00    +0.000 C 
DOCKED: BRANCH  10  11
DOCKED: ATOM     11  C   UNL     1      39.692  15.356 122.021 -0.36 -0.00    +0.000 C 
DOCKED: BRANCH  11  12
DOCKED: ATOM     12  C   UNL     1      41.015  15.220 122.713 -0.50 -0.00    +0.000 C 
DOCKED: ATOM     13  N   UNL     1      41.880  16.351 122.842 -0.40 -0.00    +0.000 N 
DOCKED: ATOM     14  O   UNL     1      43.082  16.228 123.452 -1.00 +0.00    +0.000 OA
DOCKED: ATOM     15  O   UNL     1      41.381  14.095 123.146 -1.03 -0.00    +0.000 OA
DOCKED: ATOM     16  H   UNL     1      41.600  17.224 122.486 -0.00 -0.00    +0.000 HD
DOCKED: ENDBRANCH  11  12
DOCKED: ENDBRANCH  10  11
DOCKED: ENDBRANCH   9  10
DOCKED: ENDBRANCH   1   9
DOCKED: TORSDOF 7
DOCKED: TER
DOCKED: ENDMDL
________________________________________________________________________________


	BEGINNING GENETIC ALGORITHM DOCKING 3 of 100
Run: 3 Seed: 220067119 1566062201 [ Run 3 of 100 GA/GALS ]
Beginning LAMARCKIAN GENETIC ALGORITHM (LGA), with a maximum of 2500000 energy evaluations.

Final-Value: -12.862


	FINAL GENETIC ALGORITHM DOCKED STATE
	_______________________________________________


Detailed state:  trans 38.616 12.081 120.698 quatxyzw 0.380606 -0.117995 0.785374 0.473712 center 0.016 0.633 0.013 ntor 7 37.6069 158.0400 56.5692 73.1379 22.7095 -163.6298 -118.3917
State:	 38.616  12.081 120.698   0.432 -0.134  0.892 123.449     37.61  158.04   56.57   73.14   22.71 -163.63 -118.39

DOCKED: MODEL        3
DOCKED: USER    Run = 3
DOCKED: USER    DPF = ligand_dock.biased.dpf
DOCKED: USER  
DOCKED: USER    Estimated Free Energy of Binding    =  -10.34 kcal/mol  [=(1)+(2)+(3)-(4)]
DOCKED: USER    Estimated Inhibition Constant, Ki   =   26.51 nM (nanomolar)  [Temperature = 298.15 K]
DOCKED: USER    
DOCKED: USER    (1) Final Intermolecular Energy     =  -12.42 kcal/mol
DOCKED: USER        vdW + Hbond + desolv Energy     =  -12.42 kcal/mol
DOCKED: USER        Electrostatic Energy            =   +0.00 kcal/mol
DOCKED: USER    (2) Final Total Internal Energy     =   -0.44 kcal/mol
DOCKED: USER    (3) Torsional Free Energy           =   +2.09 kcal/mol
DOCKED: USER    (4) Unbound System's Energy  [=(2)] =   -0.44 kcal/mol
DOCKED: USER    
DOCKED: USER    
DOCKED: USER    NEWDPF move ligand.pdbqt
DOCKED: USER    NEWDPF about 0.016000 0.633000 0.013000
DOCKED: USER    NEWDPF tran0 38.615870 12.080537 120.698212
DOCKED: USER    NEWDPF quaternion0 0.380606 -0.117995 0.785374 0.473712
DOCKED: USER    NEWDPF axisangle0 0.432173 -0.133982 0.891782 123.448935
DOCKED: USER    NEWDPF quat0 0.432173 -0.133982 0.891782 123.448935
DOCKED: USER    NEWDPF dihe0 37.61 158.04 56.57 73.14 22.71 -163.63 -118.39 
DOCKED: USER  keepresnum = 1 
DOCKED: USER  
DOCKED: REMARK  Name = 
DOCKED: REMARK  7 active torsions:
DOCKED: REMARK  status: ('A' for Active; 'I' for Inactive)
DOCKED: REMARK    1  A    between atoms: C_3  and  C_4
DOCKED: REMARK    2  A    between atoms: C_4  and  C_5
DOCKED: REMARK    3  A    between atoms: C_5  and  C_6
DOCKED: REMARK    4  A    between atoms: C_6  and  C_7
DOCKED: REMARK    5  A    between atoms: C_7  and  C_8
DOCKED: REMARK    6  A    between atoms: C_8  and  C_9
DOCKED: REMARK    7  A    between atoms: C_9  and  C_10
DOCKED: REMARK                            x       y       z     vdW  Elec       q    Type
DOCKED: REMARK                         _______ _______ _______ _____ _____    ______ ____
DOCKED: USER                              x       y       z     vdW  Elec       q    Type
DOCKED: USER                           _______ _______ _______ _____ _____    ______ ____
DOCKED: ROOT
DOCKED: ATOM      1  C   UNL     1      37.459  12.880 122.401 -0.54 -0.00    +0.000 C 
DOCKED: ENDROOT
DOCKED: BRANCH   1   2
DOCKED: ATOM      2  C   UNL     1      36.914  11.746 121.521 -0.56 -0.00    +0.000 C 
DOCKED: BRANCH   2   3
DOCKED: ATOM      3  C   UNL     1      36.032  10.795 122.337 -0.66 -0.00    +0.000 C 
DOCKED: BRANCH   3   6
DOCKED: ATOM      4  O   UNL     1      37.431   7.439 123.379 -2.35 -0.00    +0.000 OA
DOCKED: ATOM      5  N   UNL     1      36.939   8.698 123.447 -0.63 -0.00    +0.000 N 
DOCKED: ATOM      6  C   UNL     1      36.559   9.394 122.258 -0.71 -0.00    +0.000 C 
DOCKED: ATOM      7  O   UNL     1      36.703   8.843 121.134 -2.62 -0.00    +0.000 OA
DOCKED: ATOM      8  H   UNL     1      36.841   9.138 124.322 -0.43 -0.00    +0.000 HD
DOCKED: ENDBRANCH   3   6
DOCKED: ENDBRANCH   2   3
DOCKED: ENDBRANCH   1   2
DOCKED: BRANCH   1   9
DOCKED: ATOM      9  C   UNL     1      37.690  14.188 121.621 -0.41 -0.00    +0.000 C 
DOCKED: BRANCH   9  10
DOCKED: ATOM     10  C   UNL     1      38.243  15.356 122.457 -0.35 -0.00    +0.000 C 
DOCKED: BRANCH  10  11
DOCKED: ATOM     11  C   UNL     1      39.391  16.099 121.761 -0.25 -0.00    +0.000 C 
DOCKED: BRANCH  11  12
DOCKED: ATOM     12  C   UNL     1      40.713  15.636 122.295 -0.41 -0.00    +0.000 C 
DOCKED: ATOM     13  N   UNL     1      41.570  16.548 122.986 -0.36 -0.00    +0.000 N 
DOCKED: ATOM     14  O   UNL     1      42.771  16.139 123.456 -1.09 +0.00    +0.000 OA
DOCKED: ATOM     15  O   UNL     1      41.086  14.449 122.098 -1.06 -0.00    +0.000 OA
DOCKED: ATOM     16  H   UNL     1      41.284  17.480 123.121 -0.01 -0.00    +0.000 HD
DOCKED: ENDBRANCH  11  12
DOCKED: ENDBRANCH  10  11
DOCKED: ENDBRANCH   9  10
DOCKED: ENDBRANCH   1   9
DOCKED: TORSDOF 7
DOCKED: TER
DOCKED: ENDMDL
________________________________________________________________________________


	BEGINNING GENETIC ALGORITHM DOCKING 4 of 100
Run: 4 Seed: 769166141 1805172217 [ Run 4 of 100 GA/GALS ]
Beginning LAMARCKIAN GENETIC ALGORITHM (LGA), with a maximum of 2500000 energy evaluations.

Final-Value: -12.199


	FINAL GENETIC ALGORITHM DOCKED STATE
	_______________________________________________


Detailed state:  trans 39.257 13.980 121.268 quatxyzw 0.651721 0.738663 0.118396 0.124977 center 0.016 0.633 0.013 ntor 7 77.4013 6.8633 103.4043 -57.8397 85.3062 172.0826 81.1273
State:	 39.257  13.980 121.268   0.657  0.744  0.119 165.641     77.40    6.86  103.40  -57.84   85.31  172.08   81.13

DOCKED: MODEL        4
DOCKED: USER    Run = 4
DOCKED: USER    DPF = ligand_dock.biased.dpf
DOCKED: USER  
DOCKED: USER    Estimated Free Energy of Binding    =   -9.56 kcal/mol  [=(1)+(2)+(3)-(4)]
DOCKED: USER    Estimated Inhibition Constant, Ki   =   98.41 nM (nanomolar)  [Temperature = 298.15 K]
DOCKED: USER    
DOCKED: USER    (1) Final Intermolecular Energy     =  -11.65 kcal/mol
DOCKED: USER        vdW + Hbond + desolv Energy     =  -11.65 kcal/mol
DOCKED: USER        Electrostatic Energy            =   +0.00 kcal/mol
DOCKED: USER    (2) Final Total Internal Energy     =   -0.55 kcal/mol
DOCKED: USER    (3) Torsional Free Energy           =   +2.09 kcal/mol
DOCKED: USER    (4) Unbound System's Energy  [=(2)] =   -0.55 kcal/mol
DOCKED: USER    
DOCKED: USER    
DOCKED: USER    NEWDPF move ligand.pdbqt
DOCKED: USER    NEWDPF about 0.016000 0.633000 0.013000
DOCKED: USER    NEWDPF tran0 39.257087 13.979852 121.268361
DOCKED: USER    NEWDPF quaternion0 0.651721 0.738663 0.118396 0.124977
DOCKED: USER    NEWDPF axisangle0 0.656871 0.744500 0.119331 165.641197
DOCKED: USER    NEWDPF quat0 0.656871 0.744500 0.119331 165.641197
DOCKED: USER    NEWDPF dihe0 77.40 6.86 103.40 -57.84 85.31 172.08 81.13 
DOCKED: USER  keepresnum = 1 
DOCKED: USER  
DOCKED: REMARK  Name = 
DOCKED: REMARK  7 active torsions:
DOCKED: REMARK  status: ('A' for Active; 'I' for Inactive)
DOCKED: REMARK    1  A    between atoms: C_3  and  C_4
DOCKED: REMARK    2  A    between atoms: C_4  and  C_5
DOCKED: REMARK    3  A    between atoms: C_5  and  C_6
DOCKED: REMARK    4  A    between atoms: C_6  and  C_7
DOCKED: REMARK    5  A    between atoms: C_7  and  C_8
DOCKED: REMARK    6  A    between atoms: C_8  and  C_9
DOCKED: REMARK    7  A    between atoms: C_9  and  C_10
DOCKED: REMARK                            x       y       z     vdW  Elec       q    Type
DOCKED: REMARK                         _______ _______ _______ _____ _____    ______ ____
DOCKED: USER                              x       y       z     vdW  Elec       q    Type
DOCKED: USER                           _______ _______ _______ _____ _____    ______ ____
DOCKED: ROOT
DOCKED: ATOM      1  C   UNL     1      37.098  14.317 120.948 -0.30 -0.00    +0.000 C 
DOCKED: ENDROOT
DOCKED: BRANCH   1   2
DOCKED: ATOM      2  C   UNL     1      37.767  14.621 122.296 -0.42 -0.00    +0.000 C 
DOCKED: BRANCH   2   3
DOCKED: ATOM      3  C   UNL     1      36.783  14.422 123.453 -0.49 -0.00    +0.000 C 
DOCKED: BRANCH   3   6
DOCKED: ATOM      4  O   UNL     1      33.695  16.444 124.274 -0.48 -0.00    +0.000 OA
DOCKED: ATOM      5  N   UNL     1      34.579  15.420 124.225 -0.57 -0.00    +0.000 N 
DOCKED: ATOM      6  C   UNL     1      35.815  15.564 123.521 -0.46 -0.00    +0.000 C 
DOCKED: ATOM      7  O   UNL     1      36.077  16.641 122.922 -0.30 -0.00    +0.000 OA
DOCKED: ATOM      8  H   UNL     1      34.371  14.572 124.677 -0.05 -0.00    +0.000 HD
DOCKED: ENDBRANCH   3   6
DOCKED: ENDBRANCH   2   3
DOCKED: ENDBRANCH   1   2
DOCKED: BRANCH   1   9
DOCKED: ATOM      9  C   UNL     1      37.179  12.829 120.558 -0.49 -0.00    +0.000 C 
DOCKED: BRANCH   9  10
DOCKED: ATOM     10  C   UNL     1      37.454  11.865 121.726 -0.41 -0.00    +0.000 C 
DOCKED: BRANCH  10  11
DOCKED: ATOM     11  C   UNL     1      36.246  10.982 122.070 -0.61 -0.00    +0.000 C 
DOCKED: BRANCH  11  12
DOCKED: ATOM     12  C   UNL     1      36.655   9.541 122.141 -0.69 -0.00    +0.000 C 
DOCKED: ATOM     13  N   UNL     1      37.054   8.967 123.388 -0.61 -0.00    +0.000 N 
DOCKED: ATOM     14  O   UNL     1      37.439   7.671 123.454 -2.57 -0.00    +0.000 OA
DOCKED: ATOM     15  O   UNL     1      36.685   8.847 121.090 -2.61 -0.00    +0.000 OA
DOCKED: ATOM     16  H   UNL     1      37.047   9.517 124.204 -0.58 -0.00    +0.000 HD
DOCKED: ENDBRANCH  11  12
DOCKED: ENDBRANCH  10  11
DOCKED: ENDBRANCH   9  10
DOCKED: ENDBRANCH   1   9
DOCKED: TORSDOF 7
DOCKED: TER
DOCKED: ENDMDL
________________________________________________________________________________


	BEGINNING GENETIC ALGORITHM DOCKING 5 of 100
Run: 5 Seed: 2119484196 1952714614 [ Run 5 of 100 GA/GALS ]
Beginning LAMARCKIAN GENETIC ALGORITHM (LGA), with a maximum of 2500000 energy evaluations.

Final-Value: -12.868


	FINAL GENETIC ALGORITHM DOCKED STATE
	_______________________________________________


Detailed state:  trans 38.248 13.192 122.688 quatxyzw -0.794301 -0.539647 0.275895 -0.041824 center 0.016 0.633 0.013 ntor 7 40.4404 -170.2379 -25.6134 -44.3290 -98.4608 137.1901 -59.3828
State:	 38.248  13.192 122.688  -0.795 -0.540  0.276 -175.206     40.44 -170.24  -25.61  -44.33  -98.46  137.19  -59.38

DOCKED: MODEL        5
DOCKED: USER    Run = 5
DOCKED: USER    DPF = ligand_dock.biased.dpf
DOCKED: USER  
DOCKED: USER    Estimated Free Energy of Binding    =  -10.26 kcal/mol  [=(1)+(2)+(3)-(4)]
DOCKED: USER    Estimated Inhibition Constant, Ki   =   30.28 nM (nanomolar)  [Temperature = 298.15 K]
DOCKED: USER    
DOCKED: USER    (1) Final Intermolecular Energy     =  -12.35 kcal/mol
DOCKED: USER        vdW + Hbond + desolv Energy     =  -12.35 kcal/mol
DOCKED: USER        Electrostatic Energy            =   +0.00 kcal/mol
DOCKED: USER    (2) Final Total Internal Energy     =   -0.52 kcal/mol
DOCKED: USER    (3) Torsional Free Energy           =   +2.09 kcal/mol
DOCKED: USER    (4) Unbound System's Energy  [=(2)] =   -0.52 kcal/mol
DOCKED: USER    
DOCKED: USER    
DOCKED: USER    NEWDPF move ligand.pdbqt
DOCKED: USER    NEWDPF about 0.016000 0.633000 0.013000
DOCKED: USER    NEWDPF tran0 38.248144 13.191808 122.688136
DOCKED: USER    NEWDPF quaternion0 -0.794301 -0.539647 0.275895 -0.041824
DOCKED: USER    NEWDPF axisangle0 -0.794997 -0.540120 0.276136 -175.205882
DOCKED: USER    NEWDPF quat0 -0.794997 -0.540120 0.276136 -175.205882
DOCKED: USER    NEWDPF dihe0 40.44 -170.24 -25.61 -44.33 -98.46 137.19 -59.38 
DOCKED: USER  keepresnum = 1 
DOCKED: USER  
DOCKED: REMARK  Name = 
DOCKED: REMARK  7 active torsions:
DOCKED: REMARK  status: ('A' for Active; 'I' for Inactive)
DOCKED: REMARK    1  A    between atoms: C_3  and  C_4
DOCKED: REMARK    2  A    between atoms: C_4  and  C_5
DOCKED: REMARK    3  A    between atoms: C_5  and  C_6
DOCKED: REMARK    4  A    between atoms: C_6  and  C_7
DOCKED: REMARK    5  A    between atoms: C_7  and  C_8
DOCKED: REMARK    6  A    between atoms: C_8  and  C_9
DOCKED: REMARK    7  A    between atoms: C_9  and  C_10
DOCKED: REMARK                            x       y       z     vdW  Elec       q    Type
DOCKED: REMARK                         _______ _______ _______ _____ _____    ______ ____
DOCKED: USER                              x       y       z     vdW  Elec       q    Type
DOCKED: USER                           _______ _______ _______ _____ _____    ______ ____
DOCKED: ROOT
DOCKED: ATOM      1  C   UNL     1      36.382  14.360 122.867 -0.44 -0.00    +0.000 C 
DOCKED: ENDROOT
DOCKED: BRANCH   1   2
DOCKED: ATOM      2  C   UNL     1      37.729  14.919 123.347 -0.35 -0.00    +0.000 C 
DOCKED: BRANCH   2   3
DOCKED: ATOM      3  C   UNL     1      38.892  14.294 122.569 -0.41 -0.00    +0.000 C 
DOCKED: BRANCH   3   6
DOCKED: ATOM      4  O   UNL     1      42.412  15.569 123.098 -1.11 +0.00    +0.000 OA
DOCKED: ATOM      5  N   UNL     1      41.340  14.743 123.071 -0.57 -0.00    +0.000 N 
DOCKED: ATOM      6  C   UNL     1      40.081  15.205 122.579 -0.40 -0.00    +0.000 C 
DOCKED: ATOM      7  O   UNL     1      39.958  16.397 122.188 -0.24 -0.00    +0.000 OA
DOCKED: ATOM      8  H   UNL     1      41.429  13.817 123.392 -0.10 -0.00    +0.000 HD
DOCKED: ENDBRANCH   3   6
DOCKED: ENDBRANCH   2   3
DOCKED: ENDBRANCH   1   2
DOCKED: BRANCH   1   9
DOCKED: ATOM      9  C   UNL     1      35.954  13.089 123.625 -0.61 -0.00    +0.000 C 
DOCKED: BRANCH   9  10
DOCKED: ATOM     10  C   UNL     1      35.748  11.845 122.743 -0.50 -0.00    +0.000 C 
DOCKED: BRANCH  10  11
DOCKED: ATOM     11  C   UNL     1      37.068  11.207 122.290 -0.56 -0.00    +0.000 C 
DOCKED: BRANCH  11  12
DOCKED: ATOM     12  C   UNL     1      36.945   9.713 122.264 -0.62 -0.00    +0.000 C 
DOCKED: ATOM     13  N   UNL     1      37.159   8.952 123.455 -0.57 -0.00    +0.000 N 
DOCKED: ATOM     14  O   UNL     1      37.065   7.602 123.432 -2.60 -0.00    +0.000 OA
DOCKED: ATOM     15  O   UNL     1      36.693   9.126 121.179 -2.62 -0.00    +0.000 OA
DOCKED: ATOM     16  H   UNL     1      37.375   9.413 124.297 -0.62 -0.00    +0.000 HD
DOCKED: ENDBRANCH  11  12
DOCKED: ENDBRANCH  10  11
DOCKED: ENDBRANCH   9  10
DOCKED: ENDBRANCH   1   9
DOCKED: TORSDOF 7
DOCKED: TER
DOCKED: ENDMDL
________________________________________________________________________________


	BEGINNING GENETIC ALGORITHM DOCKING 6 of 100
Run: 6 Seed: 971267617 415177041 [ Run 6 of 100 GA/GALS ]
Beginning LAMARCKIAN GENETIC ALGORITHM (LGA), with a maximum of 2500000 energy evaluations.

Final-Value: -13.749


	FINAL GENETIC ALGORITHM DOCKED STATE
	_______________________________________________


Detailed state:  trans 38.876 12.898 123.566 quatxyzw 0.789201 0.452723 -0.288567 -0.298217 center 0.016 0.633 0.013 ntor 7 -157.2435 -107.6918 24.1820 -48.1839 -40.7365 68.9440 -85.8156
State:	 38.876  12.898 123.566   0.827  0.474 -0.302 -145.299   -157.24 -107.69   24.18  -48.18  -40.74   68.94  -85.82

DOCKED: MODEL        6
DOCKED: USER    Run = 6
DOCKED: USER    DPF = ligand_dock.biased.dpf
DOCKED: USER  
DOCKED: USER    Estimated Free Energy of Binding    =  -11.16 kcal/mol  [=(1)+(2)+(3)-(4)]
DOCKED: USER    Estimated Inhibition Constant, Ki   =    6.64 nM (nanomolar)  [Temperature = 298.15 K]
DOCKED: USER    
DOCKED: USER    (1) Final Intermolecular Energy     =  -13.24 kcal/mol
DOCKED: USER        vdW + Hbond + desolv Energy     =  -13.24 kcal/mol
DOCKED: USER        Electrostatic Energy            =   +0.00 kcal/mol
DOCKED: USER    (2) Final Total Internal Energy     =   -0.50 kcal/mol
DOCKED: USER    (3) Torsional Free Energy           =   +2.09 kcal/mol
DOCKED: USER    (4) Unbound System's Energy  [=(2)] =   -0.50 kcal/mol
DOCKED: USER    
DOCKED: USER    
DOCKED: USER    NEWDPF move ligand.pdbqt
DOCKED: USER    NEWDPF about 0.016000 0.633000 0.013000
DOCKED: USER    NEWDPF tran0 38.875842 12.898007 123.565759
DOCKED: USER    NEWDPF quaternion0 0.789201 0.452723 -0.288567 -0.298217
DOCKED: USER    NEWDPF axisangle0 0.826823 0.474305 -0.302323 -145.298945
DOCKED: USER    NEWDPF quat0 0.826823 0.474305 -0.302323 -145.298945
DOCKED: USER    NEWDPF dihe0 -157.24 -107.69 24.18 -48.18 -40.74 68.94 -85.82 
DOCKED: USER  keepresnum = 1 
DOCKED: USER  
DOCKED: REMARK  Name = 
DOCKED: REMARK  7 active torsions:
DOCKED: REMARK  status: ('A' for Active; 'I' for Inactive)
DOCKED: REMARK    1  A    between atoms: C_3  and  C_4
DOCKED: REMARK    2  A    between atoms: C_4  and  C_5
DOCKED: REMARK    3  A    between atoms: C_5  and  C_6
DOCKED: REMARK    4  A    between atoms: C_6  and  C_7
DOCKED: REMARK    5  A    between atoms: C_7  and  C_8
DOCKED: REMARK    6  A    between atoms: C_8  and  C_9
DOCKED: REMARK    7  A    between atoms: C_9  and  C_10
DOCKED: REMARK                            x       y       z     vdW  Elec       q    Type
DOCKED: REMARK                         _______ _______ _______ _____ _____    ______ ____
DOCKED: USER                              x       y       z     vdW  Elec       q    Type
DOCKED: USER                           _______ _______ _______ _____ _____    ______ ____
DOCKED: ROOT
DOCKED: ATOM      1  C   UNL     1      37.116  13.665 122.474 -0.50 -0.00    +0.000 C 
DOCKED: ENDROOT
DOCKED: BRANCH   1   2
DOCKED: ATOM      2  C   UNL     1      38.252  14.596 122.922 -0.43 -0.00    +0.000 C 
DOCKED: BRANCH   2   3
DOCKED: ATOM      3  C   UNL     1      39.394  14.599 121.901 -0.39 -0.00    +0.000 C 
DOCKED: BRANCH   3   6
DOCKED: ATOM      4  O   UNL     1      42.109  16.670 123.525 -1.04 -0.00    +0.000 OA
DOCKED: ATOM      5  N   UNL     1      40.936  16.326 122.945 -0.34 -0.00    +0.000 N 
DOCKED: ATOM      6  C   UNL     1      40.687  14.972 122.561 -0.48 -0.00    +0.000 C 
DOCKED: ATOM      7  O   UNL     1      41.572  14.094 122.742 -1.06 +0.00    +0.000 OA
DOCKED: ATOM      8  H   UNL     1      40.250  17.012 122.786 -0.00 -0.00    +0.000 HD
DOCKED: ENDBRANCH   3   6
DOCKED: ENDBRANCH   2   3
DOCKED: ENDBRANCH   1   2
DOCKED: BRANCH   1   9
DOCKED: ATOM      9  C   UNL     1      36.399  12.981 123.652 -0.62 -0.00    +0.000 C 
DOCKED: BRANCH   9  10
DOCKED: ATOM     10  C   UNL     1      35.873  11.564 123.361 -0.67 -0.00    +0.000 C 
DOCKED: BRANCH  10  11
DOCKED: ATOM     11  C   UNL     1      36.325  11.028 121.995 -0.61 -0.00    +0.000 C 
DOCKED: BRANCH  11  12
DOCKED: ATOM     12  C   UNL     1      36.700   9.580 122.100 -0.69 -0.00    +0.000 C 
DOCKED: ATOM     13  N   UNL     1      37.069   9.021 123.362 -0.61 -0.00    +0.000 N 
DOCKED: ATOM     14  O   UNL     1      37.424   7.718 123.458 -2.61 -0.00    +0.000 OA
DOCKED: ATOM     15  O   UNL     1      36.727   8.865 121.063 -2.62 -0.00    +0.000 OA
DOCKED: ATOM     16  H   UNL     1      37.066   9.587 124.167 -0.57 -0.00    +0.000 HD
DOCKED: ENDBRANCH  11  12
DOCKED: ENDBRANCH  10  11
DOCKED: ENDBRANCH   9  10
DOCKED: ENDBRANCH   1   9
DOCKED: TORSDOF 7
DOCKED: TER
DOCKED: ENDMDL
________________________________________________________________________________


	BEGINNING GENETIC ALGORITHM DOCKING 7 of 100
Run: 7 Seed: 343885772 1073690015 [ Run 7 of 100 GA/GALS ]
Beginning LAMARCKIAN GENETIC ALGORITHM (LGA), with a maximum of 2500000 energy evaluations.

Final-Value: -13.085


	FINAL GENETIC ALGORITHM DOCKED STATE
	_______________________________________________


Detailed state:  trans 34.745 15.008 124.207 quatxyzw 0.156809 0.190087 0.510173 -0.824015 center 0.016 0.633 0.013 ntor 7 130.8234 -48.5102 -123.5642 32.4727 -127.5972 -57.9540 -176.3305
State:	 34.745  15.008 124.207   0.277  0.336  0.900 -69.022    130.82  -48.51 -123.56   32.47 -127.60  -57.95 -176.33

DOCKED: MODEL        7
DOCKED: USER    Run = 7
DOCKED: USER    DPF = ligand_dock.biased.dpf
DOCKED: USER  
DOCKED: USER    Estimated Free Energy of Binding    =  -10.45 kcal/mol  [=(1)+(2)+(3)-(4)]
DOCKED: USER    Estimated Inhibition Constant, Ki   =   21.90 nM (nanomolar)  [Temperature = 298.15 K]
DOCKED: USER    
DOCKED: USER    (1) Final Intermolecular Energy     =  -12.54 kcal/mol
DOCKED: USER        vdW + Hbond + desolv Energy     =  -12.54 kcal/mol
DOCKED: USER        Electrostatic Energy            =   +0.00 kcal/mol
DOCKED: USER    (2) Final Total Internal Energy     =   -0.55 kcal/mol
DOCKED: USER    (3) Torsional Free Energy           =   +2.09 kcal/mol
DOCKED: USER    (4) Unbound System's Energy  [=(2)] =   -0.55 kcal/mol
DOCKED: USER    
DOCKED: USER    
DOCKED: USER    NEWDPF move ligand.pdbqt
DOCKED: USER    NEWDPF about 0.016000 0.633000 0.013000
DOCKED: USER    NEWDPF tran0 34.744978 15.007596 124.206674
DOCKED: USER    NEWDPF quaternion0 0.156809 0.190087 0.510173 -0.824015
DOCKED: USER    NEWDPF axisangle0 0.276770 0.335507 0.900463 -69.022394
DOCKED: USER    NEWDPF quat0 0.276770 0.335507 0.900463 -69.022394
DOCKED: USER    NEWDPF dihe0 130.82 -48.51 -123.56 32.47 -127.60 -57.95 -176.33 
DOCKED: USER  keepresnum = 1 
DOCKED: USER  
DOCKED: REMARK  Name = 
DOCKED: REMARK  7 active torsions:
DOCKED: REMARK  status: ('A' for Active; 'I' for Inactive)
DOCKED: REMARK    1  A    between atoms: C_3  and  C_4
DOCKED: REMARK    2  A    between atoms: C_4  and  C_5
DOCKED: REMARK    3  A    between atoms: C_5  and  C_6
DOCKED: REMARK    4  A    between atoms: C_6  and  C_7
DOCKED: REMARK    5  A    between atoms: C_7  and  C_8
DOCKED: REMARK    6  A    between atoms: C_8  and  C_9
DOCKED: REMARK    7  A    between atoms: C_9  and  C_10
DOCKED: REMARK                            x       y       z     vdW  Elec       q    Type
DOCKED: REMARK                         _______ _______ _______ _____ _____    ______ ____
DOCKED: USER                              x       y       z     vdW  Elec       q    Type
DOCKED: USER                           _______ _______ _______ _____ _____    ______ ____
DOCKED: ROOT
DOCKED: ATOM      1  C   UNL     1      36.805  14.488 123.606 -0.44 -0.00    +0.000 C 
DOCKED: ENDROOT
DOCKED: BRANCH   1   2
DOCKED: ATOM      2  C   UNL     1      35.953  15.468 122.787 -0.34 -0.00    +0.000 C 
DOCKED: BRANCH   2   3
DOCKED: ATOM      3  C   UNL     1      34.550  15.607 123.386 -0.43 -0.00    +0.000 C 
DOCKED: BRANCH   3   6
DOCKED: ATOM      4  O   UNL     1      33.732  16.013 127.055 -1.02 -0.00    +0.000 OA
DOCKED: ATOM      5  N   UNL     1      33.672  15.597 125.769 -0.37 -0.00    +0.000 N 
DOCKED: ATOM      6  C   UNL     1      34.630  16.056 124.813 -0.52 -0.00    +0.000 C 
DOCKED: ATOM      7  O   UNL     1      35.524  16.873 125.162 -0.31 -0.00    +0.000 OA
DOCKED: ATOM      8  H   UNL     1      32.965  14.972 125.489 -0.17 -0.00    +0.000 HD
DOCKED: ENDBRANCH   3   6
DOCKED: ENDBRANCH   2   3
DOCKED: ENDBRANCH   1   2
DOCKED: BRANCH   1   9
DOCKED: ATOM      9  C   UNL     1      36.200  13.073 123.670 -0.61 -0.00    +0.000 C 
DOCKED: BRANCH   9  10
DOCKED: ATOM     10  C   UNL     1      37.111  11.951 123.142 -0.64 -0.00    +0.000 C 
DOCKED: BRANCH  10  11
DOCKED: ATOM     11  C   UNL     1      36.502  11.197 121.952 -0.61 -0.00    +0.000 C 
DOCKED: BRANCH  11  12
DOCKED: ATOM     12  C   UNL     1      36.779   9.727 122.068 -0.66 -0.00    +0.000 C 
DOCKED: ATOM     13  N   UNL     1      36.768   9.091 123.348 -0.58 -0.00    +0.000 N 
DOCKED: ATOM     14  O   UNL     1      37.034   7.768 123.458 -2.66 -0.00    +0.000 OA
DOCKED: ATOM     15  O   UNL     1      37.061   9.062 121.036 -2.72 -0.00    +0.000 OA
DOCKED: ATOM     16  H   UNL     1      36.566   9.618 124.154 -0.43 -0.00    +0.000 HD
DOCKED: ENDBRANCH  11  12
DOCKED: ENDBRANCH  10  11
DOCKED: ENDBRANCH   9  10
DOCKED: ENDBRANCH   1   9
DOCKED: TORSDOF 7
DOCKED: TER
DOCKED: ENDMDL
________________________________________________________________________________


	BEGINNING GENETIC ALGORITHM DOCKING 8 of 100
Run: 8 Seed: 389153910 360506567 [ Run 8 of 100 GA/GALS ]
Beginning LAMARCKIAN GENETIC ALGORITHM (LGA), with a maximum of 2500000 energy evaluations.

Final-Value: -13.408


	FINAL GENETIC ALGORITHM DOCKED STATE
	_______________________________________________


Detailed state:  trans 37.342 11.853 122.219 quatxyzw -0.384694 0.088579 -0.779182 -0.486867 center 0.016 0.633 0.013 ntor 7 -133.5061 -116.9859 -48.6130 -56.2618 -118.6896 -58.3370 -142.4403
State:	 37.342  11.853 122.219  -0.440  0.101 -0.892 -121.730   -133.51 -116.99  -48.61  -56.26 -118.69  -58.34 -142.44

DOCKED: MODEL        8
DOCKED: USER    Run = 8
DOCKED: USER    DPF = ligand_dock.biased.dpf
DOCKED: USER  
DOCKED: USER    Estimated Free Energy of Binding    =  -10.82 kcal/mol  [=(1)+(2)+(3)-(4)]
DOCKED: USER    Estimated Inhibition Constant, Ki   =   11.75 nM (nanomolar)  [Temperature = 298.15 K]
DOCKED: USER    
DOCKED: USER    (1) Final Intermolecular Energy     =  -12.91 kcal/mol
DOCKED: USER        vdW + Hbond + desolv Energy     =  -12.91 kcal/mol
DOCKED: USER        Electrostatic Energy            =   +0.00 kcal/mol
DOCKED: USER    (2) Final Total Internal Energy     =   -0.50 kcal/mol
DOCKED: USER    (3) Torsional Free Energy           =   +2.09 kcal/mol
DOCKED: USER    (4) Unbound System's Energy  [=(2)] =   -0.50 kcal/mol
DOCKED: USER    
DOCKED: USER    
DOCKED: USER    NEWDPF move ligand.pdbqt
DOCKED: USER    NEWDPF about 0.016000 0.633000 0.013000
DOCKED: USER    NEWDPF tran0 37.341980 11.852680 122.219045
DOCKED: USER    NEWDPF quaternion0 -0.384694 0.088579 -0.779182 -0.486867
DOCKED: USER    NEWDPF axisangle0 -0.440418 0.101410 -0.892047 -121.730279
DOCKED: USER    NEWDPF quat0 -0.440418 0.101410 -0.892047 -121.730279
DOCKED: USER    NEWDPF dihe0 -133.51 -116.99 -48.61 -56.26 -118.69 -58.34 -142.44 
DOCKED: USER  keepresnum = 1 
DOCKED: USER  
DOCKED: REMARK  Name = 
DOCKED: REMARK  7 active torsions:
DOCKED: REMARK  status: ('A' for Active; 'I' for Inactive)
DOCKED: REMARK    1  A    between atoms: C_3  and  C_4
DOCKED: REMARK    2  A    between atoms: C_4  and  C_5
DOCKED: REMARK    3  A    between atoms: C_5  and  C_6
DOCKED: REMARK    4  A    between atoms: C_6  and  C_7
DOCKED: REMARK    5  A    between atoms: C_7  and  C_8
DOCKED: REMARK    6  A    between atoms: C_8  and  C_9
DOCKED: REMARK    7  A    between atoms: C_9  and  C_10
DOCKED: REMARK                            x       y       z     vdW  Elec       q    Type
DOCKED: REMARK                         _______ _______ _______ _____ _____    ______ ____
DOCKED: USER                              x       y       z     vdW  Elec       q    Type
DOCKED: USER                           _______ _______ _______ _____ _____    ______ ____
DOCKED: ROOT
DOCKED: ATOM      1  C   UNL     1      36.112  12.658 123.867 -0.61 -0.00    +0.000 C 
DOCKED: ENDROOT
DOCKED: BRANCH   1   2
DOCKED: ATOM      2  C   UNL     1      35.642  11.465 123.022 -0.62 -0.00    +0.000 C 
DOCKED: BRANCH   2   3
DOCKED: ATOM      3  C   UNL     1      36.742  11.006 122.060 -0.62 -0.00    +0.000 C 
DOCKED: BRANCH   3   6
DOCKED: ATOM      4  O   UNL     1      37.229   7.522 123.445 -2.51 -0.00    +0.000 OA
DOCKED: ATOM      5  N   UNL     1      37.061   8.863 123.385 -0.62 -0.00    +0.000 N 
DOCKED: ATOM      6  C   UNL     1      36.909   9.519 122.123 -0.65 -0.00    +0.000 C 
DOCKED: ATOM      7  O   UNL     1      36.955   8.849 121.057 -2.67 -0.00    +0.000 OA
DOCKED: ATOM      8  H   UNL     1      37.042   9.391 124.214 -0.57 -0.00    +0.000 HD
DOCKED: ENDBRANCH   3   6
DOCKED: ENDBRANCH   2   3
DOCKED: ENDBRANCH   1   2
DOCKED: BRANCH   1   9
DOCKED: ATOM      9  C   UNL     1      36.294  13.944 123.041 -0.51 -0.00    +0.000 C 
DOCKED: BRANCH   9  10
DOCKED: ATOM     10  C   UNL     1      36.196  15.253 123.844 -0.45 -0.00    +0.000 C 
DOCKED: BRANCH  10  11
DOCKED: ATOM     11  C   UNL     1      35.063  16.168 123.360 -0.46 -0.00    +0.000 C 
DOCKED: BRANCH  11  12
DOCKED: ATOM     12  C   UNL     1      34.237  16.637 124.520 -0.49 -0.00    +0.000 C 
DOCKED: ATOM     13  N   UNL     1      34.066  15.800 125.666 -0.51 -0.00    +0.000 N 
DOCKED: ATOM     14  O   UNL     1      33.307  16.213 126.709 -1.12 -0.00    +0.000 OA
DOCKED: ATOM     15  O   UNL     1      33.660  17.755 124.465 -0.45 -0.00    +0.000 OA
DOCKED: ATOM     16  H   UNL     1      34.502  14.919 125.698 -0.05 -0.00    +0.000 HD
DOCKED: ENDBRANCH  11  12
DOCKED: ENDBRANCH  10  11
DOCKED: ENDBRANCH   9  10
DOCKED: ENDBRANCH   1   9
DOCKED: TORSDOF 7
DOCKED: TER
DOCKED: ENDMDL
________________________________________________________________________________


	BEGINNING GENETIC ALGORITHM DOCKING 9 of 100
Run: 9 Seed: 1767201252 1028296903 [ Run 9 of 100 GA/GALS ]
Beginning LAMARCKIAN GENETIC ALGORITHM (LGA), with a maximum of 2500000 energy evaluations.

Final-Value: -12.502


	FINAL GENETIC ALGORITHM DOCKED STATE
	_______________________________________________


Detailed state:  trans 36.832 12.586 121.639 quatxyzw -0.633746 0.171461 -0.529654 -0.537060 center 0.016 0.633 0.013 ntor 7 -128.2045 134.7437 -28.0771 -108.9082 -89.9703 175.0947 160.5360
State:	 36.832  12.586 121.639  -0.751  0.203 -0.628 -115.033   -128.20  134.74  -28.08 -108.91  -89.97  175.09  160.54

DOCKED: MODEL        9
DOCKED: USER    Run = 9
DOCKED: USER    DPF = ligand_dock.biased.dpf
DOCKED: USER  
DOCKED: USER    Estimated Free Energy of Binding    =   -9.98 kcal/mol  [=(1)+(2)+(3)-(4)]
DOCKED: USER    Estimated Inhibition Constant, Ki   =   48.26 nM (nanomolar)  [Temperature = 298.15 K]
DOCKED: USER    
DOCKED: USER    (1) Final Intermolecular Energy     =  -12.07 kcal/mol
DOCKED: USER        vdW + Hbond + desolv Energy     =  -12.07 kcal/mol
DOCKED: USER        Electrostatic Energy            =   +0.00 kcal/mol
DOCKED: USER    (2) Final Total Internal Energy     =   -0.43 kcal/mol
DOCKED: USER    (3) Torsional Free Energy           =   +2.09 kcal/mol
DOCKED: USER    (4) Unbound System's Energy  [=(2)] =   -0.43 kcal/mol
DOCKED: USER    
DOCKED: USER    
DOCKED: USER    NEWDPF move ligand.pdbqt
DOCKED: USER    NEWDPF about 0.016000 0.633000 0.013000
DOCKED: USER    NEWDPF tran0 36.832229 12.586378 121.639086
DOCKED: USER    NEWDPF quaternion0 -0.633746 0.171461 -0.529654 -0.537060
DOCKED: USER    NEWDPF axisangle0 -0.751290 0.203262 -0.627892 -115.032590
DOCKED: USER    NEWDPF quat0 -0.751290 0.203262 -0.627892 -115.032590
DOCKED: USER    NEWDPF dihe0 -128.20 134.74 -28.08 -108.91 -89.97 175.09 160.54 
DOCKED: USER  keepresnum = 1 
DOCKED: USER  
DOCKED: REMARK  Name = 
DOCKED: REMARK  7 active torsions:
DOCKED: REMARK  status: ('A' for Active; 'I' for Inactive)
DOCKED: REMARK    1  A    between atoms: C_3  and  C_4
DOCKED: REMARK    2  A    between atoms: C_4  and  C_5
DOCKED: REMARK    3  A    between atoms: C_5  and  C_6
DOCKED: REMARK    4  A    between atoms: C_6  and  C_7
DOCKED: REMARK    5  A    between atoms: C_7  and  C_8
DOCKED: REMARK    6  A    between atoms: C_8  and  C_9
DOCKED: REMARK    7  A    between atoms: C_9  and  C_10
DOCKED: REMARK                            x       y       z     vdW  Elec       q    Type
DOCKED: REMARK                         _______ _______ _______ _____ _____    ______ ____
DOCKED: USER                              x       y       z     vdW  Elec       q    Type
DOCKED: USER                           _______ _______ _______ _____ _____    ______ ____
DOCKED: ROOT
DOCKED: ATOM      1  C   UNL     1      36.680  13.229 123.746 -0.54 -0.00    +0.000 C 
DOCKED: ENDROOT
DOCKED: BRANCH   1   2
DOCKED: ATOM      2  C   UNL     1      36.168  11.856 123.286 -0.69 -0.00    +0.000 C 
DOCKED: BRANCH   2   3
DOCKED: ATOM      3  C   UNL     1      37.061  11.280 122.183 -0.56 -0.00    +0.000 C 
DOCKED: BRANCH   3   6
DOCKED: ATOM      4  O   UNL     1      37.067   7.713 123.437 -2.69 -0.00    +0.000 OA
DOCKED: ATOM      5  N   UNL     1      37.098   9.066 123.426 -0.57 -0.00    +0.000 N 
DOCKED: ATOM      6  C   UNL     1      37.007   9.783 122.192 -0.60 -0.00    +0.000 C 
DOCKED: ATOM      7  O   UNL     1      36.921   9.154 121.104 -2.69 -0.00    +0.000 OA
DOCKED: ATOM      8  H   UNL     1      37.182   9.560 124.272 -0.58 -0.00    +0.000 HD
DOCKED: ENDBRANCH   3   6
DOCKED: ENDBRANCH   2   3
DOCKED: ENDBRANCH   1   2
DOCKED: BRANCH   1   9
DOCKED: ATOM      9  C   UNL     1      35.941  14.402 123.074 -0.43 -0.00    +0.000 C 
DOCKED: BRANCH   9  10
DOCKED: ATOM     10  C   UNL     1      34.830  15.044 123.923 -0.57 -0.00    +0.000 C 
DOCKED: BRANCH  10  11
DOCKED: ATOM     11  C   UNL     1      35.151  16.487 124.335 -0.46 -0.00    +0.000 C 
DOCKED: BRANCH  11  12
DOCKED: ATOM     12  C   UNL     1      34.894  17.426 123.195 -0.39 -0.00    +0.000 C 
DOCKED: ATOM     13  N   UNL     1      35.792  18.508 122.937 -0.22 -0.00    +0.000 N 
DOCKED: ATOM     14  O   UNL     1      35.554  19.368 121.918 -0.62 -0.00    +0.000 OA
DOCKED: ATOM     15  O   UNL     1      33.862  17.282 122.488 -0.47 -0.00    +0.000 OA
DOCKED: ATOM     16  H   UNL     1      36.587  18.629 123.503 +0.00 -0.00    +0.000 HD
DOCKED: ENDBRANCH  11  12
DOCKED: ENDBRANCH  10  11
DOCKED: ENDBRANCH   9  10
DOCKED: ENDBRANCH   1   9
DOCKED: TORSDOF 7
DOCKED: TER
DOCKED: ENDMDL
________________________________________________________________________________


	BEGINNING GENETIC ALGORITHM DOCKING 10 of 100
Run: 10 Seed: 1504507420 505904702 [ Run 10 of 100 GA/GALS ]
Beginning LAMARCKIAN GENETIC ALGORITHM (LGA), with a maximum of 2500000 energy evaluations.

Final-Value: -12.930


	FINAL GENETIC ALGORITHM DOCKED STATE
	_______________________________________________


Detailed state:  trans 37.255 12.094 122.357 quatxyzw -0.454196 0.040800 -0.726355 -0.514246 center 0.016 0.633 0.013 ntor 7 -121.2078 -64.2531 -33.8961 33.9272 -124.8189 158.0760 -179.8713
State:	 37.255  12.094 122.357  -0.530  0.048 -0.847 -118.106   -121.21  -64.25  -33.90   33.93 -124.82  158.08 -179.87

DOCKED: MODEL       10
DOCKED: USER    Run = 10
DOCKED: USER    DPF = ligand_dock.biased.dpf
DOCKED: USER  
DOCKED: USER    Estimated Free Energy of Binding    =  -10.36 kcal/mol  [=(1)+(2)+(3)-(4)]
DOCKED: USER    Estimated Inhibition Constant, Ki   =   25.66 nM (nanomolar)  [Temperature = 298.15 K]
DOCKED: USER    
DOCKED: USER    (1) Final Intermolecular Energy     =  -12.44 kcal/mol
DOCKED: USER        vdW + Hbond + desolv Energy     =  -12.44 kcal/mol
DOCKED: USER        Electrostatic Energy            =   +0.00 kcal/mol
DOCKED: USER    (2) Final Total Internal Energy     =   -0.49 kcal/mol
DOCKED: USER    (3) Torsional Free Energy           =   +2.09 kcal/mol
DOCKED: USER    (4) Unbound System's Energy  [=(2)] =   -0.49 kcal/mol
DOCKED: USER    
DOCKED: USER    
DOCKED: USER    NEWDPF move ligand.pdbqt
DOCKED: USER    NEWDPF about 0.016000 0.633000 0.013000
DOCKED: USER    NEWDPF tran0 37.255126 12.094439 122.356981
DOCKED: USER    NEWDPF quaternion0 -0.454196 0.040800 -0.726355 -0.514246
DOCKED: USER    NEWDPF axisangle0 -0.529587 0.047572 -0.846921 -118.105858
DOCKED: USER    NEWDPF quat0 -0.529587 0.047572 -0.846921 -118.105858
DOCKED: USER    NEWDPF dihe0 -121.21 -64.25 -33.90 33.93 -124.82 158.08 -179.87 
DOCKED: USER  keepresnum = 1 
DOCKED: USER  
DOCKED: REMARK  Name = 
DOCKED: REMARK  7 active torsions:
DOCKED: REMARK  status: ('A' for Active; 'I' for Inactive)
DOCKED: REMARK    1  A    between atoms: C_3  and  C_4
DOCKED: REMARK    2  A    between atoms: C_4  and  C_5
DOCKED: REMARK    3  A    between atoms: C_5  and  C_6
DOCKED: REMARK    4  A    between atoms: C_6  and  C_7
DOCKED: REMARK    5  A    between atoms: C_7  and  C_8
DOCKED: REMARK    6  A    between atoms: C_8  and  C_9
DOCKED: REMARK    7  A    between atoms: C_9  and  C_10
DOCKED: REMARK                            x       y       z     vdW  Elec       q    Type
DOCKED: REMARK                         _______ _______ _______ _____ _____    ______ ____
DOCKED: USER                              x       y       z     vdW  Elec       q    Type
DOCKED: USER                           _______ _______ _______ _____ _____    ______ ____
DOCKED: ROOT
DOCKED: ATOM      1  C   UNL     1      36.071  12.912 124.032 -0.49 -0.00    +0.000 C 
DOCKED: ENDROOT
DOCKED: BRANCH   1   2
DOCKED: ATOM      2  C   UNL     1      35.709  11.575 123.370 -0.62 -0.00    +0.000 C 
DOCKED: BRANCH   2   3
DOCKED: ATOM      3  C   UNL     1      36.692  11.235 122.246 -0.64 -0.00    +0.000 C 
DOCKED: BRANCH   3   6
DOCKED: ATOM      4  O   UNL     1      37.132   7.616 123.249 -2.51 -0.00    +0.000 OA
DOCKED: ATOM      5  N   UNL     1      36.938   8.953 123.332 -0.62 -0.00    +0.000 N 
DOCKED: ATOM      6  C   UNL     1      36.888   9.753 122.149 -0.63 -0.00    +0.000 C 
DOCKED: ATOM      7  O   UNL     1      37.047   9.217 121.020 -2.73 -0.00    +0.000 OA
DOCKED: ATOM      8  H   UNL     1      36.831   9.378 124.213 -0.52 -0.00    +0.000 HD
DOCKED: ENDBRANCH   3   6
DOCKED: ENDBRANCH   2   3
DOCKED: ENDBRANCH   1   2
DOCKED: BRANCH   1   9
DOCKED: ATOM      9  C   UNL     1      35.987  14.105 123.062 -0.43 -0.00    +0.000 C 
DOCKED: BRANCH   9  10
DOCKED: ATOM     10  C   UNL     1      34.967  15.190 123.451 -0.46 -0.00    +0.000 C 
DOCKED: BRANCH  10  11
DOCKED: ATOM     11  C   UNL     1      35.602  16.364 124.207 -0.42 -0.00    +0.000 C 
DOCKED: BRANCH  11  12
DOCKED: ATOM     12  C   UNL     1      34.721  16.794 125.341 -0.37 -0.00    +0.000 C 
DOCKED: ATOM     13  N   UNL     1      33.744  15.897 125.874 -0.47 -0.00    +0.000 N 
DOCKED: ATOM     14  O   UNL     1      32.935  16.286 126.887 -1.15 -0.00    +0.000 OA
DOCKED: ATOM     15  O   UNL     1      34.815  17.965 125.797 -0.32 -0.00    +0.000 OA
DOCKED: ATOM     16  H   UNL     1      33.660  14.990 125.503 -0.08 -0.00    +0.000 HD
DOCKED: ENDBRANCH  11  12
DOCKED: ENDBRANCH  10  11
DOCKED: ENDBRANCH   9  10
DOCKED: ENDBRANCH   1   9
DOCKED: TORSDOF 7
DOCKED: TER
DOCKED: ENDMDL
________________________________________________________________________________


	BEGINNING GENETIC ALGORITHM DOCKING 11 of 100
Run: 11 Seed: 665010559 2105172358 [ Run 11 of 100 GA/GALS ]
Beginning LAMARCKIAN GENETIC ALGORITHM (LGA), with a maximum of 2500000 energy evaluations.

Final-Value: -13.000


	FINAL GENETIC ALGORITHM DOCKED STATE
	_______________________________________________


Detailed state:  trans 35.427 13.518 122.050 quatxyzw 0.097058 0.290348 -0.799070 0.517459 center 0.016 0.633 0.013 ntor 7 -173.5719 -64.3877 -178.6113 -59.2617 -11.5276 163.0503 -50.2341
State:	 35.427  13.518 122.050   0.113  0.339 -0.934 117.676   -173.57  -64.39 -178.61  -59.26  -11.53  163.05  -50.23

DOCKED: MODEL       11
DOCKED: USER    Run = 11
DOCKED: USER    DPF = ligand_dock.biased.dpf
DOCKED: USER  
DOCKED: USER    Estimated Free Energy of Binding    =  -10.35 kcal/mol  [=(1)+(2)+(3)-(4)]
DOCKED: USER    Estimated Inhibition Constant, Ki   =   25.95 nM (nanomolar)  [Temperature = 298.15 K]
DOCKED: USER    
DOCKED: USER    (1) Final Intermolecular Energy     =  -12.44 kcal/mol
DOCKED: USER        vdW + Hbond + desolv Energy     =  -12.44 kcal/mol
DOCKED: USER        Electrostatic Energy            =   +0.00 kcal/mol
DOCKED: USER    (2) Final Total Internal Energy     =   -0.56 kcal/mol
DOCKED: USER    (3) Torsional Free Energy           =   +2.09 kcal/mol
DOCKED: USER    (4) Unbound System's Energy  [=(2)] =   -0.56 kcal/mol
DOCKED: USER    
DOCKED: USER    
DOCKED: USER    NEWDPF move ligand.pdbqt
DOCKED: USER    NEWDPF about 0.016000 0.633000 0.013000
DOCKED: USER    NEWDPF tran0 35.427447 13.517611 122.050105
DOCKED: USER    NEWDPF quaternion0 0.097058 0.290348 -0.799070 0.517459
DOCKED: USER    NEWDPF axisangle0 0.113424 0.339307 -0.933812 117.676025
DOCKED: USER    NEWDPF quat0 0.113424 0.339307 -0.933812 117.676025
DOCKED: USER    NEWDPF dihe0 -173.57 -64.39 -178.61 -59.26 -11.53 163.05 -50.23 
DOCKED: USER  keepresnum = 1 
DOCKED: USER  
DOCKED: REMARK  Name = 
DOCKED: REMARK  7 active torsions:
DOCKED: REMARK  status: ('A' for Active; 'I' for Inactive)
DOCKED: REMARK    1  A    between atoms: C_3  and  C_4
DOCKED: REMARK    2  A    between atoms: C_4  and  C_5
DOCKED: REMARK    3  A    between atoms: C_5  and  C_6
DOCKED: REMARK    4  A    between atoms: C_6  and  C_7
DOCKED: REMARK    5  A    between atoms: C_7  and  C_8
DOCKED: REMARK    6  A    between atoms: C_8  and  C_9
DOCKED: REMARK    7  A    between atoms: C_9  and  C_10
DOCKED: REMARK                            x       y       z     vdW  Elec       q    Type
DOCKED: REMARK                         _______ _______ _______ _____ _____    ______ ____
DOCKED: USER                              x       y       z     vdW  Elec       q    Type
DOCKED: USER                           _______ _______ _______ _____ _____    ______ ____
DOCKED: ROOT
DOCKED: ATOM      1  C   UNL     1      36.624  14.375 123.696 -0.47 -0.00    +0.000 C 
DOCKED: ENDROOT
DOCKED: BRANCH   1   2
DOCKED: ATOM      2  C   UNL     1      36.317  15.177 122.424 -0.29 -0.00    +0.000 C 
DOCKED: BRANCH   2   3
DOCKED: ATOM      3  C   UNL     1      35.409  16.371 122.734 -0.35 -0.00    +0.000 C 
DOCKED: BRANCH   3   6
DOCKED: ATOM      4  O   UNL     1      33.720  15.851 126.077 -0.95 -0.00    +0.000 OA
DOCKED: ATOM      5  N   UNL     1      33.990  15.772 124.754 -0.55 -0.00    +0.000 N 
DOCKED: ATOM      6  C   UNL     1      35.124  16.446 124.203 -0.47 -0.00    +0.000 C 
DOCKED: ATOM      7  O   UNL     1      35.866  17.140 124.949 -0.33 -0.00    +0.000 OA
DOCKED: ATOM      8  H   UNL     1      33.403  15.245 124.166 -0.16 -0.00    +0.000 HD
DOCKED: ENDBRANCH   3   6
DOCKED: ENDBRANCH   2   3
DOCKED: ENDBRANCH   1   2
DOCKED: BRANCH   1   9
DOCKED: ATOM      9  C   UNL     1      37.452  13.105 123.421 -0.56 -0.00    +0.000 C 
DOCKED: BRANCH   9  10
DOCKED: ATOM     10  C   UNL     1      36.702  11.779 123.642 -0.70 -0.00    +0.000 C 
DOCKED: BRANCH  10  11
DOCKED: ATOM     11  C   UNL     1      36.227  11.136 122.333 -0.66 -0.00    +0.000 C 
DOCKED: BRANCH  11  12
DOCKED: ATOM     12  C   UNL     1      36.672   9.706 122.261 -0.70 -0.00    +0.000 C 
DOCKED: ATOM     13  N   UNL     1      37.020   8.999 123.454 -0.59 -0.00    +0.000 N 
DOCKED: ATOM     14  O   UNL     1      37.438   7.713 123.392 -2.55 -0.00    +0.000 OA
DOCKED: ATOM     15  O   UNL     1      36.778   9.140 121.141 -2.64 -0.00    +0.000 OA
DOCKED: ATOM     16  H   UNL     1      36.955   9.451 124.326 -0.48 -0.00    +0.000 HD
DOCKED: ENDBRANCH  11  12
DOCKED: ENDBRANCH  10  11
DOCKED: ENDBRANCH   9  10
DOCKED: ENDBRANCH   1   9
DOCKED: TORSDOF 7
DOCKED: TER
DOCKED: ENDMDL
________________________________________________________________________________


	BEGINNING GENETIC ALGORITHM DOCKING 12 of 100
Run: 12 Seed: 706545923 532849895 [ Run 12 of 100 GA/GALS ]
Beginning LAMARCKIAN GENETIC ALGORITHM (LGA), with a maximum of 2500000 energy evaluations.

Final-Value: -12.457


	FINAL GENETIC ALGORITHM DOCKED STATE
	_______________________________________________


Detailed state:  trans 37.199 14.186 123.077 quatxyzw -0.626243 -0.047215 -0.293487 0.720733 center 0.016 0.633 0.013 ntor 7 58.6103 63.0767 75.6556 5.7079 -109.8932 156.3962 -90.9183
State:	 37.199  14.186 123.077  -0.903 -0.068 -0.423 87.770     58.61   63.08   75.66    5.71 -109.89  156.40  -90.92

DOCKED: MODEL       12
DOCKED: USER    Run = 12
DOCKED: USER    DPF = ligand_dock.biased.dpf
DOCKED: USER  
DOCKED: USER    Estimated Free Energy of Binding    =   -9.70 kcal/mol  [=(1)+(2)+(3)-(4)]
DOCKED: USER    Estimated Inhibition Constant, Ki   =   77.88 nM (nanomolar)  [Temperature = 298.15 K]
DOCKED: USER    
DOCKED: USER    (1) Final Intermolecular Energy     =  -11.79 kcal/mol
DOCKED: USER        vdW + Hbond + desolv Energy     =  -11.79 kcal/mol
DOCKED: USER        Electrostatic Energy            =   +0.00 kcal/mol
DOCKED: USER    (2) Final Total Internal Energy     =   -0.67 kcal/mol
DOCKED: USER    (3) Torsional Free Energy           =   +2.09 kcal/mol
DOCKED: USER    (4) Unbound System's Energy  [=(2)] =   -0.67 kcal/mol
DOCKED: USER    
DOCKED: USER    
DOCKED: USER    NEWDPF move ligand.pdbqt
DOCKED: USER    NEWDPF about 0.016000 0.633000 0.013000
DOCKED: USER    NEWDPF tran0 37.198962 14.185712 123.077082
DOCKED: USER    NEWDPF quaternion0 -0.626243 -0.047215 -0.293487 0.720733
DOCKED: USER    NEWDPF axisangle0 -0.903392 -0.068110 -0.423372 87.769923
DOCKED: USER    NEWDPF quat0 -0.903392 -0.068110 -0.423372 87.769923
DOCKED: USER    NEWDPF dihe0 58.61 63.08 75.66 5.71 -109.89 156.40 -90.92 
DOCKED: USER  keepresnum = 1 
DOCKED: USER  
DOCKED: REMARK  Name = 
DOCKED: REMARK  7 active torsions:
DOCKED: REMARK  status: ('A' for Active; 'I' for Inactive)
DOCKED: REMARK    1  A    between atoms: C_3  and  C_4
DOCKED: REMARK    2  A    between atoms: C_4  and  C_5
DOCKED: REMARK    3  A    between atoms: C_5  and  C_6
DOCKED: REMARK    4  A    between atoms: C_6  and  C_7
DOCKED: REMARK    5  A    between atoms: C_7  and  C_8
DOCKED: REMARK    6  A    between atoms: C_8  and  C_9
DOCKED: REMARK    7  A    between atoms: C_9  and  C_10
DOCKED: REMARK                            x       y       z     vdW  Elec       q    Type
DOCKED: REMARK                         _______ _______ _______ _____ _____    ______ ____
DOCKED: USER                              x       y       z     vdW  Elec       q    Type
DOCKED: USER                           _______ _______ _______ _____ _____    ______ ____
DOCKED: ROOT
DOCKED: ATOM      1  C   UNL     1      38.556  13.897 121.359 -0.40 -0.00    +0.000 C 
DOCKED: ENDROOT
DOCKED: BRANCH   1   2
DOCKED: ATOM      2  C   UNL     1      38.322  15.284 121.973 -0.33 -0.00    +0.000 C 
DOCKED: BRANCH   2   3
DOCKED: ATOM      3  C   UNL     1      37.662  15.170 123.351 -0.35 -0.00    +0.000 C 
DOCKED: BRANCH   3   6
DOCKED: ATOM      4  O   UNL     1      33.929  15.074 123.949 -0.69 -0.00    +0.000 OA
DOCKED: ATOM      5  N   UNL     1      35.248  14.782 124.038 -0.55 -0.00    +0.000 N 
DOCKED: ATOM      6  C   UNL     1      36.205  15.509 123.264 -0.43 -0.00    +0.000 C 
DOCKED: ATOM      7  O   UNL     1      35.819  16.413 122.475 -0.32 -0.00    +0.000 OA
DOCKED: ATOM      8  H   UNL     1      35.550  14.065 124.640 -0.05 -0.00    +0.000 HD
DOCKED: ENDBRANCH   3   6
DOCKED: ENDBRANCH   2   3
DOCKED: ENDBRANCH   1   2
DOCKED: BRANCH   1   9
DOCKED: ATOM      9  C   UNL     1      37.275  13.276 120.772 -0.45 -0.00    +0.000 C 
DOCKED: BRANCH   9  10
DOCKED: ATOM     10  C   UNL     1      37.243  11.737 120.759 -0.48 -0.00    +0.000 C 
DOCKED: BRANCH  10  11
DOCKED: ATOM     11  C   UNL     1      36.535  11.144 121.984 -0.62 -0.00    +0.000 C 
DOCKED: BRANCH  11  12
DOCKED: ATOM     12  C   UNL     1      36.810   9.674 122.086 -0.65 -0.00    +0.000 C 
DOCKED: ATOM     13  N   UNL     1      36.874   9.040 123.366 -0.59 -0.00    +0.000 N 
DOCKED: ATOM     14  O   UNL     1      37.139   7.716 123.463 -2.68 -0.00    +0.000 OA
DOCKED: ATOM     15  O   UNL     1      37.026   9.004 121.041 -2.70 -0.00    +0.000 OA
DOCKED: ATOM     16  H   UNL     1      36.724   9.570 124.181 -0.49 -0.00    +0.000 HD
DOCKED: ENDBRANCH  11  12
DOCKED: ENDBRANCH  10  11
DOCKED: ENDBRANCH   9  10
DOCKED: ENDBRANCH   1   9
DOCKED: TORSDOF 7
DOCKED: TER
DOCKED: ENDMDL
________________________________________________________________________________


	BEGINNING GENETIC ALGORITHM DOCKING 13 of 100
Run: 13 Seed: 660526893 707574377 [ Run 13 of 100 GA/GALS ]
Beginning LAMARCKIAN GENETIC ALGORITHM (LGA), with a maximum of 2500000 energy evaluations.

Final-Value: -12.938


	FINAL GENETIC ALGORITHM DOCKED STATE
	_______________________________________________


Detailed state:  trans 35.825 9.165 121.242 quatxyzw -0.632586 -0.732243 0.081222 -0.238868 center 0.016 0.633 0.013 ntor 7 88.8999 -148.7430 -16.9359 -139.4394 -62.5803 -47.5935 107.2474
State:	 35.825   9.165 121.242  -0.651 -0.754  0.084 -152.361     88.90 -148.74  -16.94 -139.44  -62.58  -47.59  107.25

DOCKED: MODEL       13
DOCKED: USER    Run = 13
DOCKED: USER    DPF = ligand_dock.biased.dpf
DOCKED: USER  
DOCKED: USER    Estimated Free Energy of Binding    =  -10.34 kcal/mol  [=(1)+(2)+(3)-(4)]
DOCKED: USER    Estimated Inhibition Constant, Ki   =   26.23 nM (nanomolar)  [Temperature = 298.15 K]
DOCKED: USER    
DOCKED: USER    (1) Final Intermolecular Energy     =  -12.43 kcal/mol
DOCKED: USER        vdW + Hbond + desolv Energy     =  -12.43 kcal/mol
DOCKED: USER        Electrostatic Energy            =   +0.00 kcal/mol
DOCKED: USER    (2) Final Total Internal Energy     =   -0.51 kcal/mol
DOCKED: USER    (3) Torsional Free Energy           =   +2.09 kcal/mol
DOCKED: USER    (4) Unbound System's Energy  [=(2)] =   -0.51 kcal/mol
DOCKED: USER    
DOCKED: USER    
DOCKED: USER    NEWDPF move ligand.pdbqt
DOCKED: USER    NEWDPF about 0.016000 0.633000 0.013000
DOCKED: USER    NEWDPF tran0 35.825112 9.164856 121.242453
DOCKED: USER    NEWDPF quaternion0 -0.632586 -0.732243 0.081222 -0.238868
DOCKED: USER    NEWDPF axisangle0 -0.651444 -0.754072 0.083644 -152.360531
DOCKED: USER    NEWDPF quat0 -0.651444 -0.754072 0.083644 -152.360531
DOCKED: USER    NEWDPF dihe0 88.90 -148.74 -16.94 -139.44 -62.58 -47.59 107.25 
DOCKED: USER  keepresnum = 1 
DOCKED: USER  
DOCKED: REMARK  Name = 
DOCKED: REMARK  7 active torsions:
DOCKED: REMARK  status: ('A' for Active; 'I' for Inactive)
DOCKED: REMARK    1  A    between atoms: C_3  and  C_4
DOCKED: REMARK    2  A    between atoms: C_4  and  C_5
DOCKED: REMARK    3  A    between atoms: C_5  and  C_6
DOCKED: REMARK    4  A    between atoms: C_6  and  C_7
DOCKED: REMARK    5  A    between atoms: C_7  and  C_8
DOCKED: REMARK    6  A    between atoms: C_8  and  C_9
DOCKED: REMARK    7  A    between atoms: C_9  and  C_10
DOCKED: REMARK                            x       y       z     vdW  Elec       q    Type
DOCKED: REMARK                         _______ _______ _______ _____ _____    ______ ____
DOCKED: USER                              x       y       z     vdW  Elec       q    Type
DOCKED: USER                           _______ _______ _______ _____ _____    ______ ____
DOCKED: ROOT
DOCKED: ATOM      1  C   UNL     1      33.699   9.307 121.824 -0.60 -0.00    +0.000 C 
DOCKED: ENDROOT
DOCKED: BRANCH   1   2
DOCKED: ATOM      2  C   UNL     1      34.816   9.862 122.720 -0.42 -0.00    +0.000 C 
DOCKED: BRANCH   2   3
DOCKED: ATOM      3  C   UNL     1      35.579  10.987 122.014 -0.44 -0.00    +0.000 C 
DOCKED: BRANCH   3   6
DOCKED: ATOM      4  O   UNL     1      38.050  13.470 123.436 -0.59 -0.00    +0.000 OA
DOCKED: ATOM      5  N   UNL     1      37.307  12.769 122.549 -0.51 -0.00    +0.000 N 
DOCKED: ATOM      6  C   UNL     1      36.386  11.774 123.000 -0.68 -0.00    +0.000 C 
DOCKED: ATOM      7  O   UNL     1      36.279  11.529 124.232 -0.74 -0.00    +0.000 OA
DOCKED: ATOM      8  H   UNL     1      37.401  12.945 121.585 -0.01 -0.00    +0.000 HD
DOCKED: ENDBRANCH   3   6
DOCKED: ENDBRANCH   2   3
DOCKED: ENDBRANCH   1   2
DOCKED: BRANCH   1   9
DOCKED: ATOM      9  C   UNL     1      33.798   7.785 121.612 -0.67 -0.00    +0.000 C 
DOCKED: BRANCH   9  10
DOCKED: ATOM     10  C   UNL     1      34.060   6.966 122.888 -0.76 -0.00    +0.000 C 
DOCKED: BRANCH  10  11
DOCKED: ATOM     11  C   UNL     1      35.473   6.371 122.938 -0.73 -0.00    +0.000 C 
DOCKED: BRANCH  11  12
DOCKED: ATOM     12  C   UNL     1      36.493   7.418 122.603 -0.77 -0.00    +0.000 C 
DOCKED: ATOM     13  N   UNL     1      36.504   8.026 121.310 -0.55 -0.00    +0.000 N 
DOCKED: ATOM     14  O   UNL     1      37.433   8.959 120.998 -2.37 -0.00    +0.000 OA
DOCKED: ATOM     15  O   UNL     1      37.368   7.732 123.454 -2.61 -0.00    +0.000 OA
DOCKED: ATOM     16  H   UNL     1      35.831   7.764 120.641 +0.03 +0.00    +0.000 HD
DOCKED: ENDBRANCH  11  12
DOCKED: ENDBRANCH  10  11
DOCKED: ENDBRANCH   9  10
DOCKED: ENDBRANCH   1   9
DOCKED: TORSDOF 7
DOCKED: TER
DOCKED: ENDMDL
________________________________________________________________________________


	BEGINNING GENETIC ALGORITHM DOCKING 14 of 100
Run: 14 Seed: 1472870776 691289771 [ Run 14 of 100 GA/GALS ]
Beginning LAMARCKIAN GENETIC ALGORITHM (LGA), with a maximum of 2500000 energy evaluations.

Final-Value: -12.997


	FINAL GENETIC ALGORITHM DOCKED STATE
	_______________________________________________


Detailed state:  trans 38.551 13.959 123.426 quatxyzw 0.688246 0.654824 -0.233934 -0.206875 center 0.016 0.633 0.013 ntor 7 -171.4205 -158.7991 107.2544 -28.4903 -50.2803 131.9541 -97.8879
State:	 38.551  13.959 123.426   0.703  0.669 -0.239 -156.121   -171.42 -158.80  107.25  -28.49  -50.28  131.95  -97.89

DOCKED: MODEL       14
DOCKED: USER    Run = 14
DOCKED: USER    DPF = ligand_dock.biased.dpf
DOCKED: USER  
DOCKED: USER    Estimated Free Energy of Binding    =  -10.25 kcal/mol  [=(1)+(2)+(3)-(4)]
DOCKED: USER    Estimated Inhibition Constant, Ki   =   30.76 nM (nanomolar)  [Temperature = 298.15 K]
DOCKED: USER    
DOCKED: USER    (1) Final Intermolecular Energy     =  -12.34 kcal/mol
DOCKED: USER        vdW + Hbond + desolv Energy     =  -12.34 kcal/mol
DOCKED: USER        Electrostatic Energy            =   +0.00 kcal/mol
DOCKED: USER    (2) Final Total Internal Energy     =   -0.66 kcal/mol
DOCKED: USER    (3) Torsional Free Energy           =   +2.09 kcal/mol
DOCKED: USER    (4) Unbound System's Energy  [=(2)] =   -0.66 kcal/mol
DOCKED: USER    
DOCKED: USER    
DOCKED: USER    NEWDPF move ligand.pdbqt
DOCKED: USER    NEWDPF about 0.016000 0.633000 0.013000
DOCKED: USER    NEWDPF tran0 38.551034 13.959469 123.425726
DOCKED: USER    NEWDPF quaternion0 0.688246 0.654824 -0.233934 -0.206875
DOCKED: USER    NEWDPF axisangle0 0.703464 0.669303 -0.239107 -156.121395
DOCKED: USER    NEWDPF quat0 0.703464 0.669303 -0.239107 -156.121395
DOCKED: USER    NEWDPF dihe0 -171.42 -158.80 107.25 -28.49 -50.28 131.95 -97.89 
DOCKED: USER  keepresnum = 1 
DOCKED: USER  
DOCKED: REMARK  Name = 
DOCKED: REMARK  7 active torsions:
DOCKED: REMARK  status: ('A' for Active; 'I' for Inactive)
DOCKED: REMARK    1  A    between atoms: C_3  and  C_4
DOCKED: REMARK    2  A    between atoms: C_4  and  C_5
DOCKED: REMARK    3  A    between atoms: C_5  and  C_6
DOCKED: REMARK    4  A    between atoms: C_6  and  C_7
DOCKED: REMARK    5  A    between atoms: C_7  and  C_8
DOCKED: REMARK    6  A    between atoms: C_8  and  C_9
DOCKED: REMARK    7  A    between atoms: C_9  and  C_10
DOCKED: REMARK                            x       y       z     vdW  Elec       q    Type
DOCKED: REMARK                         _______ _______ _______ _____ _____    ______ ____
DOCKED: USER                              x       y       z     vdW  Elec       q    Type
DOCKED: USER                           _______ _______ _______ _____ _____    ______ ____
DOCKED: ROOT
DOCKED: ATOM      1  C   UNL     1      36.441  14.167 122.809 -0.45 -0.00    +0.000 C 
DOCKED: ENDROOT
DOCKED: BRANCH   1   2
DOCKED: ATOM      2  C   UNL     1      37.239  15.359 123.357 -0.39 -0.00    +0.000 C 
DOCKED: BRANCH   2   3
DOCKED: ATOM      3  C   UNL     1      38.228  15.884 122.311 -0.29 -0.00    +0.000 C 
DOCKED: BRANCH   3   6
DOCKED: ATOM      4  O   UNL     1      41.558  14.158 122.794 -1.04 +0.00    +0.000 OA
DOCKED: ATOM      5  N   UNL     1      40.523  15.015 122.963 -0.38 -0.00    +0.000 N 
DOCKED: ATOM      6  C   UNL     1      39.363  14.922 122.133 -0.41 -0.00    +0.000 C 
DOCKED: ATOM      7  O   UNL     1      39.309  14.054 121.222 -0.71 -0.00    +0.000 OA
DOCKED: ATOM      8  H   UNL     1      40.569  15.705 123.662 -0.01 -0.00    +0.000 HD
DOCKED: ENDBRANCH   3   6
DOCKED: ENDBRANCH   2   3
DOCKED: ENDBRANCH   1   2
DOCKED: BRANCH   1   9
DOCKED: ATOM      9  C   UNL     1      36.290  13.025 123.831 -0.61 -0.00    +0.000 C 
DOCKED: BRANCH   9  10
DOCKED: ATOM     10  C   UNL     1      35.963  11.648 123.225 -0.68 -0.00    +0.000 C 
DOCKED: BRANCH  10  11
DOCKED: ATOM     11  C   UNL     1      37.141  11.040 122.452 -0.48 -0.00    +0.000 C 
DOCKED: BRANCH  11  12
DOCKED: ATOM     12  C   UNL     1      36.974   9.555 122.327 -0.63 -0.00    +0.000 C 
DOCKED: ATOM     13  N   UNL     1      37.179   8.710 123.462 -0.61 -0.00    +0.000 N 
DOCKED: ATOM     14  O   UNL     1      37.045   7.368 123.350 -2.40 -0.00    +0.000 OA
DOCKED: ATOM     15  O   UNL     1      36.691   9.050 121.209 -2.62 -0.00    +0.000 OA
DOCKED: ATOM     16  H   UNL     1      37.419   9.107 124.329 -0.62 -0.00    +0.000 HD
DOCKED: ENDBRANCH  11  12
DOCKED: ENDBRANCH  10  11
DOCKED: ENDBRANCH   9  10
DOCKED: ENDBRANCH   1   9
DOCKED: TORSDOF 7
DOCKED: TER
DOCKED: ENDMDL
________________________________________________________________________________


	BEGINNING GENETIC ALGORITHM DOCKING 15 of 100
Run: 15 Seed: 1480321489 912174961 [ Run 15 of 100 GA/GALS ]
Beginning LAMARCKIAN GENETIC ALGORITHM (LGA), with a maximum of 2500000 energy evaluations.

Final-Value: -12.613


	FINAL GENETIC ALGORITHM DOCKED STATE
	_______________________________________________


Detailed state:  trans 35.940 12.380 124.507 quatxyzw 0.530567 0.211715 0.773241 -0.275269 center 0.016 0.633 0.013 ntor 7 21.9632 -44.7879 83.4195 -22.0628 60.7800 -165.2540 -8.5306
State:	 35.940  12.380 124.507   0.552  0.220  0.804 -148.044     21.96  -44.79   83.42  -22.06   60.78 -165.25   -8.53

DOCKED: MODEL       15
DOCKED: USER    Run = 15
DOCKED: USER    DPF = ligand_dock.biased.dpf
DOCKED: USER  
DOCKED: USER    Estimated Free Energy of Binding    =  -10.06 kcal/mol  [=(1)+(2)+(3)-(4)]
DOCKED: USER    Estimated Inhibition Constant, Ki   =   42.50 nM (nanomolar)  [Temperature = 298.15 K]
DOCKED: USER    
DOCKED: USER    (1) Final Intermolecular Energy     =  -12.14 kcal/mol
DOCKED: USER        vdW + Hbond + desolv Energy     =  -12.14 kcal/mol
DOCKED: USER        Electrostatic Energy            =   +0.00 kcal/mol
DOCKED: USER    (2) Final Total Internal Energy     =   -0.47 kcal/mol
DOCKED: USER    (3) Torsional Free Energy           =   +2.09 kcal/mol
DOCKED: USER    (4) Unbound System's Energy  [=(2)] =   -0.47 kcal/mol
DOCKED: USER    
DOCKED: USER    
DOCKED: USER    NEWDPF move ligand.pdbqt
DOCKED: USER    NEWDPF about 0.016000 0.633000 0.013000
DOCKED: USER    NEWDPF tran0 35.939568 12.380439 124.507470
DOCKED: USER    NEWDPF quaternion0 0.530567 0.211715 0.773241 -0.275269
DOCKED: USER    NEWDPF axisangle0 0.551888 0.220223 0.804314 -148.043853
DOCKED: USER    NEWDPF quat0 0.551888 0.220223 0.804314 -148.043853
DOCKED: USER    NEWDPF dihe0 21.96 -44.79 83.42 -22.06 60.78 -165.25 -8.53 
DOCKED: USER  keepresnum = 1 
DOCKED: USER  
DOCKED: REMARK  Name = 
DOCKED: REMARK  7 active torsions:
DOCKED: REMARK  status: ('A' for Active; 'I' for Inactive)
DOCKED: REMARK    1  A    between atoms: C_3  and  C_4
DOCKED: REMARK    2  A    between atoms: C_4  and  C_5
DOCKED: REMARK    3  A    between atoms: C_5  and  C_6
DOCKED: REMARK    4  A    between atoms: C_6  and  C_7
DOCKED: REMARK    5  A    between atoms: C_7  and  C_8
DOCKED: REMARK    6  A    between atoms: C_8  and  C_9
DOCKED: REMARK    7  A    between atoms: C_9  and  C_10
DOCKED: REMARK                            x       y       z     vdW  Elec       q    Type
DOCKED: REMARK                         _______ _______ _______ _____ _____    ______ ____
DOCKED: USER                              x       y       z     vdW  Elec       q    Type
DOCKED: USER                           _______ _______ _______ _____ _____    ______ ____
DOCKED: ROOT
DOCKED: ATOM      1  C   UNL     1      36.681  14.296 123.696 -0.46 -0.00    +0.000 C 
DOCKED: ENDROOT
DOCKED: BRANCH   1   2
DOCKED: ATOM      2  C   UNL     1      35.237  14.140 124.194 -0.27 -0.00    +0.000 C 
DOCKED: BRANCH   2   3
DOCKED: ATOM      3  C   UNL     1      34.418  15.401 123.905 -0.59 -0.00    +0.000 C 
DOCKED: BRANCH   3   6
DOCKED: ATOM      4  O   UNL     1      35.179  18.297 126.215 -0.26 -0.00    +0.000 OA
DOCKED: ATOM      5  N   UNL     1      35.183  17.492 125.126 -0.31 -0.00    +0.000 N 
DOCKED: ATOM      6  C   UNL     1      34.396  16.299 125.104 -0.50 -0.00    +0.000 C 
DOCKED: ATOM      7  O   UNL     1      33.710  15.980 126.112 -0.98 -0.00    +0.000 OA
DOCKED: ATOM      8  H   UNL     1      35.731  17.731 124.345 -0.00 -0.00    +0.000 HD
DOCKED: ENDBRANCH   3   6
DOCKED: ENDBRANCH   2   3
DOCKED: ENDBRANCH   1   2
DOCKED: BRANCH   1   9
DOCKED: ATOM      9  C   UNL     1      37.009  13.377 122.505 -0.53 -0.00    +0.000 C 
DOCKED: BRANCH   9  10
DOCKED: ATOM     10  C   UNL     1      37.088  11.878 122.842 -0.63 -0.00    +0.000 C 
DOCKED: BRANCH  10  11
DOCKED: ATOM     11  C   UNL     1      36.318  11.000 121.846 -0.52 -0.00    +0.000 C 
DOCKED: BRANCH  11  12
DOCKED: ATOM     12  C   UNL     1      36.711   9.561 122.005 -0.68 -0.00    +0.000 C 
DOCKED: ATOM     13  N   UNL     1      36.908   9.008 123.308 -0.62 -0.00    +0.000 N 
DOCKED: ATOM     14  O   UNL     1      37.278   7.715 123.455 -2.64 -0.00    +0.000 OA
DOCKED: ATOM     15  O   UNL     1      36.906   8.851 120.983 -2.67 -0.00    +0.000 OA
DOCKED: ATOM     16  H   UNL     1      36.773   9.571 124.103 -0.49 -0.00    +0.000 HD
DOCKED: ENDBRANCH  11  12
DOCKED: ENDBRANCH  10  11
DOCKED: ENDBRANCH   9  10
DOCKED: ENDBRANCH   1   9
DOCKED: TORSDOF 7
DOCKED: TER
DOCKED: ENDMDL
________________________________________________________________________________


	BEGINNING GENETIC ALGORITHM DOCKING 16 of 100
Run: 16 Seed: 1950397882 476456295 [ Run 16 of 100 GA/GALS ]
Beginning LAMARCKIAN GENETIC ALGORITHM (LGA), with a maximum of 2500000 energy evaluations.

Final-Value: -13.531


	FINAL GENETIC ALGORITHM DOCKED STATE
	_______________________________________________


Detailed state:  trans 37.910 11.891 122.556 quatxyzw 0.403205 0.030374 0.821689 0.401660 center 0.016 0.633 0.013 ntor 7 -127.7064 179.6656 -30.3651 28.5575 -138.8425 180.0000 -82.5496
State:	 37.910  11.891 122.556   0.440  0.033  0.897 132.636   -127.71  179.67  -30.37   28.56 -138.84  180.00  -82.55

DOCKED: MODEL       16
DOCKED: USER    Run = 16
DOCKED: USER    DPF = ligand_dock.biased.dpf
DOCKED: USER  
DOCKED: USER    Estimated Free Energy of Binding    =  -10.90 kcal/mol  [=(1)+(2)+(3)-(4)]
DOCKED: USER    Estimated Inhibition Constant, Ki   =   10.24 nM (nanomolar)  [Temperature = 298.15 K]
DOCKED: USER    
DOCKED: USER    (1) Final Intermolecular Energy     =  -12.99 kcal/mol
DOCKED: USER        vdW + Hbond + desolv Energy     =  -12.99 kcal/mol
DOCKED: USER        Electrostatic Energy            =   +0.00 kcal/mol
DOCKED: USER    (2) Final Total Internal Energy     =   -0.54 kcal/mol
DOCKED: USER    (3) Torsional Free Energy           =   +2.09 kcal/mol
DOCKED: USER    (4) Unbound System's Energy  [=(2)] =   -0.54 kcal/mol
DOCKED: USER    
DOCKED: USER    
DOCKED: USER    NEWDPF move ligand.pdbqt
DOCKED: USER    NEWDPF about 0.016000 0.633000 0.013000
DOCKED: USER    NEWDPF tran0 37.909601 11.890762 122.556033
DOCKED: USER    NEWDPF quaternion0 0.403205 0.030374 0.821689 0.401660
DOCKED: USER    NEWDPF axisangle0 0.440281 0.033167 0.897247 132.636021
DOCKED: USER    NEWDPF quat0 0.440281 0.033167 0.897247 132.636021
DOCKED: USER    NEWDPF dihe0 -127.71 179.67 -30.37 28.56 -138.84 180.00 -82.55 
DOCKED: USER  keepresnum = 1 
DOCKED: USER  
DOCKED: REMARK  Name = 
DOCKED: REMARK  7 active torsions:
DOCKED: REMARK  status: ('A' for Active; 'I' for Inactive)
DOCKED: REMARK    1  A    between atoms: C_3  and  C_4
DOCKED: REMARK    2  A    between atoms: C_4  and  C_5
DOCKED: REMARK    3  A    between atoms: C_5  and  C_6
DOCKED: REMARK    4  A    between atoms: C_6  and  C_7
DOCKED: REMARK    5  A    between atoms: C_7  and  C_8
DOCKED: REMARK    6  A    between atoms: C_8  and  C_9
DOCKED: REMARK    7  A    between atoms: C_9  and  C_10
DOCKED: REMARK                            x       y       z     vdW  Elec       q    Type
DOCKED: REMARK                         _______ _______ _______ _____ _____    ______ ____
DOCKED: USER                              x       y       z     vdW  Elec       q    Type
DOCKED: USER                           _______ _______ _______ _____ _____    ______ ____
DOCKED: ROOT
DOCKED: ATOM      1  C   UNL     1      36.612  13.198 123.775 -0.55 -0.00    +0.000 C 
DOCKED: ENDROOT
DOCKED: BRANCH   1   2
DOCKED: ATOM      2  C   UNL     1      36.114  11.850 123.234 -0.68 -0.00    +0.000 C 
DOCKED: BRANCH   2   3
DOCKED: ATOM      3  C   UNL     1      37.061  11.305 122.161 -0.56 -0.00    +0.000 C 
DOCKED: BRANCH   3   6
DOCKED: ATOM      4  O   UNL     1      37.064   7.721 123.366 -2.65 -0.00    +0.000 OA
DOCKED: ATOM      5  N   UNL     1      37.073   9.074 123.375 -0.60 -0.00    +0.000 N 
DOCKED: ATOM      6  C   UNL     1      37.033   9.807 122.148 -0.59 -0.00    +0.000 C 
DOCKED: ATOM      7  O   UNL     1      37.013   9.192 121.048 -2.72 -0.00    +0.000 OA
DOCKED: ATOM      8  H   UNL     1      37.106   9.557 124.231 -0.58 -0.00    +0.000 HD
DOCKED: ENDBRANCH   3   6
DOCKED: ENDBRANCH   2   3
DOCKED: ENDBRANCH   1   2
DOCKED: BRANCH   1   9
DOCKED: ATOM      9  C   UNL     1      36.989  14.191 122.659 -0.47 -0.00    +0.000 C 
DOCKED: BRANCH   9  10
DOCKED: ATOM     10  C   UNL     1      38.199  15.090 122.970 -0.38 -0.00    +0.000 C 
DOCKED: BRANCH  10  11
DOCKED: ATOM     11  C   UNL     1      39.362  14.887 121.990 -0.40 -0.00    +0.000 C 
DOCKED: BRANCH  11  12
DOCKED: ATOM     12  C   UNL     1      40.675  15.013 122.703 -0.47 -0.00    +0.000 C 
DOCKED: ATOM     13  N   UNL     1      41.369  16.263 122.717 -0.36 -0.00    +0.000 N 
DOCKED: ATOM     14  O   UNL     1      42.563  16.377 123.346 -1.05 -0.00    +0.000 OA
DOCKED: ATOM     15  O   UNL     1      41.186  14.003 123.256 -0.91 +0.00    +0.000 OA
DOCKED: ATOM     16  H   UNL     1      40.977  17.045 122.267 +0.00 -0.00    +0.000 HD
DOCKED: ENDBRANCH  11  12
DOCKED: ENDBRANCH  10  11
DOCKED: ENDBRANCH   9  10
DOCKED: ENDBRANCH   1   9
DOCKED: TORSDOF 7
DOCKED: TER
DOCKED: ENDMDL
________________________________________________________________________________


	BEGINNING GENETIC ALGORITHM DOCKING 17 of 100
Run: 17 Seed: 1574006850 1639773631 [ Run 17 of 100 GA/GALS ]
Beginning LAMARCKIAN GENETIC ALGORITHM (LGA), with a maximum of 2500000 energy evaluations.

Final-Value: -12.146


	FINAL GENETIC ALGORITHM DOCKED STATE
	_______________________________________________


Detailed state:  trans 34.638 13.970 122.450 quatxyzw -0.200478 -0.125526 0.551694 -0.799804 center 0.016 0.633 0.013 ntor 7 -138.2087 -170.2578 -33.4638 -84.3220 91.3876 157.4096 66.2515
State:	 34.638  13.970 122.450  -0.334 -0.209  0.919 -73.777   -138.21 -170.26  -33.46  -84.32   91.39  157.41   66.25

DOCKED: MODEL       17
DOCKED: USER    Run = 17
DOCKED: USER    DPF = ligand_dock.biased.dpf
DOCKED: USER  
DOCKED: USER    Estimated Free Energy of Binding    =   -9.35 kcal/mol  [=(1)+(2)+(3)-(4)]
DOCKED: USER    Estimated Inhibition Constant, Ki   =  140.80 nM (nanomolar)  [Temperature = 298.15 K]
DOCKED: USER    
DOCKED: USER    (1) Final Intermolecular Energy     =  -11.44 kcal/mol
DOCKED: USER        vdW + Hbond + desolv Energy     =  -11.44 kcal/mol
DOCKED: USER        Electrostatic Energy            =   +0.00 kcal/mol
DOCKED: USER    (2) Final Total Internal Energy     =   -0.71 kcal/mol
DOCKED: USER    (3) Torsional Free Energy           =   +2.09 kcal/mol
DOCKED: USER    (4) Unbound System's Energy  [=(2)] =   -0.71 kcal/mol
DOCKED: USER    
DOCKED: USER    
DOCKED: USER    NEWDPF move ligand.pdbqt
DOCKED: USER    NEWDPF about 0.016000 0.633000 0.013000
DOCKED: USER    NEWDPF tran0 34.638277 13.969725 122.449501
DOCKED: USER    NEWDPF quaternion0 -0.200478 -0.125526 0.551694 -0.799804
DOCKED: USER    NEWDPF axisangle0 -0.333984 -0.209119 0.919089 -73.777297
DOCKED: USER    NEWDPF quat0 -0.333984 -0.209119 0.919089 -73.777297
DOCKED: USER    NEWDPF dihe0 -138.21 -170.26 -33.46 -84.32 91.39 157.41 66.25 
DOCKED: USER  keepresnum = 1 
DOCKED: USER  
DOCKED: REMARK  Name = 
DOCKED: REMARK  7 active torsions:
DOCKED: REMARK  status: ('A' for Active; 'I' for Inactive)
DOCKED: REMARK    1  A    between atoms: C_3  and  C_4
DOCKED: REMARK    2  A    between atoms: C_4  and  C_5
DOCKED: REMARK    3  A    between atoms: C_5  and  C_6
DOCKED: REMARK    4  A    between atoms: C_6  and  C_7
DOCKED: REMARK    5  A    between atoms: C_7  and  C_8
DOCKED: REMARK    6  A    between atoms: C_8  and  C_9
DOCKED: REMARK    7  A    between atoms: C_9  and  C_10
DOCKED: REMARK                            x       y       z     vdW  Elec       q    Type
DOCKED: REMARK                         _______ _______ _______ _____ _____    ______ ____
DOCKED: USER                              x       y       z     vdW  Elec       q    Type
DOCKED: USER                           _______ _______ _______ _____ _____    ______ ____
DOCKED: ROOT
DOCKED: ATOM      1  C   UNL     1      36.354  13.835 123.834 -0.53 -0.00    +0.000 C 
DOCKED: ENDROOT
DOCKED: BRANCH   1   2
DOCKED: ATOM      2  C   UNL     1      36.495  14.458 122.438 -0.31 -0.00    +0.000 C 
DOCKED: BRANCH   2   3
DOCKED: ATOM      3  C   UNL     1      37.856  14.121 121.822 -0.43 -0.00    +0.000 C 
DOCKED: BRANCH   3   6
DOCKED: ATOM      4  O   UNL     1      36.700  12.967 118.411 -0.46 -0.00    +0.000 OA
DOCKED: ATOM      5  N   UNL     1      36.794  13.096 119.755 -0.41 -0.00    +0.000 N 
DOCKED: ATOM      6  C   UNL     1      37.742  13.996 120.333 -0.38 -0.00    +0.000 C 
DOCKED: ATOM      7  O   UNL     1      38.514  14.659 119.589 -0.26 -0.00    +0.000 OA
DOCKED: ATOM      8  H   UNL     1      36.205  12.566 120.339 -0.16 -0.00    +0.000 HD
DOCKED: ENDBRANCH   3   6
DOCKED: ENDBRANCH   2   3
DOCKED: ENDBRANCH   1   2
DOCKED: BRANCH   1   9
DOCKED: ATOM      9  C   UNL     1      35.951  12.349 123.791 -0.63 -0.00    +0.000 C 
DOCKED: BRANCH   9  10
DOCKED: ATOM     10  C   UNL     1      35.880  11.734 122.382 -0.48 -0.00    +0.000 C 
DOCKED: BRANCH  10  11
DOCKED: ATOM     11  C   UNL     1      37.168  10.999 121.985 -0.39 -0.00    +0.000 C 
DOCKED: BRANCH  11  12
DOCKED: ATOM     12  C   UNL     1      36.978   9.516 122.097 -0.63 -0.00    +0.000 C 
DOCKED: ATOM     13  N   UNL     1      37.165   8.858 123.352 -0.60 -0.00    +0.000 N 
DOCKED: ATOM     14  O   UNL     1      37.010   7.517 123.453 -2.52 -0.00    +0.000 OA
DOCKED: ATOM     15  O   UNL     1      36.691   8.844 121.070 -2.61 -0.00    +0.000 OA
DOCKED: ATOM     16  H   UNL     1      37.407   9.384 124.147 -0.60 -0.00    +0.000 HD
DOCKED: ENDBRANCH  11  12
DOCKED: ENDBRANCH  10  11
DOCKED: ENDBRANCH   9  10
DOCKED: ENDBRANCH   1   9
DOCKED: TORSDOF 7
DOCKED: TER
DOCKED: ENDMDL
________________________________________________________________________________


	BEGINNING GENETIC ALGORITHM DOCKING 18 of 100
Run: 18 Seed: 64738278 1387263591 [ Run 18 of 100 GA/GALS ]
Beginning LAMARCKIAN GENETIC ALGORITHM (LGA), with a maximum of 2500000 energy evaluations.

Final-Value: -12.251


	FINAL GENETIC ALGORITHM DOCKED STATE
	_______________________________________________


Detailed state:  trans 37.064 14.756 121.823 quatxyzw 0.424285 0.754216 -0.478621 0.148531 center 0.016 0.633 0.013 ntor 7 24.7899 -146.3324 119.6288 -30.7243 83.8679 177.8889 -88.5751
State:	 37.064  14.756 121.823   0.429  0.763 -0.484 162.916     24.79 -146.33  119.63  -30.72   83.87  177.89  -88.58

DOCKED: MODEL       18
DOCKED: USER    Run = 18
DOCKED: USER    DPF = ligand_dock.biased.dpf
DOCKED: USER  
DOCKED: USER    Estimated Free Energy of Binding    =   -9.66 kcal/mol  [=(1)+(2)+(3)-(4)]
DOCKED: USER    Estimated Inhibition Constant, Ki   =   82.61 nM (nanomolar)  [Temperature = 298.15 K]
DOCKED: USER    
DOCKED: USER    (1) Final Intermolecular Energy     =  -11.75 kcal/mol
DOCKED: USER        vdW + Hbond + desolv Energy     =  -11.75 kcal/mol
DOCKED: USER        Electrostatic Energy            =   +0.00 kcal/mol
DOCKED: USER    (2) Final Total Internal Energy     =   -0.50 kcal/mol
DOCKED: USER    (3) Torsional Free Energy           =   +2.09 kcal/mol
DOCKED: USER    (4) Unbound System's Energy  [=(2)] =   -0.50 kcal/mol
DOCKED: USER    
DOCKED: USER    
DOCKED: USER    NEWDPF move ligand.pdbqt
DOCKED: USER    NEWDPF about 0.016000 0.633000 0.013000
DOCKED: USER    NEWDPF tran0 37.064189 14.755645 121.822934
DOCKED: USER    NEWDPF quaternion0 0.424285 0.754216 -0.478621 0.148531
DOCKED: USER    NEWDPF axisangle0 0.429044 0.762676 -0.483990 162.916446
DOCKED: USER    NEWDPF quat0 0.429044 0.762676 -0.483990 162.916446
DOCKED: USER    NEWDPF dihe0 24.79 -146.33 119.63 -30.72 83.87 177.89 -88.58 
DOCKED: USER  keepresnum = 1 
DOCKED: USER  
DOCKED: REMARK  Name = 
DOCKED: REMARK  7 active torsions:
DOCKED: REMARK  status: ('A' for Active; 'I' for Inactive)
DOCKED: REMARK    1  A    between atoms: C_3  and  C_4
DOCKED: REMARK    2  A    between atoms: C_4  and  C_5
DOCKED: REMARK    3  A    between atoms: C_5  and  C_6
DOCKED: REMARK    4  A    between atoms: C_6  and  C_7
DOCKED: REMARK    5  A    between atoms: C_7  and  C_8
DOCKED: REMARK    6  A    between atoms: C_8  and  C_9
DOCKED: REMARK    7  A    between atoms: C_9  and  C_10
DOCKED: REMARK                            x       y       z     vdW  Elec       q    Type
DOCKED: REMARK                         _______ _______ _______ _____ _____    ______ ____
DOCKED: USER                              x       y       z     vdW  Elec       q    Type
DOCKED: USER                           _______ _______ _______ _____ _____    ______ ____
DOCKED: ROOT
DOCKED: ATOM      1  C   UNL     1      35.437  14.448 123.284 -0.26 -0.00    +0.000 C 
DOCKED: ENDROOT
DOCKED: BRANCH   1   2
DOCKED: ATOM      2  C   UNL     1      36.148  15.803 123.146 -0.40 -0.00    +0.000 C 
DOCKED: BRANCH   2   3
DOCKED: ATOM      3  C   UNL     1      36.142  16.563 124.476 -0.18 -0.00    +0.000 C 
DOCKED: BRANCH   3   6
DOCKED: ATOM      4  O   UNL     1      32.933  16.290 126.458 -0.96 -0.00    +0.000 OA
DOCKED: ATOM      5  N   UNL     1      34.208  16.086 126.051 -0.33 -0.00    +0.000 N 
DOCKED: ATOM      6  C   UNL     1      34.737  16.806 124.935 -0.45 -0.00    +0.000 C 
DOCKED: ATOM      7  O   UNL     1      34.007  17.622 124.310 -0.45 -0.00    +0.000 OA
DOCKED: ATOM      8  H   UNL     1      34.775  15.437 126.526 +0.19 -0.00    +0.000 HD
DOCKED: ENDBRANCH   3   6
DOCKED: ENDBRANCH   2   3
DOCKED: ENDBRANCH   1   2
DOCKED: BRANCH   1   9
DOCKED: ATOM      9  C   UNL     1      36.383  13.315 123.723 -0.58 -0.00    +0.000 C 
DOCKED: BRANCH   9  10
DOCKED: ATOM     10  C   UNL     1      36.002  11.915 123.211 -0.67 -0.00    +0.000 C 
DOCKED: BRANCH  10  11
DOCKED: ATOM     11  C   UNL     1      37.056  11.315 122.271 -0.57 -0.00    +0.000 C 
DOCKED: BRANCH  11  12
DOCKED: ATOM     12  C   UNL     1      36.950   9.819 122.253 -0.61 -0.00    +0.000 C 
DOCKED: ATOM     13  N   UNL     1      37.142   9.069 123.454 -0.55 -0.00    +0.000 N 
DOCKED: ATOM     14  O   UNL     1      37.063   7.718 123.439 -2.69 -0.00    +0.000 OA
DOCKED: ATOM     15  O   UNL     1      36.730   9.221 121.166 -2.63 -0.00    +0.000 OA
DOCKED: ATOM     16  H   UNL     1      37.333   9.538 124.298 -0.61 -0.00    +0.000 HD
DOCKED: ENDBRANCH  11  12
DOCKED: ENDBRANCH  10  11
DOCKED: ENDBRANCH   9  10
DOCKED: ENDBRANCH   1   9
DOCKED: TORSDOF 7
DOCKED: TER
DOCKED: ENDMDL
________________________________________________________________________________


	BEGINNING GENETIC ALGORITHM DOCKING 19 of 100
Run: 19 Seed: 979832112 42228252 [ Run 19 of 100 GA/GALS ]
Beginning LAMARCKIAN GENETIC ALGORITHM (LGA), with a maximum of 2500000 energy evaluations.

Final-Value: -13.418


	FINAL GENETIC ALGORITHM DOCKED STATE
	_______________________________________________


Detailed state:  trans 37.706 11.675 122.783 quatxyzw -0.399429 -0.076318 -0.825099 -0.392229 center 0.016 0.633 0.013 ntor 7 -109.8640 -171.9258 -35.8096 106.6359 -156.1132 -151.8293 -110.4611
State:	 37.706  11.675 122.783  -0.434 -0.083 -0.897 -133.813   -109.86 -171.93  -35.81  106.64 -156.11 -151.83 -110.46

DOCKED: MODEL       19
DOCKED: USER    Run = 19
DOCKED: USER    DPF = ligand_dock.biased.dpf
DOCKED: USER  
DOCKED: USER    Estimated Free Energy of Binding    =  -10.66 kcal/mol  [=(1)+(2)+(3)-(4)]
DOCKED: USER    Estimated Inhibition Constant, Ki   =   15.33 nM (nanomolar)  [Temperature = 298.15 K]
DOCKED: USER    
DOCKED: USER    (1) Final Intermolecular Energy     =  -12.75 kcal/mol
DOCKED: USER        vdW + Hbond + desolv Energy     =  -12.75 kcal/mol
DOCKED: USER        Electrostatic Energy            =   +0.00 kcal/mol
DOCKED: USER    (2) Final Total Internal Energy     =   -0.67 kcal/mol
DOCKED: USER    (3) Torsional Free Energy           =   +2.09 kcal/mol
DOCKED: USER    (4) Unbound System's Energy  [=(2)] =   -0.67 kcal/mol
DOCKED: USER    
DOCKED: USER    
DOCKED: USER    NEWDPF move ligand.pdbqt
DOCKED: USER    NEWDPF about 0.016000 0.633000 0.013000
DOCKED: USER    NEWDPF tran0 37.705854 11.675061 122.782552
DOCKED: USER    NEWDPF quaternion0 -0.399429 -0.076318 -0.825099 -0.392229
DOCKED: USER    NEWDPF axisangle0 -0.434224 -0.082967 -0.896976 -133.813498
DOCKED: USER    NEWDPF quat0 -0.434224 -0.082967 -0.896976 -133.813498
DOCKED: USER    NEWDPF dihe0 -109.86 -171.93 -35.81 106.64 -156.11 -151.83 -110.46 
DOCKED: USER  keepresnum = 1 
DOCKED: USER  
DOCKED: REMARK  Name = 
DOCKED: REMARK  7 active torsions:
DOCKED: REMARK  status: ('A' for Active; 'I' for Inactive)
DOCKED: REMARK    1  A    between atoms: C_3  and  C_4
DOCKED: REMARK    2  A    between atoms: C_4  and  C_5
DOCKED: REMARK    3  A    between atoms: C_5  and  C_6
DOCKED: REMARK    4  A    between atoms: C_6  and  C_7
DOCKED: REMARK    5  A    between atoms: C_7  and  C_8
DOCKED: REMARK    6  A    between atoms: C_8  and  C_9
DOCKED: REMARK    7  A    between atoms: C_9  and  C_10
DOCKED: REMARK                            x       y       z     vdW  Elec       q    Type
DOCKED: REMARK                         _______ _______ _______ _____ _____    ______ ____
DOCKED: USER                              x       y       z     vdW  Elec       q    Type
DOCKED: USER                           _______ _______ _______ _____ _____    ______ ____
DOCKED: ROOT
DOCKED: ATOM      1  C   UNL     1      36.330  13.048 123.832 -0.61 -0.00    +0.000 C 
DOCKED: ENDROOT
DOCKED: BRANCH   1   2
DOCKED: ATOM      2  C   UNL     1      35.881  11.651 123.379 -0.67 -0.00    +0.000 C 
DOCKED: BRANCH   2   3
DOCKED: ATOM      3  C   UNL     1      36.623  11.221 122.110 -0.63 -0.00    +0.000 C 
DOCKED: BRANCH   3   6
DOCKED: ATOM      4  O   UNL     1      37.233   7.715 123.389 -2.61 -0.00    +0.000 OA
DOCKED: ATOM      5  N   UNL     1      36.985   9.045 123.369 -0.60 -0.00    +0.000 N 
DOCKED: ATOM      6  C   UNL     1      36.879   9.745 122.127 -0.63 -0.00    +0.000 C 
DOCKED: ATOM      7  O   UNL     1      37.041   9.126 121.041 -2.72 -0.00    +0.000 OA
DOCKED: ATOM      8  H   UNL     1      36.875   9.534 124.216 -0.53 -0.00    +0.000 HD
DOCKED: ENDBRANCH   3   6
DOCKED: ENDBRANCH   2   3
DOCKED: ENDBRANCH   1   2
DOCKED: BRANCH   1   9
DOCKED: ATOM      9  C   UNL     1      36.742  13.956 122.659 -0.49 -0.00    +0.000 C 
DOCKED: BRANCH   9  10
DOCKED: ATOM     10  C   UNL     1      37.386  15.294 123.066 -0.40 -0.00    +0.000 C 
DOCKED: BRANCH  10  11
DOCKED: ATOM     11  C   UNL     1      38.455  15.770 122.074 -0.28 -0.00    +0.000 C 
DOCKED: BRANCH  11  12
DOCKED: ATOM     12  C   UNL     1      39.625  14.831 122.076 -0.42 -0.00    +0.000 C 
DOCKED: ATOM     13  N   UNL     1      40.684  15.004 123.020 -0.41 -0.00    +0.000 N 
DOCKED: ATOM     14  O   UNL     1      41.750  14.169 123.015 -0.98 -0.00    +0.000 OA
DOCKED: ATOM     15  O   UNL     1      39.691  13.913 121.217 -0.77 -0.00    +0.000 OA
DOCKED: ATOM     16  H   UNL     1      40.639  15.734 123.678 -0.02 -0.00    +0.000 HD
DOCKED: ENDBRANCH  11  12
DOCKED: ENDBRANCH  10  11
DOCKED: ENDBRANCH   9  10
DOCKED: ENDBRANCH   1   9
DOCKED: TORSDOF 7
DOCKED: TER
DOCKED: ENDMDL
________________________________________________________________________________


	BEGINNING GENETIC ALGORITHM DOCKING 20 of 100
Run: 20 Seed: 1535167430 1661121648 [ Run 20 of 100 GA/GALS ]
Beginning LAMARCKIAN GENETIC ALGORITHM (LGA), with a maximum of 2500000 energy evaluations.

Final-Value: -11.409


	FINAL GENETIC ALGORITHM DOCKED STATE
	_______________________________________________


Detailed state:  trans 36.828 10.566 121.327 quatxyzw -0.378283 0.321267 -0.689968 -0.526910 center 0.016 0.633 0.013 ntor 7 129.0047 161.9726 101.9616 -78.0553 20.8087 123.2178 -29.4071
State:	 36.828  10.566 121.327  -0.445  0.378 -0.812 -116.406    129.00  161.97  101.96  -78.06   20.81  123.22  -29.41

DOCKED: MODEL       20
DOCKED: USER    Run = 20
DOCKED: USER    DPF = ligand_dock.biased.dpf
DOCKED: USER  
DOCKED: USER    Estimated Free Energy of Binding    =   -8.79 kcal/mol  [=(1)+(2)+(3)-(4)]
DOCKED: USER    Estimated Inhibition Constant, Ki   =  361.71 nM (nanomolar)  [Temperature = 298.15 K]
DOCKED: USER    
DOCKED: USER    (1) Final Intermolecular Energy     =  -10.88 kcal/mol
DOCKED: USER        vdW + Hbond + desolv Energy     =  -10.88 kcal/mol
DOCKED: USER        Electrostatic Energy            =   +0.00 kcal/mol
DOCKED: USER    (2) Final Total Internal Energy     =   -0.53 kcal/mol
DOCKED: USER    (3) Torsional Free Energy           =   +2.09 kcal/mol
DOCKED: USER    (4) Unbound System's Energy  [=(2)] =   -0.53 kcal/mol
DOCKED: USER    
DOCKED: USER    
DOCKED: USER    NEWDPF move ligand.pdbqt
DOCKED: USER    NEWDPF about 0.016000 0.633000 0.013000
DOCKED: USER    NEWDPF tran0 36.828163 10.565544 121.326763
DOCKED: USER    NEWDPF quaternion0 -0.378283 0.321267 -0.689968 -0.526910
DOCKED: USER    NEWDPF axisangle0 -0.445080 0.377996 -0.811802 -116.406154
DOCKED: USER    NEWDPF quat0 -0.445080 0.377996 -0.811802 -116.406154
DOCKED: USER    NEWDPF dihe0 129.00 161.97 101.96 -78.06 20.81 123.22 -29.41 
DOCKED: USER  keepresnum = 1 
DOCKED: USER  
DOCKED: REMARK  Name = 
DOCKED: REMARK  7 active torsions:
DOCKED: REMARK  status: ('A' for Active; 'I' for Inactive)
DOCKED: REMARK    1  A    between atoms: C_3  and  C_4
DOCKED: REMARK    2  A    between atoms: C_4  and  C_5
DOCKED: REMARK    3  A    between atoms: C_5  and  C_6
DOCKED: REMARK    4  A    between atoms: C_6  and  C_7
DOCKED: REMARK    5  A    between atoms: C_7  and  C_8
DOCKED: REMARK    6  A    between atoms: C_8  and  C_9
DOCKED: REMARK    7  A    between atoms: C_9  and  C_10
DOCKED: REMARK                            x       y       z     vdW  Elec       q    Type
DOCKED: REMARK                         _______ _______ _______ _____ _____    ______ ____
DOCKED: USER                              x       y       z     vdW  Elec       q    Type
DOCKED: USER                           _______ _______ _______ _____ _____    ______ ____
DOCKED: ROOT
DOCKED: ATOM      1  C   UNL     1      36.150  10.597 123.428 -0.60 -0.00    +0.000 C 
DOCKED: ENDROOT
DOCKED: BRANCH   1   2
DOCKED: ATOM      2  C   UNL     1      35.371   9.837 122.344 -0.64 -0.00    +0.000 C 
DOCKED: BRANCH   2   3
DOCKED: ATOM      3  C   UNL     1      34.729   8.570 122.916 -0.67 -0.00    +0.000 C 
DOCKED: BRANCH   3   6
DOCKED: ATOM      4  O   UNL     1      36.310   5.139 123.088 -1.15 -0.00    +0.000 OA
DOCKED: ATOM      5  N   UNL     1      35.390   6.118 122.922 -0.70 -0.00    +0.000 N 
DOCKED: ATOM      6  C   UNL     1      35.755   7.490 123.082 -0.76 -0.00    +0.000 C 
DOCKED: ATOM      7  O   UNL     1      36.935   7.794 123.402 -2.57 -0.00    +0.000 OA
DOCKED: ATOM      8  H   UNL     1      34.463   5.883 122.689 -0.07 -0.00    +0.000 HD
DOCKED: ENDBRANCH   3   6
DOCKED: ENDBRANCH   2   3
DOCKED: ENDBRANCH   1   2
DOCKED: BRANCH   1   9
DOCKED: ATOM      9  C   UNL     1      36.221  12.113 123.167 -0.67 -0.00    +0.000 C 
DOCKED: BRANCH   9  10
DOCKED: ATOM     10  C   UNL     1      37.441  12.576 122.351 -0.54 -0.00    +0.000 C 
DOCKED: BRANCH  10  11
DOCKED: ATOM     11  C   UNL     1      37.482  11.971 120.941 -0.49 -0.00    +0.000 C 
DOCKED: BRANCH  11  12
DOCKED: ATOM     12  C   UNL     1      37.195  13.023 119.912 -0.47 -0.00    +0.000 C 
DOCKED: ATOM     13  N   UNL     1      35.992  12.968 119.142 -0.20 -0.00    +0.000 N 
DOCKED: ATOM     14  O   UNL     1      35.737  13.907 118.201 -0.41 -0.00    +0.000 OA
DOCKED: ATOM     15  O   UNL     1      38.037  13.935 119.700 -0.34 -0.00    +0.000 OA
DOCKED: ATOM     16  H   UNL     1      35.345  12.244 119.298 -0.58 -0.00    +0.000 HD
DOCKED: ENDBRANCH  11  12
DOCKED: ENDBRANCH  10  11
DOCKED: ENDBRANCH   9  10
DOCKED: ENDBRANCH   1   9
DOCKED: TORSDOF 7
DOCKED: TER
DOCKED: ENDMDL
________________________________________________________________________________


	BEGINNING GENETIC ALGORITHM DOCKING 21 of 100
Run: 21 Seed: 138649187 478984360 [ Run 21 of 100 GA/GALS ]
Beginning LAMARCKIAN GENETIC ALGORITHM (LGA), with a maximum of 2500000 energy evaluations.

Final-Value: -12.667


	FINAL GENETIC ALGORITHM DOCKED STATE
	_______________________________________________


Detailed state:  trans 39.473 14.267 121.402 quatxyzw 0.469707 0.625315 -0.430752 -0.450344 center 0.016 0.633 0.013 ntor 7 70.4989 -40.1708 99.5473 -48.8840 -107.5972 48.6247 -121.4661
State:	 39.473  14.267 121.402   0.526  0.700 -0.482 -126.468     70.50  -40.17   99.55  -48.88 -107.60   48.62 -121.47

DOCKED: MODEL       21
DOCKED: USER    Run = 21
DOCKED: USER    DPF = ligand_dock.biased.dpf
DOCKED: USER  
DOCKED: USER    Estimated Free Energy of Binding    =  -10.01 kcal/mol  [=(1)+(2)+(3)-(4)]
DOCKED: USER    Estimated Inhibition Constant, Ki   =   46.22 nM (nanomolar)  [Temperature = 298.15 K]
DOCKED: USER    
DOCKED: USER    (1) Final Intermolecular Energy     =  -12.10 kcal/mol
DOCKED: USER        vdW + Hbond + desolv Energy     =  -12.10 kcal/mol
DOCKED: USER        Electrostatic Energy            =   +0.00 kcal/mol
DOCKED: USER    (2) Final Total Internal Energy     =   -0.57 kcal/mol
DOCKED: USER    (3) Torsional Free Energy           =   +2.09 kcal/mol
DOCKED: USER    (4) Unbound System's Energy  [=(2)] =   -0.57 kcal/mol
DOCKED: USER    
DOCKED: USER    
DOCKED: USER    NEWDPF move ligand.pdbqt
DOCKED: USER    NEWDPF about 0.016000 0.633000 0.013000
DOCKED: USER    NEWDPF tran0 39.473479 14.266911 121.401941
DOCKED: USER    NEWDPF quaternion0 0.469707 0.625315 -0.430752 -0.450344
DOCKED: USER    NEWDPF axisangle0 0.526073 0.700354 -0.482443 -126.468470
DOCKED: USER    NEWDPF quat0 0.526073 0.700354 -0.482443 -126.468470
DOCKED: USER    NEWDPF dihe0 70.50 -40.17 99.55 -48.88 -107.60 48.62 -121.47 
DOCKED: USER  keepresnum = 1 
DOCKED: USER  
DOCKED: REMARK  Name = 
DOCKED: REMARK  7 active torsions:
DOCKED: REMARK  status: ('A' for Active; 'I' for Inactive)
DOCKED: REMARK    1  A    between atoms: C_3  and  C_4
DOCKED: REMARK    2  A    between atoms: C_4  and  C_5
DOCKED: REMARK    3  A    between atoms: C_5  and  C_6
DOCKED: REMARK    4  A    between atoms: C_6  and  C_7
DOCKED: REMARK    5  A    between atoms: C_7  and  C_8
DOCKED: REMARK    6  A    between atoms: C_8  and  C_9
DOCKED: REMARK    7  A    between atoms: C_9  and  C_10
DOCKED: REMARK                            x       y       z     vdW  Elec       q    Type
DOCKED: REMARK                         _______ _______ _______ _____ _____    ______ ____
DOCKED: USER                              x       y       z     vdW  Elec       q    Type
DOCKED: USER                           _______ _______ _______ _____ _____    ______ ____
DOCKED: ROOT
DOCKED: ATOM      1  C   UNL     1      37.426  13.502 121.090 -0.45 -0.00    +0.000 C 
DOCKED: ENDROOT
DOCKED: BRANCH   1   2
DOCKED: ATOM      2  C   UNL     1      37.836  14.909 120.632 -0.29 -0.00    +0.000 C 
DOCKED: BRANCH   2   3
DOCKED: ATOM      3  C   UNL     1      39.360  15.039 120.560 -0.25 -0.00    +0.000 C 
DOCKED: BRANCH   3   6
DOCKED: ATOM      4  O   UNL     1      41.793  15.057 123.455 -1.02 +0.00    +0.000 OA
DOCKED: ATOM      5  N   UNL     1      41.277  14.872 122.217 -0.48 -0.00    +0.000 N 
DOCKED: ATOM      6  C   UNL     1      39.933  15.263 121.926 -0.38 -0.00    +0.000 C 
DOCKED: ATOM      7  O   UNL     1      39.214  15.763 122.831 -0.34 -0.00    +0.000 OA
DOCKED: ATOM      8  H   UNL     1      41.831  14.466 121.512 -0.01 -0.00    +0.000 HD
DOCKED: ENDBRANCH   3   6
DOCKED: ENDBRANCH   2   3
DOCKED: ENDBRANCH   1   2
DOCKED: BRANCH   1   9
DOCKED: ATOM      9  C   UNL     1      37.534  13.310 122.614 -0.53 -0.00    +0.000 C 
DOCKED: BRANCH   9  10
DOCKED: ATOM     10  C   UNL     1      37.069  11.938 123.132 -0.66 -0.00    +0.000 C 
DOCKED: BRANCH  10  11
DOCKED: ATOM     11  C   UNL     1      36.295  11.132 122.080 -0.62 -0.00    +0.000 C 
DOCKED: BRANCH  11  12
DOCKED: ATOM     12  C   UNL     1      36.705   9.691 122.119 -0.68 -0.00    +0.000 C 
DOCKED: ATOM     13  N   UNL     1      36.829   9.011 123.370 -0.59 -0.00    +0.000 N 
DOCKED: ATOM     14  O   UNL     1      37.215   7.714 123.410 -2.63 -0.00    +0.000 OA
DOCKED: ATOM     15  O   UNL     1      36.979   9.090 121.046 -2.70 -0.00    +0.000 OA
DOCKED: ATOM     16  H   UNL     1      36.633   9.489 124.207 -0.47 -0.00    +0.000 HD
DOCKED: ENDBRANCH  11  12
DOCKED: ENDBRANCH  10  11
DOCKED: ENDBRANCH   9  10
DOCKED: ENDBRANCH   1   9
DOCKED: TORSDOF 7
DOCKED: TER
DOCKED: ENDMDL
________________________________________________________________________________


	BEGINNING GENETIC ALGORITHM DOCKING 22 of 100
Run: 22 Seed: 969308877 1800449435 [ Run 22 of 100 GA/GALS ]
Beginning LAMARCKIAN GENETIC ALGORITHM (LGA), with a maximum of 2500000 energy evaluations.

Final-Value: -12.566


	FINAL GENETIC ALGORITHM DOCKED STATE
	_______________________________________________


Detailed state:  trans 39.256 14.463 122.205 quatxyzw 0.511773 0.433005 -0.217053 -0.709566 center 0.016 0.633 0.013 ntor 7 59.8765 118.5166 -98.4038 32.9546 -149.9718 160.7730 -134.7544
State:	 39.256  14.463 122.205   0.726  0.615 -0.308 -89.601     59.88  118.52  -98.40   32.95 -149.97  160.77 -134.75

DOCKED: MODEL       22
DOCKED: USER    Run = 22
DOCKED: USER    DPF = ligand_dock.biased.dpf
DOCKED: USER  
DOCKED: USER    Estimated Free Energy of Binding    =   -9.94 kcal/mol  [=(1)+(2)+(3)-(4)]
DOCKED: USER    Estimated Inhibition Constant, Ki   =   51.56 nM (nanomolar)  [Temperature = 298.15 K]
DOCKED: USER    
DOCKED: USER    (1) Final Intermolecular Energy     =  -12.03 kcal/mol
DOCKED: USER        vdW + Hbond + desolv Energy     =  -12.03 kcal/mol
DOCKED: USER        Electrostatic Energy            =   +0.00 kcal/mol
DOCKED: USER    (2) Final Total Internal Energy     =   -0.54 kcal/mol
DOCKED: USER    (3) Torsional Free Energy           =   +2.09 kcal/mol
DOCKED: USER    (4) Unbound System's Energy  [=(2)] =   -0.54 kcal/mol
DOCKED: USER    
DOCKED: USER    
DOCKED: USER    NEWDPF move ligand.pdbqt
DOCKED: USER    NEWDPF about 0.016000 0.633000 0.013000
DOCKED: USER    NEWDPF tran0 39.255514 14.462962 122.205031
DOCKED: USER    NEWDPF quaternion0 0.511773 0.433005 -0.217053 -0.709566
DOCKED: USER    NEWDPF axisangle0 0.726290 0.614506 -0.308034 -89.600792
DOCKED: USER    NEWDPF quat0 0.726290 0.614506 -0.308034 -89.600792
DOCKED: USER    NEWDPF dihe0 59.88 118.52 -98.40 32.95 -149.97 160.77 -134.75 
DOCKED: USER  keepresnum = 1 
DOCKED: USER  
DOCKED: REMARK  Name = 
DOCKED: REMARK  7 active torsions:
DOCKED: REMARK  status: ('A' for Active; 'I' for Inactive)
DOCKED: REMARK    1  A    between atoms: C_3  and  C_4
DOCKED: REMARK    2  A    between atoms: C_4  and  C_5
DOCKED: REMARK    3  A    between atoms: C_5  and  C_6
DOCKED: REMARK    4  A    between atoms: C_6  and  C_7
DOCKED: REMARK    5  A    between atoms: C_7  and  C_8
DOCKED: REMARK    6  A    between atoms: C_8  and  C_9
DOCKED: REMARK    7  A    between atoms: C_9  and  C_10
DOCKED: REMARK                            x       y       z     vdW  Elec       q    Type
DOCKED: REMARK                         _______ _______ _______ _____ _____    ______ ____
DOCKED: USER                              x       y       z     vdW  Elec       q    Type
DOCKED: USER                           _______ _______ _______ _____ _____    ______ ____
DOCKED: ROOT
DOCKED: ATOM      1  C   UNL     1      38.109  13.282 120.733 -0.44 -0.00    +0.000 C 
DOCKED: ENDROOT
DOCKED: BRANCH   1   2
DOCKED: ATOM      2  C   UNL     1      38.533  14.729 120.446 -0.29 -0.00    +0.000 C 
DOCKED: BRANCH   2   3
DOCKED: ATOM      3  C   UNL     1      38.743  15.508 121.748 -0.30 -0.00    +0.000 C 
DOCKED: BRANCH   3   6
DOCKED: ATOM      4  O   UNL     1      42.082  16.043 123.442 -1.13 +0.00    +0.000 OA
DOCKED: ATOM      5  N   UNL     1      40.843  16.280 122.951 -0.34 -0.00    +0.000 N 
DOCKED: ATOM      6  C   UNL     1      40.107  15.237 122.307 -0.42 -0.00    +0.000 C 
DOCKED: ATOM      7  O   UNL     1      40.621  14.094 122.174 -1.05 +0.00    +0.000 OA
DOCKED: ATOM      8  H   UNL     1      40.446  17.175 123.038 -0.00 -0.00    +0.000 HD
DOCKED: ENDBRANCH   3   6
DOCKED: ENDBRANCH   2   3
DOCKED: ENDBRANCH   1   2
DOCKED: BRANCH   1   9
DOCKED: ATOM      9  C   UNL     1      37.162  13.161 121.942 -0.50 -0.00    +0.000 C 
DOCKED: BRANCH   9  10
DOCKED: ATOM     10  C   UNL     1      36.404  11.826 122.044 -0.59 -0.00    +0.000 C 
DOCKED: BRANCH  10  11
DOCKED: ATOM     11  C   UNL     1      37.048  10.847 123.035 -0.62 -0.00    +0.000 C 
DOCKED: BRANCH  11  12
DOCKED: ATOM     12  C   UNL     1      37.019   9.452 122.487 -0.63 -0.00    +0.000 C 
DOCKED: ATOM     13  N   UNL     1      37.074   8.330 123.370 -0.71 -0.00    +0.000 N 
DOCKED: ATOM     14  O   UNL     1      37.065   7.069 122.878 -1.89 -0.00    +0.000 OA
DOCKED: ATOM     15  O   UNL     1      36.987   9.271 121.240 -2.63 -0.00    +0.000 OA
DOCKED: ATOM     16  H   UNL     1      37.118   8.475 124.342 -0.48 -0.00    +0.000 HD
DOCKED: ENDBRANCH  11  12
DOCKED: ENDBRANCH  10  11
DOCKED: ENDBRANCH   9  10
DOCKED: ENDBRANCH   1   9
DOCKED: TORSDOF 7
DOCKED: TER
DOCKED: ENDMDL
________________________________________________________________________________


	BEGINNING GENETIC ALGORITHM DOCKING 23 of 100
Run: 23 Seed: 1619048619 2096368805 [ Run 23 of 100 GA/GALS ]
Beginning LAMARCKIAN GENETIC ALGORITHM (LGA), with a maximum of 2500000 energy evaluations.

Final-Value: -12.420


	FINAL GENETIC ALGORITHM DOCKED STATE
	_______________________________________________


Detailed state:  trans 35.567 11.829 121.384 quatxyzw -0.802835 0.381980 0.418008 -0.186592 center 0.016 0.633 0.013 ntor 7 57.0307 121.4416 -5.5819 -149.8646 -159.1106 -151.8002 -169.7996
State:	 35.567  11.829 121.384  -0.817  0.389  0.425 -158.492     57.03  121.44   -5.58 -149.86 -159.11 -151.80 -169.80

DOCKED: MODEL       23
DOCKED: USER    Run = 23
DOCKED: USER    DPF = ligand_dock.biased.dpf
DOCKED: USER  
DOCKED: USER    Estimated Free Energy of Binding    =   -9.91 kcal/mol  [=(1)+(2)+(3)-(4)]
DOCKED: USER    Estimated Inhibition Constant, Ki   =   54.78 nM (nanomolar)  [Temperature = 298.15 K]
DOCKED: USER    
DOCKED: USER    (1) Final Intermolecular Energy     =  -11.99 kcal/mol
DOCKED: USER        vdW + Hbond + desolv Energy     =  -11.99 kcal/mol
DOCKED: USER        Electrostatic Energy            =   +0.00 kcal/mol
DOCKED: USER    (2) Final Total Internal Energy     =   -0.43 kcal/mol
DOCKED: USER    (3) Torsional Free Energy           =   +2.09 kcal/mol
DOCKED: USER    (4) Unbound System's Energy  [=(2)] =   -0.43 kcal/mol
DOCKED: USER    
DOCKED: USER    
DOCKED: USER    NEWDPF move ligand.pdbqt
DOCKED: USER    NEWDPF about 0.016000 0.633000 0.013000
DOCKED: USER    NEWDPF tran0 35.566976 11.828966 121.384174
DOCKED: USER    NEWDPF quaternion0 -0.802835 0.381980 0.418008 -0.186592
DOCKED: USER    NEWDPF axisangle0 -0.817187 0.388808 0.425480 -158.492111
DOCKED: USER    NEWDPF quat0 -0.817187 0.388808 0.425480 -158.492111
DOCKED: USER    NEWDPF dihe0 57.03 121.44 -5.58 -149.86 -159.11 -151.80 -169.80 
DOCKED: USER  keepresnum = 1 
DOCKED: USER  
DOCKED: REMARK  Name = 
DOCKED: REMARK  7 active torsions:
DOCKED: REMARK  status: ('A' for Active; 'I' for Inactive)
DOCKED: REMARK    1  A    between atoms: C_3  and  C_4
DOCKED: REMARK    2  A    between atoms: C_4  and  C_5
DOCKED: REMARK    3  A    between atoms: C_5  and  C_6
DOCKED: REMARK    4  A    between atoms: C_6  and  C_7
DOCKED: REMARK    5  A    between atoms: C_7  and  C_8
DOCKED: REMARK    6  A    between atoms: C_8  and  C_9
DOCKED: REMARK    7  A    between atoms: C_9  and  C_10
DOCKED: REMARK                            x       y       z     vdW  Elec       q    Type
DOCKED: REMARK                         _______ _______ _______ _____ _____    ______ ____
DOCKED: USER                              x       y       z     vdW  Elec       q    Type
DOCKED: USER                           _______ _______ _______ _____ _____    ______ ____
DOCKED: ROOT
DOCKED: ATOM      1  C   UNL     1      37.098  13.259 120.686 -0.44 -0.00    +0.000 C 
DOCKED: ENDROOT
DOCKED: BRANCH   1   2
DOCKED: ATOM      2  C   UNL     1      37.411  11.765 120.852 -0.51 -0.00    +0.000 C 
DOCKED: BRANCH   2   3
DOCKED: ATOM      3  C   UNL     1      36.631  11.168 122.027 -0.62 -0.00    +0.000 C 
DOCKED: BRANCH   3   6
DOCKED: ATOM      4  O   UNL     1      37.232   7.719 123.456 -2.66 -0.00    +0.000 OA
DOCKED: ATOM      5  N   UNL     1      37.012   9.052 123.379 -0.60 -0.00    +0.000 N 
DOCKED: ATOM      6  C   UNL     1      36.855   9.689 122.109 -0.64 -0.00    +0.000 C 
DOCKED: ATOM      7  O   UNL     1      36.944   9.011 121.051 -2.68 -0.00    +0.000 OA
DOCKED: ATOM      8  H   UNL     1      36.960   9.587 124.203 -0.56 -0.00    +0.000 HD
DOCKED: ENDBRANCH   3   6
DOCKED: ENDBRANCH   2   3
DOCKED: ENDBRANCH   1   2
DOCKED: BRANCH   1   9
DOCKED: ATOM      9  C   UNL     1      36.705  13.941 122.010 -0.34 -0.00    +0.000 C 
DOCKED: BRANCH   9  10
DOCKED: ATOM     10  C   UNL     1      37.484  15.228 122.335 -0.36 -0.00    +0.000 C 
DOCKED: BRANCH  10  11
DOCKED: ATOM     11  C   UNL     1      36.639  16.263 123.090 -0.33 -0.00    +0.000 C 
DOCKED: BRANCH  11  12
DOCKED: ATOM     12  C   UNL     1      35.732  15.582 124.071 -0.46 -0.00    +0.000 C 
DOCKED: ATOM     13  N   UNL     1      34.502  16.198 124.462 -0.51 -0.00    +0.000 N 
DOCKED: ATOM     14  O   UNL     1      33.688  15.594 125.359 -0.78 -0.00    +0.000 OA
DOCKED: ATOM     15  O   UNL     1      36.076  14.483 124.582 -0.51 -0.00    +0.000 OA
DOCKED: ATOM     16  H   UNL     1      34.246  17.065 124.075 -0.02 -0.00    +0.000 HD
DOCKED: ENDBRANCH  11  12
DOCKED: ENDBRANCH  10  11
DOCKED: ENDBRANCH   9  10
DOCKED: ENDBRANCH   1   9
DOCKED: TORSDOF 7
DOCKED: TER
DOCKED: ENDMDL
________________________________________________________________________________


	BEGINNING GENETIC ALGORITHM DOCKING 24 of 100
Run: 24 Seed: 129720284 410003398 [ Run 24 of 100 GA/GALS ]
Beginning LAMARCKIAN GENETIC ALGORITHM (LGA), with a maximum of 2500000 energy evaluations.

Final-Value: -12.113


	FINAL GENETIC ALGORITHM DOCKED STATE
	_______________________________________________


Detailed state:  trans 34.939 15.247 122.358 quatxyzw -0.149321 0.576511 -0.515844 0.615828 center 0.016 0.633 0.013 ntor 7 -37.1374 -5.7546 3.1394 -13.0366 -80.7432 160.8014 -135.6606
State:	 34.939  15.247 122.358  -0.190  0.732 -0.655 103.976    -37.14   -5.75    3.14  -13.04  -80.74  160.80 -135.66

DOCKED: MODEL       24
DOCKED: USER    Run = 24
DOCKED: USER    DPF = ligand_dock.biased.dpf
DOCKED: USER  
DOCKED: USER    Estimated Free Energy of Binding    =   -9.64 kcal/mol  [=(1)+(2)+(3)-(4)]
DOCKED: USER    Estimated Inhibition Constant, Ki   =   86.46 nM (nanomolar)  [Temperature = 298.15 K]
DOCKED: USER    
DOCKED: USER    (1) Final Intermolecular Energy     =  -11.72 kcal/mol
DOCKED: USER        vdW + Hbond + desolv Energy     =  -11.72 kcal/mol
DOCKED: USER        Electrostatic Energy            =   +0.00 kcal/mol
DOCKED: USER    (2) Final Total Internal Energy     =   -0.39 kcal/mol
DOCKED: USER    (3) Torsional Free Energy           =   +2.09 kcal/mol
DOCKED: USER    (4) Unbound System's Energy  [=(2)] =   -0.39 kcal/mol
DOCKED: USER    
DOCKED: USER    
DOCKED: USER    NEWDPF move ligand.pdbqt
DOCKED: USER    NEWDPF about 0.016000 0.633000 0.013000
DOCKED: USER    NEWDPF tran0 34.938929 15.246938 122.357511
DOCKED: USER    NEWDPF quaternion0 -0.149321 0.576511 -0.515844 0.615828
DOCKED: USER    NEWDPF axisangle0 -0.189523 0.731723 -0.654723 103.975835
DOCKED: USER    NEWDPF quat0 -0.189523 0.731723 -0.654723 103.975835
DOCKED: USER    NEWDPF dihe0 -37.14 -5.75 3.14 -13.04 -80.74 160.80 -135.66 
DOCKED: USER  keepresnum = 1 
DOCKED: USER  
DOCKED: REMARK  Name = 
DOCKED: REMARK  7 active torsions:
DOCKED: REMARK  status: ('A' for Active; 'I' for Inactive)
DOCKED: REMARK    1  A    between atoms: C_3  and  C_4
DOCKED: REMARK    2  A    between atoms: C_4  and  C_5
DOCKED: REMARK    3  A    between atoms: C_5  and  C_6
DOCKED: REMARK    4  A    between atoms: C_6  and  C_7
DOCKED: REMARK    5  A    between atoms: C_7  and  C_8
DOCKED: REMARK    6  A    between atoms: C_8  and  C_9
DOCKED: REMARK    7  A    between atoms: C_9  and  C_10
DOCKED: REMARK                            x       y       z     vdW  Elec       q    Type
DOCKED: REMARK                         _______ _______ _______ _____ _____    ______ ____
DOCKED: USER                              x       y       z     vdW  Elec       q    Type
DOCKED: USER                           _______ _______ _______ _____ _____    ______ ____
DOCKED: ROOT
DOCKED: ATOM      1  C   UNL     1      36.280  14.196 123.762 -0.53 -0.00    +0.000 C 
DOCKED: ENDROOT
DOCKED: BRANCH   1   2
DOCKED: ATOM      2  C   UNL     1      36.230  15.729 123.694 -0.42 -0.00    +0.000 C 
DOCKED: BRANCH   2   3
DOCKED: ATOM      3  C   UNL     1      34.784  16.229 123.630 -0.50 -0.00    +0.000 C 
DOCKED: BRANCH   3   6
DOCKED: ATOM      4  O   UNL     1      35.576  19.703 122.365 -0.62 -0.00    +0.000 OA
DOCKED: ATOM      5  N   UNL     1      35.592  18.357 122.504 -0.24 -0.00    +0.000 N 
DOCKED: ATOM      6  C   UNL     1      34.749  17.717 123.466 -0.38 -0.00    +0.000 C 
DOCKED: ATOM      7  O   UNL     1      34.002  18.411 124.206 -0.37 -0.00    +0.000 OA
DOCKED: ATOM      8  H   UNL     1      36.187  17.814 121.939 +0.00 -0.00    +0.000 HD
DOCKED: ENDBRANCH   3   6
DOCKED: ENDBRANCH   2   3
DOCKED: ENDBRANCH   1   2
DOCKED: BRANCH   1   9
DOCKED: ATOM      9  C   UNL     1      36.745  13.550 122.444 -0.49 -0.00    +0.000 C 
DOCKED: BRANCH   9  10
DOCKED: ATOM     10  C   UNL     1      37.205  12.087 122.563 -0.56 -0.00    +0.000 C 
DOCKED: BRANCH  10  11
DOCKED: ATOM     11  C   UNL     1      36.125  11.084 122.136 -0.61 -0.00    +0.000 C 
DOCKED: BRANCH  11  12
DOCKED: ATOM     12  C   UNL     1      36.673   9.688 122.146 -0.69 -0.00    +0.000 C 
DOCKED: ATOM     13  N   UNL     1      36.794   8.971 123.376 -0.59 -0.00    +0.000 N 
DOCKED: ATOM     14  O   UNL     1      37.304   7.717 123.391 -2.59 -0.00    +0.000 OA
DOCKED: ATOM     15  O   UNL     1      37.066   9.164 121.070 -2.73 -0.00    +0.000 OA
DOCKED: ATOM     16  H   UNL     1      36.504   9.390 124.217 -0.41 -0.00    +0.000 HD
DOCKED: ENDBRANCH  11  12
DOCKED: ENDBRANCH  10  11
DOCKED: ENDBRANCH   9  10
DOCKED: ENDBRANCH   1   9
DOCKED: TORSDOF 7
DOCKED: TER
DOCKED: ENDMDL
________________________________________________________________________________


	BEGINNING GENETIC ALGORITHM DOCKING 25 of 100
Run: 25 Seed: 926207747 1371604326 [ Run 25 of 100 GA/GALS ]
Beginning LAMARCKIAN GENETIC ALGORITHM (LGA), with a maximum of 2500000 energy evaluations.

Final-Value: -12.868


	FINAL GENETIC ALGORITHM DOCKED STATE
	_______________________________________________


Detailed state:  trans 37.325 14.024 120.488 quatxyzw 0.380416 0.553364 -0.629816 0.390390 center 0.016 0.633 0.013 ntor 7 99.9350 52.4028 -90.6922 41.8534 93.3426 -39.0281 -39.2464
State:	 37.325  14.024 120.488   0.413  0.601 -0.684 134.043     99.93   52.40  -90.69   41.85   93.34  -39.03  -39.25

DOCKED: MODEL       25
DOCKED: USER    Run = 25
DOCKED: USER    DPF = ligand_dock.biased.dpf
DOCKED: USER  
DOCKED: USER    Estimated Free Energy of Binding    =  -10.27 kcal/mol  [=(1)+(2)+(3)-(4)]
DOCKED: USER    Estimated Inhibition Constant, Ki   =   29.63 nM (nanomolar)  [Temperature = 298.15 K]
DOCKED: USER    
DOCKED: USER    (1) Final Intermolecular Energy     =  -12.36 kcal/mol
DOCKED: USER        vdW + Hbond + desolv Energy     =  -12.36 kcal/mol
DOCKED: USER        Electrostatic Energy            =   +0.00 kcal/mol
DOCKED: USER    (2) Final Total Internal Energy     =   -0.51 kcal/mol
DOCKED: USER    (3) Torsional Free Energy           =   +2.09 kcal/mol
DOCKED: USER    (4) Unbound System's Energy  [=(2)] =   -0.51 kcal/mol
DOCKED: USER    
DOCKED: USER    
DOCKED: USER    NEWDPF move ligand.pdbqt
DOCKED: USER    NEWDPF about 0.016000 0.633000 0.013000
DOCKED: USER    NEWDPF tran0 37.324585 14.023636 120.488086
DOCKED: USER    NEWDPF quaternion0 0.380416 0.553364 -0.629816 0.390390
DOCKED: USER    NEWDPF axisangle0 0.413204 0.601058 -0.684100 134.042514
DOCKED: USER    NEWDPF quat0 0.413204 0.601058 -0.684100 134.042514
DOCKED: USER    NEWDPF dihe0 99.93 52.40 -90.69 41.85 93.34 -39.03 -39.25 
DOCKED: USER  keepresnum = 1 
DOCKED: USER  
DOCKED: REMARK  Name = 
DOCKED: REMARK  7 active torsions:
DOCKED: REMARK  status: ('A' for Active; 'I' for Inactive)
DOCKED: REMARK    1  A    between atoms: C_3  and  C_4
DOCKED: REMARK    2  A    between atoms: C_4  and  C_5
DOCKED: REMARK    3  A    between atoms: C_5  and  C_6
DOCKED: REMARK    4  A    between atoms: C_6  and  C_7
DOCKED: REMARK    5  A    between atoms: C_7  and  C_8
DOCKED: REMARK    6  A    between atoms: C_8  and  C_9
DOCKED: REMARK    7  A    between atoms: C_9  and  C_10
DOCKED: REMARK                            x       y       z     vdW  Elec       q    Type
DOCKED: REMARK                         _______ _______ _______ _____ _____    ______ ____
DOCKED: USER                              x       y       z     vdW  Elec       q    Type
DOCKED: USER                           _______ _______ _______ _____ _____    ______ ____
DOCKED: ROOT
DOCKED: ATOM      1  C   UNL     1      36.847  14.428 122.606 -0.44 -0.00    +0.000 C 
DOCKED: ENDROOT
DOCKED: BRANCH   1   2
DOCKED: ATOM      2  C   UNL     1      37.609  15.446 121.746 -0.29 -0.00    +0.000 C 
DOCKED: BRANCH   2   3
DOCKED: ATOM      3  C   UNL     1      38.711  16.135 122.557 -0.28 -0.00    +0.000 C 
DOCKED: BRANCH   3   6
DOCKED: ATOM      4  O   UNL     1      42.316  15.118 123.077 -1.07 +0.00    +0.000 OA
DOCKED: ATOM      5  N   UNL     1      41.148  15.794 123.184 -0.39 -0.00    +0.000 N 
DOCKED: ATOM      6  C   UNL     1      39.996  15.373 122.450 -0.39 -0.00    +0.000 C 
DOCKED: ATOM      7  O   UNL     1      40.071  14.380 121.678 -0.98 -0.00    +0.000 OA
DOCKED: ATOM      8  H   UNL     1      41.091  16.580 123.773 -0.03 -0.00    +0.000 HD
DOCKED: ENDBRANCH   3   6
DOCKED: ENDBRANCH   2   3
DOCKED: ENDBRANCH   1   2
DOCKED: BRANCH   1   9
DOCKED: ATOM      9  C   UNL     1      37.602  13.096 122.771 -0.53 -0.00    +0.000 C 
DOCKED: BRANCH   9  10
DOCKED: ATOM     10  C   UNL     1      37.114  11.954 121.862 -0.55 -0.00    +0.000 C 
DOCKED: BRANCH  10  11
DOCKED: ATOM     11  C   UNL     1      36.197  10.961 122.590 -0.68 -0.00    +0.000 C 
DOCKED: BRANCH  11  12
DOCKED: ATOM     12  C   UNL     1      36.650   9.554 122.342 -0.71 -0.00    +0.000 C 
DOCKED: ATOM     13  N   UNL     1      36.671   8.606 123.412 -0.64 -0.00    +0.000 N 
DOCKED: ATOM     14  O   UNL     1      37.095   7.338 123.197 -2.34 -0.00    +0.000 OA
DOCKED: ATOM     15  O   UNL     1      37.052   9.219 121.196 -2.73 -0.00    +0.000 OA
DOCKED: ATOM     16  H   UNL     1      36.375   8.876 124.311 -0.31 -0.00    +0.000 HD
DOCKED: ENDBRANCH  11  12
DOCKED: ENDBRANCH  10  11
DOCKED: ENDBRANCH   9  10
DOCKED: ENDBRANCH   1   9
DOCKED: TORSDOF 7
DOCKED: TER
DOCKED: ENDMDL
________________________________________________________________________________


	BEGINNING GENETIC ALGORITHM DOCKING 26 of 100
Run: 26 Seed: 1381219203 682103938 [ Run 26 of 100 GA/GALS ]
Beginning LAMARCKIAN GENETIC ALGORITHM (LGA), with a maximum of 2500000 energy evaluations.

Final-Value: -12.333


	FINAL GENETIC ALGORITHM DOCKED STATE
	_______________________________________________


Detailed state:  trans 37.947 12.739 123.319 quatxyzw 0.797761 0.415762 0.401887 -0.170899 center 0.016 0.633 0.013 ntor 7 -33.6766 78.8173 83.6610 -42.9771 132.5835 146.1428 -20.7657
State:	 37.947  12.739 123.319   0.810  0.422  0.408 -160.320    -33.68   78.82   83.66  -42.98  132.58  146.14  -20.77

DOCKED: MODEL       26
DOCKED: USER    Run = 26
DOCKED: USER    DPF = ligand_dock.biased.dpf
DOCKED: USER  
DOCKED: USER    Estimated Free Energy of Binding    =   -9.63 kcal/mol  [=(1)+(2)+(3)-(4)]
DOCKED: USER    Estimated Inhibition Constant, Ki   =   87.05 nM (nanomolar)  [Temperature = 298.15 K]
DOCKED: USER    
DOCKED: USER    (1) Final Intermolecular Energy     =  -11.72 kcal/mol
DOCKED: USER        vdW + Hbond + desolv Energy     =  -11.72 kcal/mol
DOCKED: USER        Electrostatic Energy            =   +0.00 kcal/mol
DOCKED: USER    (2) Final Total Internal Energy     =   -0.61 kcal/mol
DOCKED: USER    (3) Torsional Free Energy           =   +2.09 kcal/mol
DOCKED: USER    (4) Unbound System's Energy  [=(2)] =   -0.61 kcal/mol
DOCKED: USER    
DOCKED: USER    
DOCKED: USER    NEWDPF move ligand.pdbqt
DOCKED: USER    NEWDPF about 0.016000 0.633000 0.013000
DOCKED: USER    NEWDPF tran0 37.947333 12.739054 123.318834
DOCKED: USER    NEWDPF quaternion0 0.797761 0.415762 0.401887 -0.170899
DOCKED: USER    NEWDPF axisangle0 0.809672 0.421970 0.407887 -160.319810
DOCKED: USER    NEWDPF quat0 0.809672 0.421970 0.407887 -160.319810
DOCKED: USER    NEWDPF dihe0 -33.68 78.82 83.66 -42.98 132.58 146.14 -20.77 
DOCKED: USER  keepresnum = 1 
DOCKED: USER  
DOCKED: REMARK  Name = 
DOCKED: REMARK  7 active torsions:
DOCKED: REMARK  status: ('A' for Active; 'I' for Inactive)
DOCKED: REMARK    1  A    between atoms: C_3  and  C_4
DOCKED: REMARK    2  A    between atoms: C_4  and  C_5
DOCKED: REMARK    3  A    between atoms: C_5  and  C_6
DOCKED: REMARK    4  A    between atoms: C_6  and  C_7
DOCKED: REMARK    5  A    between atoms: C_7  and  C_8
DOCKED: REMARK    6  A    between atoms: C_8  and  C_9
DOCKED: REMARK    7  A    between atoms: C_9  and  C_10
DOCKED: REMARK                            x       y       z     vdW  Elec       q    Type
DOCKED: REMARK                         _______ _______ _______ _____ _____    ______ ____
DOCKED: USER                              x       y       z     vdW  Elec       q    Type
DOCKED: USER                           _______ _______ _______ _____ _____    ______ ____
DOCKED: ROOT
DOCKED: ATOM      1  C   UNL     1      37.370  14.394 121.975 -0.40 -0.00    +0.000 C 
DOCKED: ENDROOT
DOCKED: BRANCH   1   2
DOCKED: ATOM      2  C   UNL     1      37.037  14.423 123.474 -0.46 -0.00    +0.000 C 
DOCKED: BRANCH   2   3
DOCKED: ATOM      3  C   UNL     1      35.567  14.068 123.716 -0.54 -0.00    +0.000 C 
DOCKED: BRANCH   3   6
DOCKED: ATOM      4  O   UNL     1      34.109  17.471 122.947 -0.47 -0.00    +0.000 OA
DOCKED: ATOM      5  N   UNL     1      34.844  16.340 122.841 -0.37 -0.00    +0.000 N 
DOCKED: ATOM      6  C   UNL     1      34.738  15.311 123.828 -0.58 -0.00    +0.000 C 
DOCKED: ATOM      7  O   UNL     1      33.975  15.466 124.818 -0.67 -0.00    +0.000 OA
DOCKED: ATOM      8  H   UNL     1      35.454  16.223 122.078 -0.01 -0.00    +0.000 HD
DOCKED: ENDBRANCH   3   6
DOCKED: ENDBRANCH   2   3
DOCKED: ENDBRANCH   1   2
DOCKED: BRANCH   1   9
DOCKED: ATOM      9  C   UNL     1      36.698  13.224 121.232 -0.29 -0.00    +0.000 C 
DOCKED: BRANCH   9  10
DOCKED: ATOM     10  C   UNL     1      37.433  11.876 121.342 -0.47 -0.00    +0.000 C 
DOCKED: BRANCH  10  11
DOCKED: ATOM     11  C   UNL     1      37.072  11.100 122.615 -0.58 -0.00    +0.000 C 
DOCKED: BRANCH  11  12
DOCKED: ATOM     12  C   UNL     1      37.044   9.626 122.340 -0.60 -0.00    +0.000 C 
DOCKED: ATOM     13  N   UNL     1      37.068   8.691 123.420 -0.65 -0.00    +0.000 N 
DOCKED: ATOM     14  O   UNL     1      37.059   7.360 123.175 -2.36 -0.00    +0.000 OA
DOCKED: ATOM     15  O   UNL     1      37.041   9.213 121.150 -2.73 -0.00    +0.000 OA
DOCKED: ATOM     16  H   UNL     1      37.089   9.017 124.348 -0.53 -0.00    +0.000 HD
DOCKED: ENDBRANCH  11  12
DOCKED: ENDBRANCH  10  11
DOCKED: ENDBRANCH   9  10
DOCKED: ENDBRANCH   1   9
DOCKED: TORSDOF 7
DOCKED: TER
DOCKED: ENDMDL
________________________________________________________________________________


	BEGINNING GENETIC ALGORITHM DOCKING 27 of 100
Run: 27 Seed: 1927461701 1330450394 [ Run 27 of 100 GA/GALS ]
Beginning LAMARCKIAN GENETIC ALGORITHM (LGA), with a maximum of 2500000 energy evaluations.

Final-Value: -12.587


	FINAL GENETIC ALGORITHM DOCKED STATE
	_______________________________________________


Detailed state:  trans 35.402 12.624 121.312 quatxyzw -0.666316 0.498317 0.364302 -0.418315 center 0.016 0.633 0.013 ntor 7 65.7658 -1.4943 35.4329 170.8930 171.0401 179.6065 -143.4868
State:	 35.402  12.624 121.312  -0.734  0.549  0.401 -130.543     65.77   -1.49   35.43  170.89  171.04  179.61 -143.49

DOCKED: MODEL       27
DOCKED: USER    Run = 27
DOCKED: USER    DPF = ligand_dock.biased.dpf
DOCKED: USER  
DOCKED: USER    Estimated Free Energy of Binding    =   -9.83 kcal/mol  [=(1)+(2)+(3)-(4)]
DOCKED: USER    Estimated Inhibition Constant, Ki   =   62.11 nM (nanomolar)  [Temperature = 298.15 K]
DOCKED: USER    
DOCKED: USER    (1) Final Intermolecular Energy     =  -11.92 kcal/mol
DOCKED: USER        vdW + Hbond + desolv Energy     =  -11.92 kcal/mol
DOCKED: USER        Electrostatic Energy            =   +0.00 kcal/mol
DOCKED: USER    (2) Final Total Internal Energy     =   -0.67 kcal/mol
DOCKED: USER    (3) Torsional Free Energy           =   +2.09 kcal/mol
DOCKED: USER    (4) Unbound System's Energy  [=(2)] =   -0.67 kcal/mol
DOCKED: USER    
DOCKED: USER    
DOCKED: USER    NEWDPF move ligand.pdbqt
DOCKED: USER    NEWDPF about 0.016000 0.633000 0.013000
DOCKED: USER    NEWDPF tran0 35.402145 12.623535 121.312331
DOCKED: USER    NEWDPF quaternion0 -0.666316 0.498317 0.364302 -0.418315
DOCKED: USER    NEWDPF axisangle0 -0.733584 0.548625 0.401080 -130.543474
DOCKED: USER    NEWDPF quat0 -0.733584 0.548625 0.401080 -130.543474
DOCKED: USER    NEWDPF dihe0 65.77 -1.49 35.43 170.89 171.04 179.61 -143.49 
DOCKED: USER  keepresnum = 1 
DOCKED: USER  
DOCKED: REMARK  Name = 
DOCKED: REMARK  7 active torsions:
DOCKED: REMARK  status: ('A' for Active; 'I' for Inactive)
DOCKED: REMARK    1  A    between atoms: C_3  and  C_4
DOCKED: REMARK    2  A    between atoms: C_4  and  C_5
DOCKED: REMARK    3  A    between atoms: C_5  and  C_6
DOCKED: REMARK    4  A    between atoms: C_6  and  C_7
DOCKED: REMARK    5  A    between atoms: C_7  and  C_8
DOCKED: REMARK    6  A    between atoms: C_8  and  C_9
DOCKED: REMARK    7  A    between atoms: C_9  and  C_10
DOCKED: REMARK                            x       y       z     vdW  Elec       q    Type
DOCKED: REMARK                         _______ _______ _______ _____ _____    ______ ____
DOCKED: USER                              x       y       z     vdW  Elec       q    Type
DOCKED: USER                           _______ _______ _______ _____ _____    ______ ____
DOCKED: ROOT
DOCKED: ATOM      1  C   UNL     1      37.519  13.223 121.119 -0.47 -0.00    +0.000 C 
DOCKED: ENDROOT
DOCKED: BRANCH   1   2
DOCKED: ATOM      2  C   UNL     1      37.063  11.784 120.839 -0.50 -0.00    +0.000 C 
DOCKED: BRANCH   2   3
DOCKED: ATOM      3  C   UNL     1      36.502  11.130 122.106 -0.63 -0.00    +0.000 C 
DOCKED: BRANCH   3   6
DOCKED: ATOM      4  O   UNL     1      37.414   7.717 123.456 -2.61 -0.00    +0.000 OA
DOCKED: ATOM      5  N   UNL     1      37.067   9.025 123.409 -0.60 -0.00    +0.000 N 
DOCKED: ATOM      6  C   UNL     1      36.868   9.678 122.153 -0.64 -0.00    +0.000 C 
DOCKED: ATOM      7  O   UNL     1      37.039   9.041 121.079 -2.71 -0.00    +0.000 OA
DOCKED: ATOM      8  H   UNL     1      36.949   9.529 124.246 -0.53 -0.00    +0.000 HD
DOCKED: ENDBRANCH   3   6
DOCKED: ENDBRANCH   2   3
DOCKED: ENDBRANCH   1   2
DOCKED: BRANCH   1   9
DOCKED: ATOM      9  C   UNL     1      37.268  13.661 122.574 -0.51 -0.00    +0.000 C 
DOCKED: BRANCH   9  10
DOCKED: ATOM     10  C   UNL     1      38.188  14.784 123.083 -0.40 -0.00    +0.000 C 
DOCKED: BRANCH  10  11
DOCKED: ATOM     11  C   UNL     1      37.421  16.055 123.474 -0.32 -0.00    +0.000 C 
DOCKED: BRANCH  11  12
DOCKED: ATOM     12  C   UNL     1      35.954  15.879 123.217 -0.41 -0.00    +0.000 C 
DOCKED: ATOM     13  N   UNL     1      35.126  15.234 124.187 -0.54 -0.00    +0.000 N 
DOCKED: ATOM     14  O   UNL     1      33.804  15.060 123.952 -0.70 -0.00    +0.000 OA
DOCKED: ATOM     15  O   UNL     1      35.460  16.267 122.125 -0.29 -0.00    +0.000 OA
DOCKED: ATOM     16  H   UNL     1      35.519  14.916 125.031 -0.05 -0.00    +0.000 HD
DOCKED: ENDBRANCH  11  12
DOCKED: ENDBRANCH  10  11
DOCKED: ENDBRANCH   9  10
DOCKED: ENDBRANCH   1   9
DOCKED: TORSDOF 7
DOCKED: TER
DOCKED: ENDMDL
________________________________________________________________________________


	BEGINNING GENETIC ALGORITHM DOCKING 28 of 100
Run: 28 Seed: 1647403322 809846991 [ Run 28 of 100 GA/GALS ]
Beginning LAMARCKIAN GENETIC ALGORITHM (LGA), with a maximum of 2500000 energy evaluations.

Final-Value: -11.407


	FINAL GENETIC ALGORITHM DOCKED STATE
	_______________________________________________


Detailed state:  trans 35.897 14.381 124.394 quatxyzw -0.514956 -0.146391 -0.471242 0.700943 center 0.016 0.633 0.013 ntor 7 -179.8369 58.0453 4.4598 -43.1920 -161.3117 178.7138 -104.1550
State:	 35.897  14.381 124.394  -0.722 -0.205 -0.661 90.995   -179.84   58.05    4.46  -43.19 -161.31  178.71 -104.15

DOCKED: MODEL       28
DOCKED: USER    Run = 28
DOCKED: USER    DPF = ligand_dock.biased.dpf
DOCKED: USER  
DOCKED: USER    Estimated Free Energy of Binding    =   -8.90 kcal/mol  [=(1)+(2)+(3)-(4)]
DOCKED: USER    Estimated Inhibition Constant, Ki   =  300.92 nM (nanomolar)  [Temperature = 298.15 K]
DOCKED: USER    
DOCKED: USER    (1) Final Intermolecular Energy     =  -10.99 kcal/mol
DOCKED: USER        vdW + Hbond + desolv Energy     =  -10.99 kcal/mol
DOCKED: USER        Electrostatic Energy            =   +0.00 kcal/mol
DOCKED: USER    (2) Final Total Internal Energy     =   -0.42 kcal/mol
DOCKED: USER    (3) Torsional Free Energy           =   +2.09 kcal/mol
DOCKED: USER    (4) Unbound System's Energy  [=(2)] =   -0.42 kcal/mol
DOCKED: USER    
DOCKED: USER    
DOCKED: USER    NEWDPF move ligand.pdbqt
DOCKED: USER    NEWDPF about 0.016000 0.633000 0.013000
DOCKED: USER    NEWDPF tran0 35.896551 14.381355 124.393961
DOCKED: USER    NEWDPF quaternion0 -0.514956 -0.146391 -0.471242 0.700943
DOCKED: USER    NEWDPF axisangle0 -0.722018 -0.205255 -0.660727 90.994554
DOCKED: USER    NEWDPF quat0 -0.722018 -0.205255 -0.660727 90.994554
DOCKED: USER    NEWDPF dihe0 -179.84 58.05 4.46 -43.19 -161.31 178.71 -104.15 
DOCKED: USER  keepresnum = 1 
DOCKED: USER  
DOCKED: REMARK  Name = 
DOCKED: REMARK  7 active torsions:
DOCKED: REMARK  status: ('A' for Active; 'I' for Inactive)
DOCKED: REMARK    1  A    between atoms: C_3  and  C_4
DOCKED: REMARK    2  A    between atoms: C_4  and  C_5
DOCKED: REMARK    3  A    between atoms: C_5  and  C_6
DOCKED: REMARK    4  A    between atoms: C_6  and  C_7
DOCKED: REMARK    5  A    between atoms: C_7  and  C_8
DOCKED: REMARK    6  A    between atoms: C_8  and  C_9
DOCKED: REMARK    7  A    between atoms: C_9  and  C_10
DOCKED: REMARK                            x       y       z     vdW  Elec       q    Type
DOCKED: REMARK                         _______ _______ _______ _____ _____    ______ ____
DOCKED: USER                              x       y       z     vdW  Elec       q    Type
DOCKED: USER                           _______ _______ _______ _____ _____    ______ ____
DOCKED: ROOT
DOCKED: ATOM      1  C   UNL     1      37.539  14.422 122.919 -0.47 -0.00    +0.000 C 
DOCKED: ENDROOT
DOCKED: BRANCH   1   2
DOCKED: ATOM      2  C   UNL     1      36.694  15.670 123.214 -0.38 -0.00    +0.000 C 
DOCKED: BRANCH   2   3
DOCKED: ATOM      3  C   UNL     1      35.234  15.292 123.481 -0.50 -0.00    +0.000 C 
DOCKED: BRANCH   3   6
DOCKED: ATOM      4  O   UNL     1      33.325  18.132 125.090 -0.44 -0.00    +0.000 OA
DOCKED: ATOM      5  N   UNL     1      34.097  17.031 124.943 -0.44 -0.00    +0.000 N 
DOCKED: ATOM      6  C   UNL     1      34.394  16.522 123.640 -0.49 -0.00    +0.000 C 
DOCKED: ATOM      7  O   UNL     1      33.915  17.087 122.620 -0.46 -0.00    +0.000 OA
DOCKED: ATOM      8  H   UNL     1      34.459  16.577 125.737 -0.02 -0.00    +0.000 HD
DOCKED: ENDBRANCH   3   6
DOCKED: ENDBRANCH   2   3
DOCKED: ENDBRANCH   1   2
DOCKED: BRANCH   1   9
DOCKED: ATOM      9  C   UNL     1      36.713  13.259 122.339 -0.51 -0.00    +0.000 C 
DOCKED: BRANCH   9  10
DOCKED: ATOM     10  C   UNL     1      37.418  11.891 122.350 -0.43 -0.00    +0.000 C 
DOCKED: BRANCH  10  11
DOCKED: ATOM     11  C   UNL     1      36.700  10.856 123.225 -0.68 -0.00    +0.000 C 
DOCKED: BRANCH  11  12
DOCKED: ATOM     12  C   UNL     1      36.802   9.492 122.611 -0.69 -0.00    +0.000 C 
DOCKED: ATOM     13  N   UNL     1      36.955   8.338 123.441 -0.70 -0.00    +0.000 N 
DOCKED: ATOM     14  O   UNL     1      37.064   7.106 122.891 -1.93 -0.00    +0.000 OA
DOCKED: ATOM     15  O   UNL     1      36.792   9.368 121.358 -2.40 -0.00    +0.000 OA
DOCKED: ATOM     16  H   UNL     1      36.981   8.440 124.420 -0.44 -0.00    +0.000 HD
DOCKED: ENDBRANCH  11  12
DOCKED: ENDBRANCH  10  11
DOCKED: ENDBRANCH   9  10
DOCKED: ENDBRANCH   1   9
DOCKED: TORSDOF 7
DOCKED: TER
DOCKED: ENDMDL
________________________________________________________________________________


	BEGINNING GENETIC ALGORITHM DOCKING 29 of 100
Run: 29 Seed: 1167788554 14007831 [ Run 29 of 100 GA/GALS ]
Beginning LAMARCKIAN GENETIC ALGORITHM (LGA), with a maximum of 2500000 energy evaluations.

Final-Value: -13.090


	FINAL GENETIC ALGORITHM DOCKED STATE
	_______________________________________________


Detailed state:  trans 38.081 14.377 123.662 quatxyzw -0.552444 -0.764957 0.206268 0.259036 center 0.016 0.633 0.013 ntor 7 180.0000 -62.4612 -64.6134 21.4448 52.0972 17.8875 -73.3648
State:	 38.081  14.377 123.662  -0.572 -0.792  0.214 149.974    180.00  -62.46  -64.61   21.44   52.10   17.89  -73.36

DOCKED: MODEL       29
DOCKED: USER    Run = 29
DOCKED: USER    DPF = ligand_dock.biased.dpf
DOCKED: USER  
DOCKED: USER    Estimated Free Energy of Binding    =  -10.52 kcal/mol  [=(1)+(2)+(3)-(4)]
DOCKED: USER    Estimated Inhibition Constant, Ki   =   19.53 nM (nanomolar)  [Temperature = 298.15 K]
DOCKED: USER    
DOCKED: USER    (1) Final Intermolecular Energy     =  -12.61 kcal/mol
DOCKED: USER        vdW + Hbond + desolv Energy     =  -12.61 kcal/mol
DOCKED: USER        Electrostatic Energy            =   +0.00 kcal/mol
DOCKED: USER    (2) Final Total Internal Energy     =   -0.48 kcal/mol
DOCKED: USER    (3) Torsional Free Energy           =   +2.09 kcal/mol
DOCKED: USER    (4) Unbound System's Energy  [=(2)] =   -0.48 kcal/mol
DOCKED: USER    
DOCKED: USER    
DOCKED: USER    NEWDPF move ligand.pdbqt
DOCKED: USER    NEWDPF about 0.016000 0.633000 0.013000
DOCKED: USER    NEWDPF tran0 38.081164 14.376646 123.661502
DOCKED: USER    NEWDPF quaternion0 -0.552444 -0.764957 0.206268 0.259036
DOCKED: USER    NEWDPF axisangle0 -0.571966 -0.791990 0.213558 149.974222
DOCKED: USER    NEWDPF quat0 -0.571966 -0.791990 0.213558 149.974222
DOCKED: USER    NEWDPF dihe0 180.00 -62.46 -64.61 21.44 52.10 17.89 -73.36 
DOCKED: USER  keepresnum = 1 
DOCKED: USER  
DOCKED: REMARK  Name = 
DOCKED: REMARK  7 active torsions:
DOCKED: REMARK  status: ('A' for Active; 'I' for Inactive)
DOCKED: REMARK    1  A    between atoms: C_3  and  C_4
DOCKED: REMARK    2  A    between atoms: C_4  and  C_5
DOCKED: REMARK    3  A    between atoms: C_5  and  C_6
DOCKED: REMARK    4  A    between atoms: C_6  and  C_7
DOCKED: REMARK    5  A    between atoms: C_7  and  C_8
DOCKED: REMARK    6  A    between atoms: C_8  and  C_9
DOCKED: REMARK    7  A    between atoms: C_9  and  C_10
DOCKED: REMARK                            x       y       z     vdW  Elec       q    Type
DOCKED: REMARK                         _______ _______ _______ _____ _____    ______ ____
DOCKED: USER                              x       y       z     vdW  Elec       q    Type
DOCKED: USER                           _______ _______ _______ _____ _____    ______ ____
DOCKED: ROOT
DOCKED: ATOM      1  C   UNL     1      36.040  13.788 123.059 -0.45 -0.00    +0.000 C 
DOCKED: ENDROOT
DOCKED: BRANCH   1   2
DOCKED: ATOM      2  C   UNL     1      36.354  15.208 123.551 -0.45 -0.00    +0.000 C 
DOCKED: BRANCH   2   3
DOCKED: ATOM      3  C   UNL     1      35.109  16.099 123.487 -0.48 -0.00    +0.000 C 
DOCKED: BRANCH   3   6
DOCKED: ATOM      4  O   UNL     1      33.317  16.245 126.814 -1.13 -0.00    +0.000 OA
DOCKED: ATOM      5  N   UNL     1      33.693  15.838 125.579 -0.47 -0.00    +0.000 N 
DOCKED: ATOM      6  C   UNL     1      34.709  16.541 124.862 -0.47 -0.00    +0.000 C 
DOCKED: ATOM      7  O   UNL     1      35.245  17.562 125.370 -0.33 -0.00    +0.000 OA
DOCKED: ATOM      8  H   UNL     1      33.264  15.051 125.172 -0.17 -0.00    +0.000 HD
DOCKED: ENDBRANCH   3   6
DOCKED: ENDBRANCH   2   3
DOCKED: ENDBRANCH   1   2
DOCKED: BRANCH   1   9
DOCKED: ATOM      9  C   UNL     1      36.305  12.709 124.125 -0.47 -0.00    +0.000 C 
DOCKED: BRANCH   9  10
DOCKED: ATOM     10  C   UNL     1      37.059  11.466 123.620 -0.66 -0.00    +0.000 C 
DOCKED: BRANCH  10  11
DOCKED: ATOM     11  C   UNL     1      36.541  10.962 122.267 -0.65 -0.00    +0.000 C 
DOCKED: BRANCH  11  12
DOCKED: ATOM     12  C   UNL     1      36.747   9.482 122.146 -0.69 -0.00    +0.000 C 
DOCKED: ATOM     13  N   UNL     1      36.880   8.676 123.319 -0.66 -0.00    +0.000 N 
DOCKED: ATOM     14  O   UNL     1      37.082   7.341 123.214 -2.35 -0.00    +0.000 OA
DOCKED: ATOM     15  O   UNL     1      36.842   8.955 121.006 -2.65 -0.00    +0.000 OA
DOCKED: ATOM     16  H   UNL     1      36.824   9.094 124.208 -0.51 -0.00    +0.000 HD
DOCKED: ENDBRANCH  11  12
DOCKED: ENDBRANCH  10  11
DOCKED: ENDBRANCH   9  10
DOCKED: ENDBRANCH   1   9
DOCKED: TORSDOF 7
DOCKED: TER
DOCKED: ENDMDL
________________________________________________________________________________


	BEGINNING GENETIC ALGORITHM DOCKING 30 of 100
Run: 30 Seed: 1594810223 1267727949 [ Run 30 of 100 GA/GALS ]
Beginning LAMARCKIAN GENETIC ALGORITHM (LGA), with a maximum of 2500000 energy evaluations.

Final-Value: -12.337


	FINAL GENETIC ALGORITHM DOCKED STATE
	_______________________________________________


Detailed state:  trans 36.453 14.883 122.877 quatxyzw -0.323068 -0.048373 -0.461467 0.824825 center 0.016 0.633 0.013 ntor 7 116.4057 -6.0329 -106.0364 -75.1706 -147.7749 -129.5046 -61.0744
State:	 36.453  14.883 122.877  -0.571 -0.086 -0.816 68.859    116.41   -6.03 -106.04  -75.17 -147.77 -129.50  -61.07

DOCKED: MODEL       30
DOCKED: USER    Run = 30
DOCKED: USER    DPF = ligand_dock.biased.dpf
DOCKED: USER  
DOCKED: USER    Estimated Free Energy of Binding    =   -9.55 kcal/mol  [=(1)+(2)+(3)-(4)]
DOCKED: USER    Estimated Inhibition Constant, Ki   =   99.29 nM (nanomolar)  [Temperature = 298.15 K]
DOCKED: USER    
DOCKED: USER    (1) Final Intermolecular Energy     =  -11.64 kcal/mol
DOCKED: USER        vdW + Hbond + desolv Energy     =  -11.64 kcal/mol
DOCKED: USER        Electrostatic Energy            =   +0.00 kcal/mol
DOCKED: USER    (2) Final Total Internal Energy     =   -0.70 kcal/mol
DOCKED: USER    (3) Torsional Free Energy           =   +2.09 kcal/mol
DOCKED: USER    (4) Unbound System's Energy  [=(2)] =   -0.70 kcal/mol
DOCKED: USER    
DOCKED: USER    
DOCKED: USER    NEWDPF move ligand.pdbqt
DOCKED: USER    NEWDPF about 0.016000 0.633000 0.013000
DOCKED: USER    NEWDPF tran0 36.452896 14.883328 122.877015
DOCKED: USER    NEWDPF quaternion0 -0.323068 -0.048373 -0.461467 0.824825
DOCKED: USER    NEWDPF axisangle0 -0.571409 -0.085558 -0.816194 68.858555
DOCKED: USER    NEWDPF quat0 -0.571409 -0.085558 -0.816194 68.858555
DOCKED: USER    NEWDPF dihe0 116.41 -6.03 -106.04 -75.17 -147.77 -129.50 -61.07 
DOCKED: USER  keepresnum = 1 
DOCKED: USER  
DOCKED: REMARK  Name = 
DOCKED: REMARK  7 active torsions:
DOCKED: REMARK  status: ('A' for Active; 'I' for Inactive)
DOCKED: REMARK    1  A    between atoms: C_3  and  C_4
DOCKED: REMARK    2  A    between atoms: C_4  and  C_5
DOCKED: REMARK    3  A    between atoms: C_5  and  C_6
DOCKED: REMARK    4  A    between atoms: C_6  and  C_7
DOCKED: REMARK    5  A    between atoms: C_7  and  C_8
DOCKED: REMARK    6  A    between atoms: C_8  and  C_9
DOCKED: REMARK    7  A    between atoms: C_9  and  C_10
DOCKED: REMARK                            x       y       z     vdW  Elec       q    Type
DOCKED: REMARK                         _______ _______ _______ _____ _____    ______ ____
DOCKED: USER                              x       y       z     vdW  Elec       q    Type
DOCKED: USER                           _______ _______ _______ _____ _____    ______ ____
DOCKED: ROOT
DOCKED: ATOM      1  C   UNL     1      38.435  14.246 122.141 -0.44 -0.00    +0.000 C 
DOCKED: ENDROOT
DOCKED: BRANCH   1   2
DOCKED: ATOM      2  C   UNL     1      37.840  15.611 121.766 -0.27 -0.00    +0.000 C 
DOCKED: BRANCH   2   3
DOCKED: ATOM      3  C   UNL     1      36.314  15.601 121.905 -0.18 -0.00    +0.000 C 
DOCKED: BRANCH   3   6
DOCKED: ATOM      4  O   UNL     1      34.244  15.295 125.054 -0.66 -0.00    +0.000 OA
DOCKED: ATOM      5  N   UNL     1      34.611  15.236 123.753 -0.56 -0.00    +0.000 N 
DOCKED: ATOM      6  C   UNL     1      35.918  15.651 123.349 -0.44 -0.00    +0.000 C 
DOCKED: ATOM      7  O   UNL     1      36.728  16.098 124.204 -0.37 -0.00    +0.000 OA
DOCKED: ATOM      8  H   UNL     1      33.975  14.904 123.080 -0.06 -0.00    +0.000 HD
DOCKED: ENDBRANCH   3   6
DOCKED: ENDBRANCH   2   3
DOCKED: ENDBRANCH   1   2
DOCKED: BRANCH   1   9
DOCKED: ATOM      9  C   UNL     1      37.589  13.063 121.635 -0.49 -0.00    +0.000 C 
DOCKED: BRANCH   9  10
DOCKED: ATOM     10  C   UNL     1      37.109  12.092 122.729 -0.61 -0.00    +0.000 C 
DOCKED: BRANCH  10  11
DOCKED: ATOM     11  C   UNL     1      36.059  11.094 122.223 -0.63 -0.00    +0.000 C 
DOCKED: BRANCH  11  12
DOCKED: ATOM     12  C   UNL     1      36.621   9.704 122.216 -0.69 -0.00    +0.000 C 
DOCKED: ATOM     13  N   UNL     1      36.698   8.952 123.429 -0.57 -0.00    +0.000 N 
DOCKED: ATOM     14  O   UNL     1      37.219   7.702 123.430 -2.63 -0.00    +0.000 OA
DOCKED: ATOM     15  O   UNL     1      37.063   9.214 121.143 -2.74 -0.00    +0.000 OA
DOCKED: ATOM     16  H   UNL     1      36.369   9.345 124.269 -0.32 -0.00    +0.000 HD
DOCKED: ENDBRANCH  11  12
DOCKED: ENDBRANCH  10  11
DOCKED: ENDBRANCH   9  10
DOCKED: ENDBRANCH   1   9
DOCKED: TORSDOF 7
DOCKED: TER
DOCKED: ENDMDL
________________________________________________________________________________


	BEGINNING GENETIC ALGORITHM DOCKING 31 of 100
Run: 31 Seed: 1111562493 1042266103 [ Run 31 of 100 GA/GALS ]
Beginning LAMARCKIAN GENETIC ALGORITHM (LGA), with a maximum of 2500000 energy evaluations.

Final-Value: -12.069


	FINAL GENETIC ALGORITHM DOCKED STATE
	_______________________________________________


Detailed state:  trans 34.919 12.308 123.214 quatxyzw -0.793766 0.449931 0.353727 -0.205850 center 0.016 0.633 0.013 ntor 7 -97.7103 42.0796 2.5349 -126.2984 -10.9665 -63.3362 -28.7380
State:	 34.919  12.308 123.214  -0.811  0.460  0.361 -156.241    -97.71   42.08    2.53 -126.30  -10.97  -63.34  -28.74

DOCKED: MODEL       31
DOCKED: USER    Run = 31
DOCKED: USER    DPF = ligand_dock.biased.dpf
DOCKED: USER  
DOCKED: USER    Estimated Free Energy of Binding    =   -9.61 kcal/mol  [=(1)+(2)+(3)-(4)]
DOCKED: USER    Estimated Inhibition Constant, Ki   =   90.19 nM (nanomolar)  [Temperature = 298.15 K]
DOCKED: USER    
DOCKED: USER    (1) Final Intermolecular Energy     =  -11.70 kcal/mol
DOCKED: USER        vdW + Hbond + desolv Energy     =  -11.70 kcal/mol
DOCKED: USER        Electrostatic Energy            =   +0.00 kcal/mol
DOCKED: USER    (2) Final Total Internal Energy     =   -0.37 kcal/mol
DOCKED: USER    (3) Torsional Free Energy           =   +2.09 kcal/mol
DOCKED: USER    (4) Unbound System's Energy  [=(2)] =   -0.37 kcal/mol
DOCKED: USER    
DOCKED: USER    
DOCKED: USER    NEWDPF move ligand.pdbqt
DOCKED: USER    NEWDPF about 0.016000 0.633000 0.013000
DOCKED: USER    NEWDPF tran0 34.918589 12.307615 123.213733
DOCKED: USER    NEWDPF quaternion0 -0.793766 0.449931 0.353727 -0.205850
DOCKED: USER    NEWDPF axisangle0 -0.811138 0.459778 0.361468 -156.241475
DOCKED: USER    NEWDPF quat0 -0.811138 0.459778 0.361468 -156.241475
DOCKED: USER    NEWDPF dihe0 -97.71 42.08 2.53 -126.30 -10.97 -63.34 -28.74 
DOCKED: USER  keepresnum = 1 
DOCKED: USER  
DOCKED: REMARK  Name = 
DOCKED: REMARK  7 active torsions:
DOCKED: REMARK  status: ('A' for Active; 'I' for Inactive)
DOCKED: REMARK    1  A    between atoms: C_3  and  C_4
DOCKED: REMARK    2  A    between atoms: C_4  and  C_5
DOCKED: REMARK    3  A    between atoms: C_5  and  C_6
DOCKED: REMARK    4  A    between atoms: C_6  and  C_7
DOCKED: REMARK    5  A    between atoms: C_7  and  C_8
DOCKED: REMARK    6  A    between atoms: C_8  and  C_9
DOCKED: REMARK    7  A    between atoms: C_9  and  C_10
DOCKED: REMARK                            x       y       z     vdW  Elec       q    Type
DOCKED: REMARK                         _______ _______ _______ _____ _____    ______ ____
DOCKED: USER                              x       y       z     vdW  Elec       q    Type
DOCKED: USER                           _______ _______ _______ _____ _____    ______ ____
DOCKED: ROOT
DOCKED: ATOM      1  C   UNL     1      36.707  13.429 122.566 -0.52 -0.00    +0.000 C 
DOCKED: ENDROOT
DOCKED: BRANCH   1   2
DOCKED: ATOM      2  C   UNL     1      36.765  11.922 122.855 -0.66 -0.00    +0.000 C 
DOCKED: BRANCH   2   3
DOCKED: ATOM      3  C   UNL     1      37.063  11.130 121.578 -0.53 -0.00    +0.000 C 
DOCKED: BRANCH   3   6
DOCKED: ATOM      4  O   UNL     1      37.056   7.847 123.455 -2.64 -0.00    +0.000 OA
DOCKED: ATOM      5  N   UNL     1      37.064   9.176 123.201 -0.63 -0.00    +0.000 N 
DOCKED: ATOM      6  C   UNL     1      37.035   9.658 121.855 -0.59 -0.00    +0.000 C 
DOCKED: ATOM      7  O   UNL     1      37.025   8.841 120.896 -2.70 -0.00    +0.000 OA
DOCKED: ATOM      8  H   UNL     1      37.089   9.816 123.948 -0.47 -0.00    +0.000 HD
DOCKED: ENDBRANCH   3   6
DOCKED: ENDBRANCH   2   3
DOCKED: ENDBRANCH   1   2
DOCKED: BRANCH   1   9
DOCKED: ATOM      9  C   UNL     1      36.324  14.264 123.802 -0.51 -0.00    +0.000 C 
DOCKED: BRANCH   9  10
DOCKED: ATOM     10  C   UNL     1      34.815  14.502 123.984 -0.38 -0.00    +0.000 C 
DOCKED: BRANCH  10  11
DOCKED: ATOM     11  C   UNL     1      34.453  15.990 124.094 -0.57 -0.00    +0.000 C 
DOCKED: BRANCH  11  12
DOCKED: ATOM     12  C   UNL     1      34.845  16.717 122.843 -0.40 -0.00    +0.000 C 
DOCKED: ATOM     13  N   UNL     1      33.889  17.521 122.148 -0.40 -0.00    +0.000 N 
DOCKED: ATOM     14  O   UNL     1      34.234  18.166 121.009 -0.38 -0.00    +0.000 OA
DOCKED: ATOM     15  O   UNL     1      36.010  16.585 122.382 -0.29 -0.00    +0.000 OA
DOCKED: ATOM     16  H   UNL     1      32.974  17.606 122.500 -0.02 -0.00    +0.000 HD
DOCKED: ENDBRANCH  11  12
DOCKED: ENDBRANCH  10  11
DOCKED: ENDBRANCH   9  10
DOCKED: ENDBRANCH   1   9
DOCKED: TORSDOF 7
DOCKED: TER
DOCKED: ENDMDL
________________________________________________________________________________


	BEGINNING GENETIC ALGORITHM DOCKING 32 of 100
Run: 32 Seed: 1798145253 298453167 [ Run 32 of 100 GA/GALS ]
Beginning LAMARCKIAN GENETIC ALGORITHM (LGA), with a maximum of 2500000 energy evaluations.

Final-Value: -13.202


	FINAL GENETIC ALGORITHM DOCKED STATE
	_______________________________________________


Detailed state:  trans 38.471 11.560 122.312 quatxyzw 0.586789 0.125171 0.692588 0.400417 center 0.016 0.633 0.013 ntor 7 -69.8055 177.9398 -21.6634 103.5111 178.4720 173.8324 -125.8066
State:	 38.471  11.560 122.312   0.640  0.137  0.756 132.792    -69.81  177.94  -21.66  103.51  178.47  173.83 -125.81

DOCKED: MODEL       32
DOCKED: USER    Run = 32
DOCKED: USER    DPF = ligand_dock.biased.dpf
DOCKED: USER  
DOCKED: USER    Estimated Free Energy of Binding    =  -10.50 kcal/mol  [=(1)+(2)+(3)-(4)]
DOCKED: USER    Estimated Inhibition Constant, Ki   =   20.06 nM (nanomolar)  [Temperature = 298.15 K]
DOCKED: USER    
DOCKED: USER    (1) Final Intermolecular Energy     =  -12.59 kcal/mol
DOCKED: USER        vdW + Hbond + desolv Energy     =  -12.59 kcal/mol
DOCKED: USER        Electrostatic Energy            =   +0.00 kcal/mol
DOCKED: USER    (2) Final Total Internal Energy     =   -0.61 kcal/mol
DOCKED: USER    (3) Torsional Free Energy           =   +2.09 kcal/mol
DOCKED: USER    (4) Unbound System's Energy  [=(2)] =   -0.61 kcal/mol
DOCKED: USER    
DOCKED: USER    
DOCKED: USER    NEWDPF move ligand.pdbqt
DOCKED: USER    NEWDPF about 0.016000 0.633000 0.013000
DOCKED: USER    NEWDPF tran0 38.470613 11.560389 122.312209
DOCKED: USER    NEWDPF quaternion0 0.586789 0.125171 0.692588 0.400417
DOCKED: USER    NEWDPF axisangle0 0.640366 0.136600 0.755825 132.791557
DOCKED: USER    NEWDPF quat0 0.640366 0.136600 0.755825 132.791557
DOCKED: USER    NEWDPF dihe0 -69.81 177.94 -21.66 103.51 178.47 173.83 -125.81 
DOCKED: USER  keepresnum = 1 
DOCKED: USER  
DOCKED: REMARK  Name = 
DOCKED: REMARK  7 active torsions:
DOCKED: REMARK  status: ('A' for Active; 'I' for Inactive)
DOCKED: REMARK    1  A    between atoms: C_3  and  C_4
DOCKED: REMARK    2  A    between atoms: C_4  and  C_5
DOCKED: REMARK    3  A    between atoms: C_5  and  C_6
DOCKED: REMARK    4  A    between atoms: C_6  and  C_7
DOCKED: REMARK    5  A    between atoms: C_7  and  C_8
DOCKED: REMARK    6  A    between atoms: C_8  and  C_9
DOCKED: REMARK    7  A    between atoms: C_9  and  C_10
DOCKED: REMARK                            x       y       z     vdW  Elec       q    Type
DOCKED: REMARK                         _______ _______ _______ _____ _____    ______ ____
DOCKED: USER                              x       y       z     vdW  Elec       q    Type
DOCKED: USER                           _______ _______ _______ _____ _____    ______ ____
DOCKED: ROOT
DOCKED: ATOM      1  C   UNL     1      37.341  13.045 123.494 -0.55 -0.00    +0.000 C 
DOCKED: ENDROOT
DOCKED: BRANCH   1   2
DOCKED: ATOM      2  C   UNL     1      37.005  11.548 123.553 -0.67 -0.00    +0.000 C 
DOCKED: BRANCH   2   3
DOCKED: ATOM      3  C   UNL     1      36.703  10.998 122.155 -0.63 -0.00    +0.000 C 
DOCKED: BRANCH   3   6
DOCKED: ATOM      4  O   UNL     1      37.151   7.432 123.329 -2.42 -0.00    +0.000 OA
DOCKED: ATOM      5  N   UNL     1      36.980   8.774 123.349 -0.64 -0.00    +0.000 N 
DOCKED: ATOM      6  C   UNL     1      36.873   9.510 122.128 -0.66 -0.00    +0.000 C 
DOCKED: ATOM      7  O   UNL     1      36.959   8.911 121.023 -2.68 -0.00    +0.000 OA
DOCKED: ATOM      8  H   UNL     1      36.930   9.247 124.210 -0.55 -0.00    +0.000 HD
DOCKED: ENDBRANCH   3   6
DOCKED: ENDBRANCH   2   3
DOCKED: ENDBRANCH   1   2
DOCKED: BRANCH   1   9
DOCKED: ATOM      9  C   UNL     1      37.153  13.649 122.090 -0.47 -0.00    +0.000 C 
DOCKED: BRANCH   9  10
DOCKED: ATOM     10  C   UNL     1      37.308  15.178 122.013 -0.33 -0.00    +0.000 C 
DOCKED: BRANCH  10  11
DOCKED: ATOM     11  C   UNL     1      38.550  15.613 121.223 -0.25 -0.00    +0.000 C 
DOCKED: BRANCH  11  12
DOCKED: ATOM     12  C   UNL     1      39.798  15.262 121.975 -0.37 -0.00    +0.000 C 
DOCKED: ATOM     13  N   UNL     1      40.449  16.241 122.788 -0.31 -0.00    +0.000 N 
DOCKED: ATOM     14  O   UNL     1      41.585  15.933 123.456 -1.06 +0.00    +0.000 OA
DOCKED: ATOM     15  O   UNL     1      40.296  14.110 121.857 -1.00 +0.00    +0.000 OA
DOCKED: ATOM     16  H   UNL     1      40.068  17.145 122.862 -0.00 -0.00    +0.000 HD
DOCKED: ENDBRANCH  11  12
DOCKED: ENDBRANCH  10  11
DOCKED: ENDBRANCH   9  10
DOCKED: ENDBRANCH   1   9
DOCKED: TORSDOF 7
DOCKED: TER
DOCKED: ENDMDL
________________________________________________________________________________


	BEGINNING GENETIC ALGORITHM DOCKING 33 of 100
Run: 33 Seed: 489790587 449511043 [ Run 33 of 100 GA/GALS ]
Beginning LAMARCKIAN GENETIC ALGORITHM (LGA), with a maximum of 2500000 energy evaluations.

Final-Value: -12.618


	FINAL GENETIC ALGORITHM DOCKED STATE
	_______________________________________________


Detailed state:  trans 36.177 12.919 123.872 quatxyzw -0.609454 0.589448 0.522189 0.091844 center 0.016 0.633 0.013 ntor 7 6.4785 -95.3795 -34.9248 -102.4279 -41.8075 -98.1095 -165.0287
State:	 36.177  12.919 123.872  -0.612  0.592  0.524 169.461      6.48  -95.38  -34.92 -102.43  -41.81  -98.11 -165.03

DOCKED: MODEL       33
DOCKED: USER    Run = 33
DOCKED: USER    DPF = ligand_dock.biased.dpf
DOCKED: USER  
DOCKED: USER    Estimated Free Energy of Binding    =  -10.01 kcal/mol  [=(1)+(2)+(3)-(4)]
DOCKED: USER    Estimated Inhibition Constant, Ki   =   46.16 nM (nanomolar)  [Temperature = 298.15 K]
DOCKED: USER    
DOCKED: USER    (1) Final Intermolecular Energy     =  -12.10 kcal/mol
DOCKED: USER        vdW + Hbond + desolv Energy     =  -12.10 kcal/mol
DOCKED: USER        Electrostatic Energy            =   +0.00 kcal/mol
DOCKED: USER    (2) Final Total Internal Energy     =   -0.52 kcal/mol
DOCKED: USER    (3) Torsional Free Energy           =   +2.09 kcal/mol
DOCKED: USER    (4) Unbound System's Energy  [=(2)] =   -0.52 kcal/mol
DOCKED: USER    
DOCKED: USER    
DOCKED: USER    NEWDPF move ligand.pdbqt
DOCKED: USER    NEWDPF about 0.016000 0.633000 0.013000
DOCKED: USER    NEWDPF tran0 36.176993 12.919217 123.872006
DOCKED: USER    NEWDPF quaternion0 -0.609454 0.589448 0.522189 0.091844
DOCKED: USER    NEWDPF axisangle0 -0.612041 0.591950 0.524405 169.460612
DOCKED: USER    NEWDPF quat0 -0.612041 0.591950 0.524405 169.460612
DOCKED: USER    NEWDPF dihe0 6.48 -95.38 -34.92 -102.43 -41.81 -98.11 -165.03 
DOCKED: USER  keepresnum = 1 
DOCKED: USER  
DOCKED: REMARK  Name = 
DOCKED: REMARK  7 active torsions:
DOCKED: REMARK  status: ('A' for Active; 'I' for Inactive)
DOCKED: REMARK    1  A    between atoms: C_3  and  C_4
DOCKED: REMARK    2  A    between atoms: C_4  and  C_5
DOCKED: REMARK    3  A    between atoms: C_5  and  C_6
DOCKED: REMARK    4  A    between atoms: C_6  and  C_7
DOCKED: REMARK    5  A    between atoms: C_7  and  C_8
DOCKED: REMARK    6  A    between atoms: C_8  and  C_9
DOCKED: REMARK    7  A    between atoms: C_9  and  C_10
DOCKED: REMARK                            x       y       z     vdW  Elec       q    Type
DOCKED: REMARK                         _______ _______ _______ _____ _____    ______ ____
DOCKED: USER                              x       y       z     vdW  Elec       q    Type
DOCKED: USER                           _______ _______ _______ _____ _____    ______ ____
DOCKED: ROOT
DOCKED: ATOM      1  C   UNL     1      37.018  13.391 121.885 -0.46 -0.00    +0.000 C 
DOCKED: ENDROOT
DOCKED: BRANCH   1   2
DOCKED: ATOM      2  C   UNL     1      37.296  12.049 122.577 -0.53 -0.00    +0.000 C 
DOCKED: BRANCH   2   3
DOCKED: ATOM      3  C   UNL     1      36.153  11.059 122.333 -0.66 -0.00    +0.000 C 
DOCKED: BRANCH   3   6
DOCKED: ATOM      4  O   UNL     1      37.294   7.592 123.323 -2.47 -0.00    +0.000 OA
DOCKED: ATOM      5  N   UNL     1      36.801   8.850 123.406 -0.60 -0.00    +0.000 N 
DOCKED: ATOM      6  C   UNL     1      36.682   9.660 122.234 -0.70 -0.00    +0.000 C 
DOCKED: ATOM      7  O   UNL     1      37.060   9.212 121.119 -2.74 -0.00    +0.000 OA
DOCKED: ATOM      8  H   UNL     1      36.521   9.208 124.278 -0.35 -0.00    +0.000 HD
DOCKED: ENDBRANCH   3   6
DOCKED: ENDBRANCH   2   3
DOCKED: ENDBRANCH   1   2
DOCKED: BRANCH   1   9
DOCKED: ATOM      9  C   UNL     1      37.556  14.598 122.677 -0.44 -0.00    +0.000 C 
DOCKED: BRANCH   9  10
DOCKED: ATOM     10  C   UNL     1      38.331  15.631 121.840 -0.28 -0.00    +0.000 C 
DOCKED: BRANCH  10  11
DOCKED: ATOM     11  C   UNL     1      39.250  16.520 122.690 -0.26 -0.00    +0.000 C 
DOCKED: BRANCH  11  12
DOCKED: ATOM     12  C   UNL     1      40.571  15.846 122.911 -0.33 -0.00    +0.000 C 
DOCKED: ATOM     13  N   UNL     1      40.750  14.476 122.544 -0.49 -0.00    +0.000 N 
DOCKED: ATOM     14  O   UNL     1      41.936  13.859 122.757 -0.80 -0.00    +0.000 OA
DOCKED: ATOM     15  O   UNL     1      41.512  16.479 123.459 -0.96 -0.00    +0.000 OA
DOCKED: ATOM     16  H   UNL     1      40.007  13.978 122.134 -0.03 +0.00    +0.000 HD
DOCKED: ENDBRANCH  11  12
DOCKED: ENDBRANCH  10  11
DOCKED: ENDBRANCH   9  10
DOCKED: ENDBRANCH   1   9
DOCKED: TORSDOF 7
DOCKED: TER
DOCKED: ENDMDL
________________________________________________________________________________


	BEGINNING GENETIC ALGORITHM DOCKING 34 of 100
Run: 34 Seed: 602994529 346490819 [ Run 34 of 100 GA/GALS ]
Beginning LAMARCKIAN GENETIC ALGORITHM (LGA), with a maximum of 2500000 energy evaluations.

Final-Value: -13.068


	FINAL GENETIC ALGORITHM DOCKED STATE
	_______________________________________________


Detailed state:  trans 35.727 12.286 124.846 quatxyzw 0.413913 -0.539832 -0.732067 -0.036559 center 0.016 0.633 0.013 ntor 7 -121.9516 170.4152 -2.2685 -58.2885 80.5348 155.1194 117.4950
State:	 35.727  12.286 124.846   0.414 -0.540 -0.733 -175.810   -121.95  170.42   -2.27  -58.29   80.53  155.12  117.49

DOCKED: MODEL       34
DOCKED: USER    Run = 34
DOCKED: USER    DPF = ligand_dock.biased.dpf
DOCKED: USER  
DOCKED: USER    Estimated Free Energy of Binding    =  -10.44 kcal/mol  [=(1)+(2)+(3)-(4)]
DOCKED: USER    Estimated Inhibition Constant, Ki   =   22.16 nM (nanomolar)  [Temperature = 298.15 K]
DOCKED: USER    
DOCKED: USER    (1) Final Intermolecular Energy     =  -12.53 kcal/mol
DOCKED: USER        vdW + Hbond + desolv Energy     =  -12.53 kcal/mol
DOCKED: USER        Electrostatic Energy            =   +0.00 kcal/mol
DOCKED: USER    (2) Final Total Internal Energy     =   -0.54 kcal/mol
DOCKED: USER    (3) Torsional Free Energy           =   +2.09 kcal/mol
DOCKED: USER    (4) Unbound System's Energy  [=(2)] =   -0.54 kcal/mol
DOCKED: USER    
DOCKED: USER    
DOCKED: USER    NEWDPF move ligand.pdbqt
DOCKED: USER    NEWDPF about 0.016000 0.633000 0.013000
DOCKED: USER    NEWDPF tran0 35.727421 12.285789 124.845567
DOCKED: USER    NEWDPF quaternion0 0.413913 -0.539832 -0.732067 -0.036559
DOCKED: USER    NEWDPF axisangle0 0.414189 -0.540193 -0.732556 -175.809767
DOCKED: USER    NEWDPF quat0 0.414189 -0.540193 -0.732556 -175.809767
DOCKED: USER    NEWDPF dihe0 -121.95 170.42 -2.27 -58.29 80.53 155.12 117.49 
DOCKED: USER  keepresnum = 1 
DOCKED: USER  
DOCKED: REMARK  Name = 
DOCKED: REMARK  7 active torsions:
DOCKED: REMARK  status: ('A' for Active; 'I' for Inactive)
DOCKED: REMARK    1  A    between atoms: C_3  and  C_4
DOCKED: REMARK    2  A    between atoms: C_4  and  C_5
DOCKED: REMARK    3  A    between atoms: C_5  and  C_6
DOCKED: REMARK    4  A    between atoms: C_6  and  C_7
DOCKED: REMARK    5  A    between atoms: C_7  and  C_8
DOCKED: REMARK    6  A    between atoms: C_8  and  C_9
DOCKED: REMARK    7  A    between atoms: C_9  and  C_10
DOCKED: REMARK                            x       y       z     vdW  Elec       q    Type
DOCKED: REMARK                         _______ _______ _______ _____ _____    ______ ____
DOCKED: USER                              x       y       z     vdW  Elec       q    Type
DOCKED: USER                           _______ _______ _______ _____ _____    ______ ____
DOCKED: ROOT
DOCKED: ATOM      1  C   UNL     1      35.942  13.292 122.892 -0.34 -0.00    +0.000 C 
DOCKED: ENDROOT
DOCKED: BRANCH   1   2
DOCKED: ATOM      2  C   UNL     1      35.993  11.763 123.017 -0.66 -0.00    +0.000 C 
DOCKED: BRANCH   2   3
DOCKED: ATOM      3  C   UNL     1      36.799  11.145 121.871 -0.58 -0.00    +0.000 C 
DOCKED: BRANCH   3   6
DOCKED: ATOM      4  O   UNL     1      37.106   7.725 123.454 -2.69 -0.00    +0.000 OA
DOCKED: ATOM      5  N   UNL     1      37.024   9.068 123.316 -0.61 -0.00    +0.000 N 
DOCKED: ATOM      6  C   UNL     1      36.870   9.656 122.022 -0.64 -0.00    +0.000 C 
DOCKED: ATOM      7  O   UNL     1      36.832   8.921 120.998 -2.65 -0.00    +0.000 OA
DOCKED: ATOM      8  H   UNL     1      37.071   9.645 124.111 -0.55 -0.00    +0.000 HD
DOCKED: ENDBRANCH   3   6
DOCKED: ENDBRANCH   2   3
DOCKED: ENDBRANCH   1   2
DOCKED: BRANCH   1   9
DOCKED: ATOM      9  C   UNL     1      37.075  13.997 123.660 -0.40 -0.00    +0.000 C 
DOCKED: BRANCH   9  10
DOCKED: ATOM     10  C   UNL     1      38.497  13.549 123.278 -0.11 -0.00    +0.000 C 
DOCKED: BRANCH  10  11
DOCKED: ATOM     11  C   UNL     1      39.132  14.435 122.197 -0.41 -0.00    +0.000 C 
DOCKED: BRANCH  11  12
DOCKED: ATOM     12  C   UNL     1      40.496  14.886 122.626 -0.46 -0.00    +0.000 C 
DOCKED: ATOM     13  N   UNL     1      40.700  16.225 123.083 -0.34 -0.00    +0.000 N 
DOCKED: ATOM     14  O   UNL     1      41.933  16.641 123.456 -1.04 -0.00    +0.000 OA
DOCKED: ATOM     15  O   UNL     1      41.471  14.093 122.544 -1.05 +0.00    +0.000 OA
DOCKED: ATOM     16  H   UNL     1      39.940  16.848 123.128 -0.01 -0.00    +0.000 HD
DOCKED: ENDBRANCH  11  12
DOCKED: ENDBRANCH  10  11
DOCKED: ENDBRANCH   9  10
DOCKED: ENDBRANCH   1   9
DOCKED: TORSDOF 7
DOCKED: TER
DOCKED: ENDMDL
________________________________________________________________________________


	BEGINNING GENETIC ALGORITHM DOCKING 35 of 100
Run: 35 Seed: 960065877 111755356 [ Run 35 of 100 GA/GALS ]
Beginning LAMARCKIAN GENETIC ALGORITHM (LGA), with a maximum of 2500000 energy evaluations.

Final-Value: -12.133


	FINAL GENETIC ALGORITHM DOCKED STATE
	_______________________________________________


Detailed state:  trans 36.344 13.309 123.914 quatxyzw 0.556229 0.146677 0.413023 -0.706051 center 0.016 0.633 0.013 ntor 7 -161.1428 -4.2653 -169.9988 -112.3139 11.8365 -103.8062 -10.7412
State:	 36.344  13.309 123.914   0.785  0.207  0.583 -90.171   -161.14   -4.27 -170.00 -112.31   11.84 -103.81  -10.74

DOCKED: MODEL       35
DOCKED: USER    Run = 35
DOCKED: USER    DPF = ligand_dock.biased.dpf
DOCKED: USER  
DOCKED: USER    Estimated Free Energy of Binding    =   -9.53 kcal/mol  [=(1)+(2)+(3)-(4)]
DOCKED: USER    Estimated Inhibition Constant, Ki   =  103.72 nM (nanomolar)  [Temperature = 298.15 K]
DOCKED: USER    
DOCKED: USER    (1) Final Intermolecular Energy     =  -11.62 kcal/mol
DOCKED: USER        vdW + Hbond + desolv Energy     =  -11.62 kcal/mol
DOCKED: USER        Electrostatic Energy            =   +0.00 kcal/mol
DOCKED: USER    (2) Final Total Internal Energy     =   -0.52 kcal/mol
DOCKED: USER    (3) Torsional Free Energy           =   +2.09 kcal/mol
DOCKED: USER    (4) Unbound System's Energy  [=(2)] =   -0.52 kcal/mol
DOCKED: USER    
DOCKED: USER    
DOCKED: USER    NEWDPF move ligand.pdbqt
DOCKED: USER    NEWDPF about 0.016000 0.633000 0.013000
DOCKED: USER    NEWDPF tran0 36.344010 13.309042 123.913705
DOCKED: USER    NEWDPF quaternion0 0.556229 0.146677 0.413023 -0.706051
DOCKED: USER    NEWDPF axisangle0 0.785455 0.207124 0.583233 -90.171016
DOCKED: USER    NEWDPF quat0 0.785455 0.207124 0.583233 -90.171016
DOCKED: USER    NEWDPF dihe0 -161.14 -4.27 -170.00 -112.31 11.84 -103.81 -10.74 
DOCKED: USER  keepresnum = 1 
DOCKED: USER  
DOCKED: REMARK  Name = 
DOCKED: REMARK  7 active torsions:
DOCKED: REMARK  status: ('A' for Active; 'I' for Inactive)
DOCKED: REMARK    1  A    between atoms: C_3  and  C_4
DOCKED: REMARK    2  A    between atoms: C_4  and  C_5
DOCKED: REMARK    3  A    between atoms: C_5  and  C_6
DOCKED: REMARK    4  A    between atoms: C_6  and  C_7
DOCKED: REMARK    5  A    between atoms: C_7  and  C_8
DOCKED: REMARK    6  A    between atoms: C_8  and  C_9
DOCKED: REMARK    7  A    between atoms: C_9  and  C_10
DOCKED: REMARK                            x       y       z     vdW  Elec       q    Type
DOCKED: REMARK                         _______ _______ _______ _____ _____    ______ ____
DOCKED: USER                              x       y       z     vdW  Elec       q    Type
DOCKED: USER                           _______ _______ _______ _____ _____    ______ ____
DOCKED: ROOT
DOCKED: ATOM      1  C   UNL     1      37.834  13.251 122.285 -0.48 -0.00    +0.000 C 
DOCKED: ENDROOT
DOCKED: BRANCH   1   2
DOCKED: ATOM      2  C   UNL     1      37.149  14.561 122.701 -0.45 -0.00    +0.000 C 
DOCKED: BRANCH   2   3
DOCKED: ATOM      3  C   UNL     1      38.158  15.712 122.762 -0.33 -0.00    +0.000 C 
DOCKED: BRANCH   3   6
DOCKED: ATOM      4  O   UNL     1      41.559  14.115 122.336 -1.02 +0.00    +0.000 OA
DOCKED: ATOM      5  N   UNL     1      40.373  14.475 122.880 -0.41 -0.00    +0.000 N 
DOCKED: ATOM      6  C   UNL     1      39.462  15.300 122.150 -0.37 -0.00    +0.000 C 
DOCKED: ATOM      7  O   UNL     1      39.773  15.717 121.002 -0.24 -0.00    +0.000 OA
DOCKED: ATOM      8  H   UNL     1      40.135  14.165 123.783 +0.04 -0.00    +0.000 HD
DOCKED: ENDBRANCH   3   6
DOCKED: ENDBRANCH   2   3
DOCKED: ENDBRANCH   1   2
DOCKED: BRANCH   1   9
DOCKED: ATOM      9  C   UNL     1      36.844  12.197 121.755 -0.56 -0.00    +0.000 C 
DOCKED: BRANCH   9  10
DOCKED: ATOM     10  C   UNL     1      35.945  11.552 122.825 -0.66 -0.00    +0.000 C 
DOCKED: BRANCH  10  11
DOCKED: ATOM     11  C   UNL     1      35.244  10.280 122.329 -0.62 -0.00    +0.000 C 
DOCKED: BRANCH  11  12
DOCKED: ATOM     12  C   UNL     1      36.213   9.137 122.271 -0.71 -0.00    +0.000 C 
DOCKED: ATOM     13  N   UNL     1      36.538   8.409 123.457 -0.65 -0.00    +0.000 N 
DOCKED: ATOM     14  O   UNL     1      37.425   7.387 123.413 -2.34 -0.00    +0.000 OA
DOCKED: ATOM     15  O   UNL     1      36.771   8.846 121.181 -2.63 -0.00    +0.000 OA
DOCKED: ATOM     16  H   UNL     1      36.114   8.652 124.311 -0.20 -0.00    +0.000 HD
DOCKED: ENDBRANCH  11  12
DOCKED: ENDBRANCH  10  11
DOCKED: ENDBRANCH   9  10
DOCKED: ENDBRANCH   1   9
DOCKED: TORSDOF 7
DOCKED: TER
DOCKED: ENDMDL
________________________________________________________________________________


	BEGINNING GENETIC ALGORITHM DOCKING 36 of 100
Run: 36 Seed: 1672276679 785467407 [ Run 36 of 100 GA/GALS ]
Beginning LAMARCKIAN GENETIC ALGORITHM (LGA), with a maximum of 2500000 energy evaluations.

Final-Value: -12.878


	FINAL GENETIC ALGORITHM DOCKED STATE
	_______________________________________________


Detailed state:  trans 36.094 13.895 121.596 quatxyzw -0.170296 -0.190657 0.566905 -0.783114 center 0.016 0.633 0.013 ntor 7 -127.2081 -22.0848 120.2626 -126.5909 92.4876 -156.6576 -59.4046
State:	 36.094  13.895 121.596  -0.274 -0.307  0.912 -76.907   -127.21  -22.08  120.26 -126.59   92.49 -156.66  -59.40

DOCKED: MODEL       36
DOCKED: USER    Run = 36
DOCKED: USER    DPF = ligand_dock.biased.dpf
DOCKED: USER  
DOCKED: USER    Estimated Free Energy of Binding    =  -10.17 kcal/mol  [=(1)+(2)+(3)-(4)]
DOCKED: USER    Estimated Inhibition Constant, Ki   =   35.26 nM (nanomolar)  [Temperature = 298.15 K]
DOCKED: USER    
DOCKED: USER    (1) Final Intermolecular Energy     =  -12.26 kcal/mol
DOCKED: USER        vdW + Hbond + desolv Energy     =  -12.26 kcal/mol
DOCKED: USER        Electrostatic Energy            =   +0.00 kcal/mol
DOCKED: USER    (2) Final Total Internal Energy     =   -0.62 kcal/mol
DOCKED: USER    (3) Torsional Free Energy           =   +2.09 kcal/mol
DOCKED: USER    (4) Unbound System's Energy  [=(2)] =   -0.62 kcal/mol
DOCKED: USER    
DOCKED: USER    
DOCKED: USER    NEWDPF move ligand.pdbqt
DOCKED: USER    NEWDPF about 0.016000 0.633000 0.013000
DOCKED: USER    NEWDPF tran0 36.093856 13.894543 121.596283
DOCKED: USER    NEWDPF quaternion0 -0.170296 -0.190657 0.566905 -0.783114
DOCKED: USER    NEWDPF axisangle0 -0.273842 -0.306583 0.911602 -76.906865
DOCKED: USER    NEWDPF quat0 -0.273842 -0.306583 0.911602 -76.906865
DOCKED: USER    NEWDPF dihe0 -127.21 -22.08 120.26 -126.59 92.49 -156.66 -59.40 
DOCKED: USER  keepresnum = 1 
DOCKED: USER  
DOCKED: REMARK  Name = 
DOCKED: REMARK  7 active torsions:
DOCKED: REMARK  status: ('A' for Active; 'I' for Inactive)
DOCKED: REMARK    1  A    between atoms: C_3  and  C_4
DOCKED: REMARK    2  A    between atoms: C_4  and  C_5
DOCKED: REMARK    3  A    between atoms: C_5  and  C_6
DOCKED: REMARK    4  A    between atoms: C_6  and  C_7
DOCKED: REMARK    5  A    between atoms: C_7  and  C_8
DOCKED: REMARK    6  A    between atoms: C_8  and  C_9
DOCKED: REMARK    7  A    between atoms: C_9  and  C_10
DOCKED: REMARK                            x       y       z     vdW  Elec       q    Type
DOCKED: REMARK                         _______ _______ _______ _____ _____    ______ ____
DOCKED: USER                              x       y       z     vdW  Elec       q    Type
DOCKED: USER                           _______ _______ _______ _____ _____    ______ ____
DOCKED: ROOT
DOCKED: ATOM      1  C   UNL     1      37.721  13.730 123.080 -0.53 -0.00    +0.000 C 
DOCKED: ENDROOT
DOCKED: BRANCH   1   2
DOCKED: ATOM      2  C   UNL     1      37.903  14.515 121.772 -0.39 -0.00    +0.000 C 
DOCKED: BRANCH   2   3
DOCKED: ATOM      3  C   UNL     1      39.315  14.326 121.210 -0.33 -0.00    +0.000 C 
DOCKED: BRANCH   3   6
DOCKED: ATOM      4  O   UNL     1      41.091  16.435 123.799 -0.77 -0.00    +0.000 OA
DOCKED: ATOM      5  N   UNL     1      40.158  16.010 122.914 -0.31 -0.00    +0.000 N 
DOCKED: ATOM      6  C   UNL     1      40.340  14.783 122.202 -0.42 -0.00    +0.000 C 
DOCKED: ATOM      7  O   UNL     1      41.386  14.103 122.380 -1.05 +0.00    +0.000 OA
DOCKED: ATOM      8  H   UNL     1      39.349  16.547 122.761 -0.00 -0.00    +0.000 HD
DOCKED: ENDBRANCH   3   6
DOCKED: ENDBRANCH   2   3
DOCKED: ENDBRANCH   1   2
DOCKED: BRANCH   1   9
DOCKED: ATOM      9  C   UNL     1      37.442  12.233 122.849 -0.53 -0.00    +0.000 C 
DOCKED: BRANCH   9  10
DOCKED: ATOM     10  C   UNL     1      36.111  11.723 123.428 -0.69 -0.00    +0.000 C 
DOCKED: BRANCH  10  11
DOCKED: ATOM     11  C   UNL     1      35.420  10.695 122.522 -0.60 -0.00    +0.000 C 
DOCKED: BRANCH  11  12
DOCKED: ATOM     12  C   UNL     1      36.293   9.490 122.336 -0.70 -0.00    +0.000 C 
DOCKED: ATOM     13  N   UNL     1      36.638   8.672 123.456 -0.61 -0.00    +0.000 N 
DOCKED: ATOM     14  O   UNL     1      37.440   7.593 123.296 -2.39 -0.00    +0.000 OA
DOCKED: ATOM     15  O   UNL     1      36.756   9.223 121.195 -2.64 -0.00    +0.000 OA
DOCKED: ATOM     16  H   UNL     1      36.291   8.895 124.350 -0.25 -0.00    +0.000 HD
DOCKED: ENDBRANCH  11  12
DOCKED: ENDBRANCH  10  11
DOCKED: ENDBRANCH   9  10
DOCKED: ENDBRANCH   1   9
DOCKED: TORSDOF 7
DOCKED: TER
DOCKED: ENDMDL
________________________________________________________________________________


	BEGINNING GENETIC ALGORITHM DOCKING 37 of 100
Run: 37 Seed: 1517334311 1456293979 [ Run 37 of 100 GA/GALS ]
Beginning LAMARCKIAN GENETIC ALGORITHM (LGA), with a maximum of 2500000 energy evaluations.

Final-Value: -12.987


	FINAL GENETIC ALGORITHM DOCKED STATE
	_______________________________________________


Detailed state:  trans 37.408 12.075 124.670 quatxyzw 0.089748 -0.515116 -0.843972 -0.119633 center 0.016 0.633 0.013 ntor 7 -92.9858 -58.5088 -17.7146 -126.7792 104.4914 180.0000 -180.0000
State:	 37.408  12.075 124.670   0.090 -0.519 -0.850 -166.258    -92.99  -58.51  -17.71 -126.78  104.49  180.00 -180.00

DOCKED: MODEL       37
DOCKED: USER    Run = 37
DOCKED: USER    DPF = ligand_dock.biased.dpf
DOCKED: USER  
DOCKED: USER    Estimated Free Energy of Binding    =  -10.35 kcal/mol  [=(1)+(2)+(3)-(4)]
DOCKED: USER    Estimated Inhibition Constant, Ki   =   26.09 nM (nanomolar)  [Temperature = 298.15 K]
DOCKED: USER    
DOCKED: USER    (1) Final Intermolecular Energy     =  -12.43 kcal/mol
DOCKED: USER        vdW + Hbond + desolv Energy     =  -12.43 kcal/mol
DOCKED: USER        Electrostatic Energy            =   +0.00 kcal/mol
DOCKED: USER    (2) Final Total Internal Energy     =   -0.55 kcal/mol
DOCKED: USER    (3) Torsional Free Energy           =   +2.09 kcal/mol
DOCKED: USER    (4) Unbound System's Energy  [=(2)] =   -0.55 kcal/mol
DOCKED: USER    
DOCKED: USER    
DOCKED: USER    NEWDPF move ligand.pdbqt
DOCKED: USER    NEWDPF about 0.016000 0.633000 0.013000
DOCKED: USER    NEWDPF tran0 37.408325 12.075434 124.669816
DOCKED: USER    NEWDPF quaternion0 0.089748 -0.515116 -0.843972 -0.119633
DOCKED: USER    NEWDPF axisangle0 0.090397 -0.518842 -0.850077 -166.258134
DOCKED: USER    NEWDPF quat0 0.090397 -0.518842 -0.850077 -166.258134
DOCKED: USER    NEWDPF dihe0 -92.99 -58.51 -17.71 -126.78 104.49 180.00 -180.00 
DOCKED: USER  keepresnum = 1 
DOCKED: USER  
DOCKED: REMARK  Name = 
DOCKED: REMARK  7 active torsions:
DOCKED: REMARK  status: ('A' for Active; 'I' for Inactive)
DOCKED: REMARK    1  A    between atoms: C_3  and  C_4
DOCKED: REMARK    2  A    between atoms: C_4  and  C_5
DOCKED: REMARK    3  A    between atoms: C_5  and  C_6
DOCKED: REMARK    4  A    between atoms: C_6  and  C_7
DOCKED: REMARK    5  A    between atoms: C_7  and  C_8
DOCKED: REMARK    6  A    between atoms: C_8  and  C_9
DOCKED: REMARK    7  A    between atoms: C_9  and  C_10
DOCKED: REMARK                            x       y       z     vdW  Elec       q    Type
DOCKED: REMARK                         _______ _______ _______ _____ _____    ______ ____
DOCKED: USER                              x       y       z     vdW  Elec       q    Type
DOCKED: USER                           _______ _______ _______ _____ _____    ______ ____
DOCKED: ROOT
DOCKED: ATOM      1  C   UNL     1      36.603  13.275 122.999 -0.58 -0.00    +0.000 C 
DOCKED: ENDROOT
DOCKED: BRANCH   1   2
DOCKED: ATOM      2  C   UNL     1      36.376  11.758 123.082 -0.69 -0.00    +0.000 C 
DOCKED: BRANCH   2   3
DOCKED: ATOM      3  C   UNL     1      36.734  11.077 121.757 -0.57 -0.00    +0.000 C 
DOCKED: BRANCH   3   6
DOCKED: ATOM      4  O   UNL     1      37.109   7.720 123.457 -2.69 -0.00    +0.000 OA
DOCKED: ATOM      5  N   UNL     1      36.938   9.050 123.273 -0.62 -0.00    +0.000 N 
DOCKED: ATOM      6  C   UNL     1      36.905   9.602 121.955 -0.63 -0.00    +0.000 C 
DOCKED: ATOM      7  O   UNL     1      37.061   8.851 120.955 -2.71 -0.00    +0.000 OA
DOCKED: ATOM      8  H   UNL     1      36.834   9.641 124.053 -0.49 -0.00    +0.000 HD
DOCKED: ENDBRANCH   3   6
DOCKED: ENDBRANCH   2   3
DOCKED: ENDBRANCH   1   2
DOCKED: BRANCH   1   9
DOCKED: ATOM      9  C   UNL     1      38.091  13.654 122.884 -0.48 -0.00    +0.000 C 
DOCKED: BRANCH   9  10
DOCKED: ATOM     10  C   UNL     1      38.473  14.407 121.597 -0.40 -0.00    +0.000 C 
DOCKED: BRANCH  10  11
DOCKED: ATOM     11  C   UNL     1      39.030  15.811 121.869 -0.28 -0.00    +0.000 C 
DOCKED: BRANCH  11  12
DOCKED: ATOM     12  C   UNL     1      40.273  15.729 122.703 -0.38 -0.00    +0.000 C 
DOCKED: ATOM     13  N   UNL     1      41.093  14.558 122.660 -0.55 -0.00    +0.000 N 
DOCKED: ATOM     14  O   UNL     1      42.207  14.473 123.423 -0.90 +0.00    +0.000 OA
DOCKED: ATOM     15  O   UNL     1      40.573  16.679 123.474 -0.45 -0.00    +0.000 OA
DOCKED: ATOM     16  H   UNL     1      40.845  13.810 122.071 -0.03 +0.00    +0.000 HD
DOCKED: ENDBRANCH  11  12
DOCKED: ENDBRANCH  10  11
DOCKED: ENDBRANCH   9  10
DOCKED: ENDBRANCH   1   9
DOCKED: TORSDOF 7
DOCKED: TER
DOCKED: ENDMDL
________________________________________________________________________________


	BEGINNING GENETIC ALGORITHM DOCKING 38 of 100
Run: 38 Seed: 877368078 1353528984 [ Run 38 of 100 GA/GALS ]
Beginning LAMARCKIAN GENETIC ALGORITHM (LGA), with a maximum of 2500000 energy evaluations.

Final-Value: -12.784


	FINAL GENETIC ALGORITHM DOCKED STATE
	_______________________________________________


Detailed state:  trans 37.617 11.459 122.845 quatxyzw 0.082029 -0.131482 0.913628 0.375855 center 0.016 0.633 0.013 ntor 7 -151.6047 -179.2184 -69.0353 -178.9946 -127.1548 154.8634 94.1674
State:	 37.617  11.459 122.845   0.089 -0.142  0.986 135.846   -151.60 -179.22  -69.04 -178.99 -127.15  154.86   94.17

DOCKED: MODEL       38
DOCKED: USER    Run = 38
DOCKED: USER    DPF = ligand_dock.biased.dpf
DOCKED: USER  
DOCKED: USER    Estimated Free Energy of Binding    =   -9.98 kcal/mol  [=(1)+(2)+(3)-(4)]
DOCKED: USER    Estimated Inhibition Constant, Ki   =   47.96 nM (nanomolar)  [Temperature = 298.15 K]
DOCKED: USER    
DOCKED: USER    (1) Final Intermolecular Energy     =  -12.07 kcal/mol
DOCKED: USER        vdW + Hbond + desolv Energy     =  -12.07 kcal/mol
DOCKED: USER        Electrostatic Energy            =   +0.00 kcal/mol
DOCKED: USER    (2) Final Total Internal Energy     =   -0.71 kcal/mol
DOCKED: USER    (3) Torsional Free Energy           =   +2.09 kcal/mol
DOCKED: USER    (4) Unbound System's Energy  [=(2)] =   -0.71 kcal/mol
DOCKED: USER    
DOCKED: USER    
DOCKED: USER    NEWDPF move ligand.pdbqt
DOCKED: USER    NEWDPF about 0.016000 0.633000 0.013000
DOCKED: USER    NEWDPF tran0 37.616509 11.459332 122.845069
DOCKED: USER    NEWDPF quaternion0 0.082029 -0.131482 0.913628 0.375855
DOCKED: USER    NEWDPF axisangle0 0.088519 -0.141886 0.985917 135.845721
DOCKED: USER    NEWDPF quat0 0.088519 -0.141886 0.985917 135.845721
DOCKED: USER    NEWDPF dihe0 -151.60 -179.22 -69.04 -178.99 -127.15 154.86 94.17 
DOCKED: USER  keepresnum = 1 
DOCKED: USER  
DOCKED: REMARK  Name = 
DOCKED: REMARK  7 active torsions:
DOCKED: REMARK  status: ('A' for Active; 'I' for Inactive)
DOCKED: REMARK    1  A    between atoms: C_3  and  C_4
DOCKED: REMARK    2  A    between atoms: C_4  and  C_5
DOCKED: REMARK    3  A    between atoms: C_5  and  C_6
DOCKED: REMARK    4  A    between atoms: C_6  and  C_7
DOCKED: REMARK    5  A    between atoms: C_7  and  C_8
DOCKED: REMARK    6  A    between atoms: C_8  and  C_9
DOCKED: REMARK    7  A    between atoms: C_9  and  C_10
DOCKED: REMARK                            x       y       z     vdW  Elec       q    Type
DOCKED: REMARK                         _______ _______ _______ _____ _____    ______ ____
DOCKED: USER                              x       y       z     vdW  Elec       q    Type
DOCKED: USER                           _______ _______ _______ _____ _____    ______ ____
DOCKED: ROOT
DOCKED: ATOM      1  C   UNL     1      36.010  12.483 123.962 -0.56 -0.00    +0.000 C 
DOCKED: ENDROOT
DOCKED: BRANCH   1   2
DOCKED: ATOM      2  C   UNL     1      35.727  11.737 122.650 -0.48 -0.00    +0.000 C 
DOCKED: BRANCH   2   3
DOCKED: ATOM      3  C   UNL     1      37.016  11.160 122.058 -0.56 -0.00    +0.000 C 
DOCKED: BRANCH   3   6
DOCKED: ATOM      4  O   UNL     1      37.074   7.642 123.443 -2.64 -0.00    +0.000 OA
DOCKED: ATOM      5  N   UNL     1      37.072   8.994 123.383 -0.61 -0.00    +0.000 N 
DOCKED: ATOM      6  C   UNL     1      36.999   9.663 122.121 -0.61 -0.00    +0.000 C 
DOCKED: ATOM      7  O   UNL     1      36.961   8.993 121.055 -2.69 -0.00    +0.000 OA
DOCKED: ATOM      8  H   UNL     1      37.119   9.520 124.212 -0.59 -0.00    +0.000 HD
DOCKED: ENDBRANCH   3   6
DOCKED: ENDBRANCH   2   3
DOCKED: ENDBRANCH   1   2
DOCKED: BRANCH   1   9
DOCKED: ATOM      9  C   UNL     1      36.981  13.665 123.784 -0.38 -0.00    +0.000 C 
DOCKED: BRANCH   9  10
DOCKED: ATOM     10  C   UNL     1      36.886  14.386 122.428 -0.42 -0.00    +0.000 C 
DOCKED: BRANCH  10  11
DOCKED: ATOM     11  C   UNL     1      35.941  15.595 122.459 -0.22 -0.00    +0.000 C 
DOCKED: BRANCH  11  12
DOCKED: ATOM     12  C   UNL     1      35.509  15.885 123.866 -0.48 -0.00    +0.000 C 
DOCKED: ATOM     13  N   UNL     1      34.290  15.336 124.372 -0.59 -0.00    +0.000 N 
DOCKED: ATOM     14  O   UNL     1      33.888  15.609 125.635 -0.82 -0.00    +0.000 OA
DOCKED: ATOM     15  O   UNL     1      36.204  16.647 124.588 -0.34 -0.00    +0.000 OA
DOCKED: ATOM     16  H   UNL     1      33.740  14.756 123.798 -0.10 -0.00    +0.000 HD
DOCKED: ENDBRANCH  11  12
DOCKED: ENDBRANCH  10  11
DOCKED: ENDBRANCH   9  10
DOCKED: ENDBRANCH   1   9
DOCKED: TORSDOF 7
DOCKED: TER
DOCKED: ENDMDL
________________________________________________________________________________


	BEGINNING GENETIC ALGORITHM DOCKING 39 of 100
Run: 39 Seed: 152943861 856606296 [ Run 39 of 100 GA/GALS ]
Beginning LAMARCKIAN GENETIC ALGORITHM (LGA), with a maximum of 2500000 energy evaluations.

Final-Value: -13.111


	FINAL GENETIC ALGORITHM DOCKED STATE
	_______________________________________________


Detailed state:  trans 39.447 13.957 123.461 quatxyzw 0.616871 0.719072 -0.163360 -0.275170 center 0.016 0.633 0.013 ntor 7 -179.7972 -73.9600 83.5995 -73.1230 -44.9214 115.1068 -153.9821
State:	 39.447  13.957 123.461   0.642  0.748 -0.170 -148.056   -179.80  -73.96   83.60  -73.12  -44.92  115.11 -153.98

DOCKED: MODEL       39
DOCKED: USER    Run = 39
DOCKED: USER    DPF = ligand_dock.biased.dpf
DOCKED: USER  
DOCKED: USER    Estimated Free Energy of Binding    =  -10.52 kcal/mol  [=(1)+(2)+(3)-(4)]
DOCKED: USER    Estimated Inhibition Constant, Ki   =   19.39 nM (nanomolar)  [Temperature = 298.15 K]
DOCKED: USER    
DOCKED: USER    (1) Final Intermolecular Energy     =  -12.61 kcal/mol
DOCKED: USER        vdW + Hbond + desolv Energy     =  -12.61 kcal/mol
DOCKED: USER        Electrostatic Energy            =   +0.00 kcal/mol
DOCKED: USER    (2) Final Total Internal Energy     =   -0.50 kcal/mol
DOCKED: USER    (3) Torsional Free Energy           =   +2.09 kcal/mol
DOCKED: USER    (4) Unbound System's Energy  [=(2)] =   -0.50 kcal/mol
DOCKED: USER    
DOCKED: USER    
DOCKED: USER    NEWDPF move ligand.pdbqt
DOCKED: USER    NEWDPF about 0.016000 0.633000 0.013000
DOCKED: USER    NEWDPF tran0 39.446786 13.957081 123.461244
DOCKED: USER    NEWDPF quaternion0 0.616871 0.719072 -0.163360 -0.275170
DOCKED: USER    NEWDPF axisangle0 0.641641 0.747946 -0.169920 -148.055715
DOCKED: USER    NEWDPF quat0 0.641641 0.747946 -0.169920 -148.055715
DOCKED: USER    NEWDPF dihe0 -179.80 -73.96 83.60 -73.12 -44.92 115.11 -153.98 
DOCKED: USER  keepresnum = 1 
DOCKED: USER  
DOCKED: REMARK  Name = 
DOCKED: REMARK  7 active torsions:
DOCKED: REMARK  status: ('A' for Active; 'I' for Inactive)
DOCKED: REMARK    1  A    between atoms: C_3  and  C_4
DOCKED: REMARK    2  A    between atoms: C_4  and  C_5
DOCKED: REMARK    3  A    between atoms: C_5  and  C_6
DOCKED: REMARK    4  A    between atoms: C_6  and  C_7
DOCKED: REMARK    5  A    between atoms: C_7  and  C_8
DOCKED: REMARK    6  A    between atoms: C_8  and  C_9
DOCKED: REMARK    7  A    between atoms: C_9  and  C_10
DOCKED: REMARK                            x       y       z     vdW  Elec       q    Type
DOCKED: REMARK                         _______ _______ _______ _____ _____    ______ ____
DOCKED: USER                              x       y       z     vdW  Elec       q    Type
DOCKED: USER                           _______ _______ _______ _____ _____    ______ ____
DOCKED: ROOT
DOCKED: ATOM      1  C   UNL     1      37.443  13.659 122.582 -0.52 -0.00    +0.000 C 
DOCKED: ENDROOT
DOCKED: BRANCH   1   2
DOCKED: ATOM      2  C   UNL     1      37.855  15.001 123.205 -0.37 -0.00    +0.000 C 
DOCKED: BRANCH   2   3
DOCKED: ATOM      3  C   UNL     1      38.705  15.821 122.230 -0.29 -0.00    +0.000 C 
DOCKED: BRANCH   3   6
DOCKED: ATOM      4  O   UNL     1      42.213  16.353 123.535 -1.09 +0.00    +0.000 OA
DOCKED: ATOM      5  N   UNL     1      40.892  16.533 123.306 -0.33 -0.00    +0.000 N 
DOCKED: ATOM      6  C   UNL     1      40.163  15.608 122.496 -0.38 -0.00    +0.000 C 
DOCKED: ATOM      7  O   UNL     1      40.758  14.629 121.970 -0.95 -0.00    +0.000 OA
DOCKED: ATOM      8  H   UNL     1      40.428  17.306 123.701 -0.01 -0.00    +0.000 HD
DOCKED: ENDBRANCH   3   6
DOCKED: ENDBRANCH   2   3
DOCKED: ENDBRANCH   1   2
DOCKED: BRANCH   1   9
DOCKED: ATOM      9  C   UNL     1      37.445  12.499 123.595 -0.51 -0.00    +0.000 C 
DOCKED: BRANCH   9  10
DOCKED: ATOM     10  C   UNL     1      36.342  11.448 123.383 -0.70 -0.00    +0.000 C 
DOCKED: BRANCH  10  11
DOCKED: ATOM     11  C   UNL     1      36.326  10.877 121.959 -0.60 -0.00    +0.000 C 
DOCKED: BRANCH  11  12
DOCKED: ATOM     12  C   UNL     1      36.682   9.421 121.975 -0.69 -0.00    +0.000 C 
DOCKED: ATOM     13  N   UNL     1      36.737   8.707 123.212 -0.67 -0.00    +0.000 N 
DOCKED: ATOM     14  O   UNL     1      37.074   7.396 123.232 -2.39 -0.00    +0.000 OA
DOCKED: ATOM     15  O   UNL     1      36.972   8.836 120.897 -2.68 -0.00    +0.000 OA
DOCKED: ATOM     16  H   UNL     1      36.529   9.171 124.054 -0.41 -0.00    +0.000 HD
DOCKED: ENDBRANCH  11  12
DOCKED: ENDBRANCH  10  11
DOCKED: ENDBRANCH   9  10
DOCKED: ENDBRANCH   1   9
DOCKED: TORSDOF 7
DOCKED: TER
DOCKED: ENDMDL
________________________________________________________________________________


	BEGINNING GENETIC ALGORITHM DOCKING 40 of 100
Run: 40 Seed: 420123644 314969152 [ Run 40 of 100 GA/GALS ]
Beginning LAMARCKIAN GENETIC ALGORITHM (LGA), with a maximum of 2500000 energy evaluations.

Final-Value: -12.838


	FINAL GENETIC ALGORITHM DOCKED STATE
	_______________________________________________


Detailed state:  trans 36.641 13.162 120.855 quatxyzw 0.419057 0.324398 -0.644896 0.550697 center 0.016 0.633 0.013 ntor 7 64.1685 -38.0400 85.6202 -108.0513 121.8908 165.2955 -70.6286
State:	 36.641  13.162 120.855   0.502  0.389 -0.773 113.170     64.17  -38.04   85.62 -108.05  121.89  165.30  -70.63

DOCKED: MODEL       40
DOCKED: USER    Run = 40
DOCKED: USER    DPF = ligand_dock.biased.dpf
DOCKED: USER  
DOCKED: USER    Estimated Free Energy of Binding    =  -10.16 kcal/mol  [=(1)+(2)+(3)-(4)]
DOCKED: USER    Estimated Inhibition Constant, Ki   =   35.60 nM (nanomolar)  [Temperature = 298.15 K]
DOCKED: USER    
DOCKED: USER    (1) Final Intermolecular Energy     =  -12.25 kcal/mol
DOCKED: USER        vdW + Hbond + desolv Energy     =  -12.25 kcal/mol
DOCKED: USER        Electrostatic Energy            =   +0.00 kcal/mol
DOCKED: USER    (2) Final Total Internal Energy     =   -0.59 kcal/mol
DOCKED: USER    (3) Torsional Free Energy           =   +2.09 kcal/mol
DOCKED: USER    (4) Unbound System's Energy  [=(2)] =   -0.59 kcal/mol
DOCKED: USER    
DOCKED: USER    
DOCKED: USER    NEWDPF move ligand.pdbqt
DOCKED: USER    NEWDPF about 0.016000 0.633000 0.013000
DOCKED: USER    NEWDPF tran0 36.641226 13.162358 120.854948
DOCKED: USER    NEWDPF quaternion0 0.419057 0.324398 -0.644896 0.550697
DOCKED: USER    NEWDPF axisangle0 0.502042 0.388638 -0.772603 113.170364
DOCKED: USER    NEWDPF quat0 0.502042 0.388638 -0.772603 113.170364
DOCKED: USER    NEWDPF dihe0 64.17 -38.04 85.62 -108.05 121.89 165.30 -70.63 
DOCKED: USER  keepresnum = 1 
DOCKED: USER  
DOCKED: REMARK  Name = 
DOCKED: REMARK  7 active torsions:
DOCKED: REMARK  status: ('A' for Active; 'I' for Inactive)
DOCKED: REMARK    1  A    between atoms: C_3  and  C_4
DOCKED: REMARK    2  A    between atoms: C_4  and  C_5
DOCKED: REMARK    3  A    between atoms: C_5  and  C_6
DOCKED: REMARK    4  A    between atoms: C_6  and  C_7
DOCKED: REMARK    5  A    between atoms: C_7  and  C_8
DOCKED: REMARK    6  A    between atoms: C_8  and  C_9
DOCKED: REMARK    7  A    between atoms: C_9  and  C_10
DOCKED: REMARK                            x       y       z     vdW  Elec       q    Type
DOCKED: REMARK                         _______ _______ _______ _____ _____    ______ ____
DOCKED: USER                              x       y       z     vdW  Elec       q    Type
DOCKED: USER                           _______ _______ _______ _____ _____    ______ ____
DOCKED: ROOT
DOCKED: ATOM      1  C   UNL     1      37.113  14.023 122.833 -0.50 -0.00    +0.000 C 
DOCKED: ENDROOT
DOCKED: BRANCH   1   2
DOCKED: ATOM      2  C   UNL     1      37.835  14.490 121.561 -0.38 -0.00    +0.000 C 
DOCKED: BRANCH   2   3
DOCKED: ATOM      3  C   UNL     1      39.314  14.090 121.592 -0.26 -0.00    +0.000 C 
DOCKED: BRANCH   3   6
DOCKED: ATOM      4  O   UNL     1      42.070  15.915 123.428 -1.13 +0.00    +0.000 OA
DOCKED: ATOM      5  N   UNL     1      41.324  14.913 122.907 -0.55 -0.00    +0.000 N 
DOCKED: ATOM      6  C   UNL     1      40.147  15.203 122.151 -0.41 -0.00    +0.000 C 
DOCKED: ATOM      7  O   UNL     1      39.785  16.399 121.985 -0.22 -0.00    +0.000 OA
DOCKED: ATOM      8  H   UNL     1      41.595  13.978 123.050 -0.08 -0.00    +0.000 HD
DOCKED: ENDBRANCH   3   6
DOCKED: ENDBRANCH   2   3
DOCKED: ENDBRANCH   1   2
DOCKED: BRANCH   1   9
DOCKED: ATOM      9  C   UNL     1      37.349  12.534 123.147 -0.59 -0.00    +0.000 C 
DOCKED: BRANCH   9  10
DOCKED: ATOM     10  C   UNL     1      36.079  11.728 123.473 -0.69 -0.00    +0.000 C 
DOCKED: BRANCH  10  11
DOCKED: ATOM     11  C   UNL     1      35.623  10.834 122.312 -0.61 -0.00    +0.000 C 
DOCKED: BRANCH  11  12
DOCKED: ATOM     12  C   UNL     1      36.445   9.582 122.263 -0.69 -0.00    +0.000 C 
DOCKED: ATOM     13  N   UNL     1      36.683   8.829 123.454 -0.59 -0.00    +0.000 N 
DOCKED: ATOM     14  O   UNL     1      37.438   7.706 123.416 -2.57 -0.00    +0.000 OA
DOCKED: ATOM     15  O   UNL     1      36.961   9.216 121.173 -2.71 -0.00    +0.000 OA
DOCKED: ATOM     16  H   UNL     1      36.294   9.128 124.307 -0.26 -0.00    +0.000 HD
DOCKED: ENDBRANCH  11  12
DOCKED: ENDBRANCH  10  11
DOCKED: ENDBRANCH   9  10
DOCKED: ENDBRANCH   1   9
DOCKED: TORSDOF 7
DOCKED: TER
DOCKED: ENDMDL
________________________________________________________________________________


	BEGINNING GENETIC ALGORITHM DOCKING 41 of 100
Run: 41 Seed: 604356602 1078221215 [ Run 41 of 100 GA/GALS ]
Beginning LAMARCKIAN GENETIC ALGORITHM (LGA), with a maximum of 2500000 energy evaluations.

Final-Value: -12.942


	FINAL GENETIC ALGORITHM DOCKED STATE
	_______________________________________________


Detailed state:  trans 39.185 15.054 122.816 quatxyzw 0.492066 0.836507 -0.160603 -0.179815 center 0.016 0.633 0.013 ntor 7 160.5249 -95.0103 131.2084 -42.7342 -87.1826 129.5589 -158.6724
State:	 39.185  15.054 122.816   0.500  0.850 -0.163 -159.282    160.52  -95.01  131.21  -42.73  -87.18  129.56 -158.67

DOCKED: MODEL       41
DOCKED: USER    Run = 41
DOCKED: USER    DPF = ligand_dock.biased.dpf
DOCKED: USER  
DOCKED: USER    Estimated Free Energy of Binding    =  -10.50 kcal/mol  [=(1)+(2)+(3)-(4)]
DOCKED: USER    Estimated Inhibition Constant, Ki   =   20.25 nM (nanomolar)  [Temperature = 298.15 K]
DOCKED: USER    
DOCKED: USER    (1) Final Intermolecular Energy     =  -12.58 kcal/mol
DOCKED: USER        vdW + Hbond + desolv Energy     =  -12.58 kcal/mol
DOCKED: USER        Electrostatic Energy            =   +0.00 kcal/mol
DOCKED: USER    (2) Final Total Internal Energy     =   -0.36 kcal/mol
DOCKED: USER    (3) Torsional Free Energy           =   +2.09 kcal/mol
DOCKED: USER    (4) Unbound System's Energy  [=(2)] =   -0.36 kcal/mol
DOCKED: USER    
DOCKED: USER    
DOCKED: USER    NEWDPF move ligand.pdbqt
DOCKED: USER    NEWDPF about 0.016000 0.633000 0.013000
DOCKED: USER    NEWDPF tran0 39.185436 15.054370 122.815612
DOCKED: USER    NEWDPF quaternion0 0.492066 0.836507 -0.160603 -0.179815
DOCKED: USER    NEWDPF axisangle0 0.500219 0.850368 -0.163265 -159.282045
DOCKED: USER    NEWDPF quat0 0.500219 0.850368 -0.163265 -159.282045
DOCKED: USER    NEWDPF dihe0 160.52 -95.01 131.21 -42.73 -87.18 129.56 -158.67 
DOCKED: USER  keepresnum = 1 
DOCKED: USER  
DOCKED: REMARK  Name = 
DOCKED: REMARK  7 active torsions:
DOCKED: REMARK  status: ('A' for Active; 'I' for Inactive)
DOCKED: REMARK    1  A    between atoms: C_3  and  C_4
DOCKED: REMARK    2  A    between atoms: C_4  and  C_5
DOCKED: REMARK    3  A    between atoms: C_5  and  C_6
DOCKED: REMARK    4  A    between atoms: C_6  and  C_7
DOCKED: REMARK    5  A    between atoms: C_7  and  C_8
DOCKED: REMARK    6  A    between atoms: C_8  and  C_9
DOCKED: REMARK    7  A    between atoms: C_9  and  C_10
DOCKED: REMARK                            x       y       z     vdW  Elec       q    Type
DOCKED: REMARK                         _______ _______ _______ _____ _____    ______ ____
DOCKED: USER                              x       y       z     vdW  Elec       q    Type
DOCKED: USER                           _______ _______ _______ _____ _____    ______ ____
DOCKED: ROOT
DOCKED: ATOM      1  C   UNL     1      37.191  14.217 122.371 -0.45 -0.00    +0.000 C 
DOCKED: ENDROOT
DOCKED: BRANCH   1   2
DOCKED: ATOM      2  C   UNL     1      37.355  15.585 123.050 -0.37 -0.00    +0.000 C 
DOCKED: BRANCH   2   3
DOCKED: ATOM      3  C   UNL     1      38.546  16.349 122.464 -0.25 -0.00    +0.000 C 
DOCKED: BRANCH   3   6
DOCKED: ATOM      4  O   UNL     1      42.016  14.983 123.086 -1.07 +0.00    +0.000 OA
DOCKED: ATOM      5  N   UNL     1      40.918  15.770 123.162 -0.35 -0.00    +0.000 N 
DOCKED: ATOM      6  C   UNL     1      39.753  15.465 122.391 -0.38 -0.00    +0.000 C 
DOCKED: ATOM      7  O   UNL     1      39.754  14.471 121.617 -0.86 -0.00    +0.000 OA
DOCKED: ATOM      8  H   UNL     1      40.920  16.556 123.752 -0.03 -0.00    +0.000 HD
DOCKED: ENDBRANCH   3   6
DOCKED: ENDBRANCH   2   3
DOCKED: ENDBRANCH   1   2
DOCKED: BRANCH   1   9
DOCKED: ATOM      9  C   UNL     1      37.767  13.058 123.206 -0.50 -0.00    +0.000 C 
DOCKED: BRANCH   9  10
DOCKED: ATOM     10  C   UNL     1      36.922  11.772 123.203 -0.67 -0.00    +0.000 C 
DOCKED: BRANCH  10  11
DOCKED: ATOM     11  C   UNL     1      36.898  11.076 121.836 -0.56 -0.00    +0.000 C 
DOCKED: BRANCH  11  12
DOCKED: ATOM     12  C   UNL     1      36.868   9.586 122.008 -0.65 -0.00    +0.000 C 
DOCKED: ATOM     13  N   UNL     1      37.072   9.007 123.299 -0.62 -0.00    +0.000 N 
DOCKED: ATOM     14  O   UNL     1      37.062   7.662 123.456 -2.66 -0.00    +0.000 OA
DOCKED: ATOM     15  O   UNL     1      36.702   8.845 121.004 -2.62 -0.00    +0.000 OA
DOCKED: ATOM     16  H   UNL     1      37.220   9.588 124.078 -0.56 -0.00    +0.000 HD
DOCKED: ENDBRANCH  11  12
DOCKED: ENDBRANCH  10  11
DOCKED: ENDBRANCH   9  10
DOCKED: ENDBRANCH   1   9
DOCKED: TORSDOF 7
DOCKED: TER
DOCKED: ENDMDL
________________________________________________________________________________


	BEGINNING GENETIC ALGORITHM DOCKING 42 of 100
Run: 42 Seed: 2056734435 672740170 [ Run 42 of 100 GA/GALS ]
Beginning LAMARCKIAN GENETIC ALGORITHM (LGA), with a maximum of 2500000 energy evaluations.

Final-Value: -12.292


	FINAL GENETIC ALGORITHM DOCKED STATE
	_______________________________________________


Detailed state:  trans 38.571 14.448 123.309 quatxyzw -0.547020 -0.815976 -0.179214 0.053236 center 0.016 0.633 0.013 ntor 7 -48.2484 -24.3716 88.1155 -88.0299 70.2490 -179.6996 119.8438
State:	 38.571  14.448 123.309  -0.548 -0.817 -0.179 173.897    -48.25  -24.37   88.12  -88.03   70.25 -179.70  119.84

DOCKED: MODEL       42
DOCKED: USER    Run = 42
DOCKED: USER    DPF = ligand_dock.biased.dpf
DOCKED: USER  
DOCKED: USER    Estimated Free Energy of Binding    =   -9.66 kcal/mol  [=(1)+(2)+(3)-(4)]
DOCKED: USER    Estimated Inhibition Constant, Ki   =   83.41 nM (nanomolar)  [Temperature = 298.15 K]
DOCKED: USER    
DOCKED: USER    (1) Final Intermolecular Energy     =  -11.75 kcal/mol
DOCKED: USER        vdW + Hbond + desolv Energy     =  -11.75 kcal/mol
DOCKED: USER        Electrostatic Energy            =   +0.00 kcal/mol
DOCKED: USER    (2) Final Total Internal Energy     =   -0.55 kcal/mol
DOCKED: USER    (3) Torsional Free Energy           =   +2.09 kcal/mol
DOCKED: USER    (4) Unbound System's Energy  [=(2)] =   -0.55 kcal/mol
DOCKED: USER    
DOCKED: USER    
DOCKED: USER    NEWDPF move ligand.pdbqt
DOCKED: USER    NEWDPF about 0.016000 0.633000 0.013000
DOCKED: USER    NEWDPF tran0 38.571475 14.447678 123.309365
DOCKED: USER    NEWDPF quaternion0 -0.547020 -0.815976 -0.179214 0.053236
DOCKED: USER    NEWDPF axisangle0 -0.547797 -0.817135 -0.179469 173.896666
DOCKED: USER    NEWDPF quat0 -0.547797 -0.817135 -0.179469 173.896666
DOCKED: USER    NEWDPF dihe0 -48.25 -24.37 88.12 -88.03 70.25 -179.70 119.84 
DOCKED: USER  keepresnum = 1 
DOCKED: USER  
DOCKED: REMARK  Name = 
DOCKED: REMARK  7 active torsions:
DOCKED: REMARK  status: ('A' for Active; 'I' for Inactive)
DOCKED: REMARK    1  A    between atoms: C_3  and  C_4
DOCKED: REMARK    2  A    between atoms: C_4  and  C_5
DOCKED: REMARK    3  A    between atoms: C_5  and  C_6
DOCKED: REMARK    4  A    between atoms: C_6  and  C_7
DOCKED: REMARK    5  A    between atoms: C_7  and  C_8
DOCKED: REMARK    6  A    between atoms: C_8  and  C_9
DOCKED: REMARK    7  A    between atoms: C_9  and  C_10
DOCKED: REMARK                            x       y       z     vdW  Elec       q    Type
DOCKED: REMARK                         _______ _______ _______ _____ _____    ______ ____
DOCKED: USER                              x       y       z     vdW  Elec       q    Type
DOCKED: USER                           _______ _______ _______ _____ _____    ______ ____
DOCKED: ROOT
DOCKED: ATOM      1  C   UNL     1      36.685  14.272 122.174 -0.34 -0.00    +0.000 C 
DOCKED: ENDROOT
DOCKED: BRANCH   1   2
DOCKED: ATOM      2  C   UNL     1      36.714  14.839 123.601 -0.44 -0.00    +0.000 C 
DOCKED: BRANCH   2   3
DOCKED: ATOM      3  C   UNL     1      35.308  14.875 124.206 -0.55 -0.00    +0.000 C 
DOCKED: BRANCH   3   6
DOCKED: ATOM      4  O   UNL     1      34.308  18.064 122.437 -0.40 -0.00    +0.000 OA
DOCKED: ATOM      5  N   UNL     1      34.889  16.868 122.688 -0.35 -0.00    +0.000 N 
DOCKED: ATOM      6  C   UNL     1      34.648  16.191 123.924 -0.53 -0.00    +0.000 C 
DOCKED: ATOM      7  O   UNL     1      33.909  16.719 124.797 -0.51 -0.00    +0.000 OA
DOCKED: ATOM      8  H   UNL     1      35.480  16.460 122.015 -0.01 -0.00    +0.000 HD
DOCKED: ENDBRANCH   3   6
DOCKED: ENDBRANCH   2   3
DOCKED: ENDBRANCH   1   2
DOCKED: BRANCH   1   9
DOCKED: ATOM      9  C   UNL     1      37.158  12.809 122.099 -0.54 -0.00    +0.000 C 
DOCKED: BRANCH   9  10
DOCKED: ATOM     10  C   UNL     1      36.351  11.819 122.958 -0.68 -0.00    +0.000 C 
DOCKED: BRANCH  10  11
DOCKED: ATOM     11  C   UNL     1      35.667  10.726 122.126 -0.53 -0.00    +0.000 C 
DOCKED: BRANCH  11  12
DOCKED: ATOM     12  C   UNL     1      36.468   9.459 122.166 -0.69 -0.00    +0.000 C 
DOCKED: ATOM     13  N   UNL     1      36.707   8.798 123.411 -0.61 -0.00    +0.000 N 
DOCKED: ATOM     14  O   UNL     1      37.443   7.663 123.454 -2.56 -0.00    +0.000 OA
DOCKED: ATOM     15  O   UNL     1      36.965   9.000 121.104 -2.69 -0.00    +0.000 OA
DOCKED: ATOM     16  H   UNL     1      36.333   9.170 124.242 -0.33 -0.00    +0.000 HD
DOCKED: ENDBRANCH  11  12
DOCKED: ENDBRANCH  10  11
DOCKED: ENDBRANCH   9  10
DOCKED: ENDBRANCH   1   9
DOCKED: TORSDOF 7
DOCKED: TER
DOCKED: ENDMDL
________________________________________________________________________________


	BEGINNING GENETIC ALGORITHM DOCKING 43 of 100
Run: 43 Seed: 1596085584 1819066030 [ Run 43 of 100 GA/GALS ]
Beginning LAMARCKIAN GENETIC ALGORITHM (LGA), with a maximum of 2500000 energy evaluations.

Final-Value: -12.560


	FINAL GENETIC ALGORITHM DOCKED STATE
	_______________________________________________


Detailed state:  trans 36.452 12.265 122.435 quatxyzw 0.607212 -0.524392 -0.563489 -0.196944 center 0.016 0.633 0.013 ntor 7 45.7068 172.9683 -33.5557 -140.9825 -97.2874 -66.9773 56.9844
State:	 36.452  12.265 122.435   0.619 -0.535 -0.575 -157.283     45.71  172.97  -33.56 -140.98  -97.29  -66.98   56.98

DOCKED: MODEL       43
DOCKED: USER    Run = 43
DOCKED: USER    DPF = ligand_dock.biased.dpf
DOCKED: USER  
DOCKED: USER    Estimated Free Energy of Binding    =   -9.66 kcal/mol  [=(1)+(2)+(3)-(4)]
DOCKED: USER    Estimated Inhibition Constant, Ki   =   83.69 nM (nanomolar)  [Temperature = 298.15 K]
DOCKED: USER    
DOCKED: USER    (1) Final Intermolecular Energy     =  -11.74 kcal/mol
DOCKED: USER        vdW + Hbond + desolv Energy     =  -11.74 kcal/mol
DOCKED: USER        Electrostatic Energy            =   +0.00 kcal/mol
DOCKED: USER    (2) Final Total Internal Energy     =   -0.82 kcal/mol
DOCKED: USER    (3) Torsional Free Energy           =   +2.09 kcal/mol
DOCKED: USER    (4) Unbound System's Energy  [=(2)] =   -0.82 kcal/mol
DOCKED: USER    
DOCKED: USER    
DOCKED: USER    NEWDPF move ligand.pdbqt
DOCKED: USER    NEWDPF about 0.016000 0.633000 0.013000
DOCKED: USER    NEWDPF tran0 36.451610 12.264884 122.435284
DOCKED: USER    NEWDPF quaternion0 0.607212 -0.524392 -0.563489 -0.196944
DOCKED: USER    NEWDPF axisangle0 0.619342 -0.534867 -0.574746 -157.283326
DOCKED: USER    NEWDPF quat0 0.619342 -0.534867 -0.574746 -157.283326
DOCKED: USER    NEWDPF dihe0 45.71 172.97 -33.56 -140.98 -97.29 -66.98 56.98 
DOCKED: USER  keepresnum = 1 
DOCKED: USER  
DOCKED: REMARK  Name = 
DOCKED: REMARK  7 active torsions:
DOCKED: REMARK  status: ('A' for Active; 'I' for Inactive)
DOCKED: REMARK    1  A    between atoms: C_3  and  C_4
DOCKED: REMARK    2  A    between atoms: C_4  and  C_5
DOCKED: REMARK    3  A    between atoms: C_5  and  C_6
DOCKED: REMARK    4  A    between atoms: C_6  and  C_7
DOCKED: REMARK    5  A    between atoms: C_7  and  C_8
DOCKED: REMARK    6  A    between atoms: C_8  and  C_9
DOCKED: REMARK    7  A    between atoms: C_9  and  C_10
DOCKED: REMARK                            x       y       z     vdW  Elec       q    Type
DOCKED: REMARK                         _______ _______ _______ _____ _____    ______ ____
DOCKED: USER                              x       y       z     vdW  Elec       q    Type
DOCKED: USER                           _______ _______ _______ _____ _____    ______ ____
DOCKED: ROOT
DOCKED: ATOM      1  C   UNL     1      36.811  12.820 120.328 -0.41 -0.00    +0.000 C 
DOCKED: ENDROOT
DOCKED: BRANCH   1   2
DOCKED: ATOM      2  C   UNL     1      37.448  11.569 120.949 -0.45 -0.00    +0.000 C 
DOCKED: BRANCH   2   3
DOCKED: ATOM      3  C   UNL     1      36.581  11.018 122.086 -0.63 -0.00    +0.000 C 
DOCKED: BRANCH   3   6
DOCKED: ATOM      4  O   UNL     1      37.112   7.535 123.458 -2.55 -0.00    +0.000 OA
DOCKED: ATOM      5  N   UNL     1      36.994   8.882 123.395 -0.62 -0.00    +0.000 N 
DOCKED: ATOM      6  C   UNL     1      36.692   9.526 122.155 -0.70 -0.00    +0.000 C 
DOCKED: ATOM      7  O   UNL     1      36.556   8.840 121.107 -2.45 -0.00    +0.000 OA
DOCKED: ATOM      8  H   UNL     1      37.116   9.421 124.208 -0.59 -0.00    +0.000 HD
DOCKED: ENDBRANCH   3   6
DOCKED: ENDBRANCH   2   3
DOCKED: ENDBRANCH   1   2
DOCKED: BRANCH   1   9
DOCKED: ATOM      9  C   UNL     1      37.262  14.125 121.010 -0.35 -0.00    +0.000 C 
DOCKED: BRANCH   9  10
DOCKED: ATOM     10  C   UNL     1      38.171  13.937 122.238 -0.46 -0.00    +0.000 C 
DOCKED: BRANCH  10  11
DOCKED: ATOM     11  C   UNL     1      37.674  14.703 123.472 -0.32 -0.00    +0.000 C 
DOCKED: BRANCH  11  12
DOCKED: ATOM     12  C   UNL     1      36.204  14.485 123.666 -0.51 -0.00    +0.000 C 
DOCKED: ATOM     13  N   UNL     1      35.268  15.491 123.269 -0.42 -0.00    +0.000 N 
DOCKED: ATOM     14  O   UNL     1      33.941  15.305 123.458 -0.63 -0.00    +0.000 OA
DOCKED: ATOM     15  O   UNL     1      35.796  13.429 124.218 -0.63 -0.00    +0.000 OA
DOCKED: ATOM     16  H   UNL     1      35.591  16.323 122.856 -0.01 -0.00    +0.000 HD
DOCKED: ENDBRANCH  11  12
DOCKED: ENDBRANCH  10  11
DOCKED: ENDBRANCH   9  10
DOCKED: ENDBRANCH   1   9
DOCKED: TORSDOF 7
DOCKED: TER
DOCKED: ENDMDL
________________________________________________________________________________


	BEGINNING GENETIC ALGORITHM DOCKING 44 of 100
Run: 44 Seed: 1851122240 279888515 [ Run 44 of 100 GA/GALS ]
Beginning LAMARCKIAN GENETIC ALGORITHM (LGA), with a maximum of 2500000 energy evaluations.

Final-Value: -12.274


	FINAL GENETIC ALGORITHM DOCKED STATE
	_______________________________________________


Detailed state:  trans 37.418 14.167 122.457 quatxyzw 0.451992 0.243571 0.282273 -0.810369 center 0.016 0.633 0.013 ntor 7 -176.5601 16.8968 -116.5606 -115.9308 -76.6782 -107.5742 -17.2061
State:	 37.418  14.167 122.457   0.771  0.416  0.482 -71.736   -176.56   16.90 -116.56 -115.93  -76.68 -107.57  -17.21

DOCKED: MODEL       44
DOCKED: USER    Run = 44
DOCKED: USER    DPF = ligand_dock.biased.dpf
DOCKED: USER  
DOCKED: USER    Estimated Free Energy of Binding    =   -9.57 kcal/mol  [=(1)+(2)+(3)-(4)]
DOCKED: USER    Estimated Inhibition Constant, Ki   =   95.85 nM (nanomolar)  [Temperature = 298.15 K]
DOCKED: USER    
DOCKED: USER    (1) Final Intermolecular Energy     =  -11.66 kcal/mol
DOCKED: USER        vdW + Hbond + desolv Energy     =  -11.66 kcal/mol
DOCKED: USER        Electrostatic Energy            =   +0.00 kcal/mol
DOCKED: USER    (2) Final Total Internal Energy     =   -0.61 kcal/mol
DOCKED: USER    (3) Torsional Free Energy           =   +2.09 kcal/mol
DOCKED: USER    (4) Unbound System's Energy  [=(2)] =   -0.61 kcal/mol
DOCKED: USER    
DOCKED: USER    
DOCKED: USER    NEWDPF move ligand.pdbqt
DOCKED: USER    NEWDPF about 0.016000 0.633000 0.013000
DOCKED: USER    NEWDPF tran0 37.417713 14.167291 122.456556
DOCKED: USER    NEWDPF quaternion0 0.451992 0.243571 0.282273 -0.810369
DOCKED: USER    NEWDPF axisangle0 0.771423 0.415707 0.481761 -71.735983
DOCKED: USER    NEWDPF quat0 0.771423 0.415707 0.481761 -71.735983
DOCKED: USER    NEWDPF dihe0 -176.56 16.90 -116.56 -115.93 -76.68 -107.57 -17.21 
DOCKED: USER  keepresnum = 1 
DOCKED: USER  
DOCKED: REMARK  Name = 
DOCKED: REMARK  7 active torsions:
DOCKED: REMARK  status: ('A' for Active; 'I' for Inactive)
DOCKED: REMARK    1  A    between atoms: C_3  and  C_4
DOCKED: REMARK    2  A    between atoms: C_4  and  C_5
DOCKED: REMARK    3  A    between atoms: C_5  and  C_6
DOCKED: REMARK    4  A    between atoms: C_6  and  C_7
DOCKED: REMARK    5  A    between atoms: C_7  and  C_8
DOCKED: REMARK    6  A    between atoms: C_8  and  C_9
DOCKED: REMARK    7  A    between atoms: C_9  and  C_10
DOCKED: REMARK                            x       y       z     vdW  Elec       q    Type
DOCKED: REMARK                         _______ _______ _______ _____ _____    ______ ____
DOCKED: USER                              x       y       z     vdW  Elec       q    Type
DOCKED: USER                           _______ _______ _______ _____ _____    ______ ____
DOCKED: ROOT
DOCKED: ATOM      1  C   UNL     1      38.564  13.285 120.788 -0.36 -0.00    +0.000 C 
DOCKED: ENDROOT
DOCKED: BRANCH   1   2
DOCKED: ATOM      2  C   UNL     1      38.100  14.749 120.759 -0.31 -0.00    +0.000 C 
DOCKED: BRANCH   2   3
DOCKED: ATOM      3  C   UNL     1      38.448  15.461 122.070 -0.32 -0.00    +0.000 C 
DOCKED: BRANCH   3   6
DOCKED: ATOM      4  O   UNL     1      41.965  14.601 123.162 -0.99 +0.00    +0.000 OA
DOCKED: ATOM      5  N   UNL     1      40.625  14.526 122.985 -0.44 -0.00    +0.000 N 
DOCKED: ATOM      6  C   UNL     1      39.934  15.537 122.247 -0.37 -0.00    +0.000 C 
DOCKED: ATOM      7  O   UNL     1      40.570  16.518 121.777 -0.22 -0.00    +0.000 OA
DOCKED: ATOM      8  H   UNL     1      40.123  13.770 123.365 -0.05 -0.00    +0.000 HD
DOCKED: ENDBRANCH   3   6
DOCKED: ENDBRANCH   2   3
DOCKED: ENDBRANCH   1   2
DOCKED: BRANCH   1   9
DOCKED: ATOM      9  C   UNL     1      37.395  12.285 120.843 -0.53 -0.00    +0.000 C 
DOCKED: BRANCH   9  10
DOCKED: ATOM     10  C   UNL     1      36.753  12.110 122.230 -0.60 -0.00    +0.000 C 
DOCKED: BRANCH  10  11
DOCKED: ATOM     11  C   UNL     1      35.782  10.923 122.294 -0.61 -0.00    +0.000 C 
DOCKED: BRANCH  11  12
DOCKED: ATOM     12  C   UNL     1      36.536   9.628 122.252 -0.69 -0.00    +0.000 C 
DOCKED: ATOM     13  N   UNL     1      36.747   8.878 123.450 -0.58 -0.00    +0.000 N 
DOCKED: ATOM     14  O   UNL     1      37.441   7.716 123.419 -2.57 -0.00    +0.000 OA
DOCKED: ATOM     15  O   UNL     1      37.019   9.221 121.162 -2.72 -0.00    +0.000 OA
DOCKED: ATOM     16  H   UNL     1      36.385   9.207 124.303 -0.29 -0.00    +0.000 HD
DOCKED: ENDBRANCH  11  12
DOCKED: ENDBRANCH  10  11
DOCKED: ENDBRANCH   9  10
DOCKED: ENDBRANCH   1   9
DOCKED: TORSDOF 7
DOCKED: TER
DOCKED: ENDMDL
________________________________________________________________________________


	BEGINNING GENETIC ALGORITHM DOCKING 45 of 100
Run: 45 Seed: 849374657 215358865 [ Run 45 of 100 GA/GALS ]
Beginning LAMARCKIAN GENETIC ALGORITHM (LGA), with a maximum of 2500000 energy evaluations.

Final-Value: -12.744


	FINAL GENETIC ALGORITHM DOCKED STATE
	_______________________________________________


Detailed state:  trans 38.474 15.331 120.733 quatxyzw -0.399610 -0.699949 0.271672 -0.525906 center 0.016 0.633 0.013 ntor 7 -84.6063 -17.6197 19.1129 -55.2890 154.2641 -179.7488 -178.3920
State:	 38.474  15.331 120.733  -0.470 -0.823  0.319 -116.541    -84.61  -17.62   19.11  -55.29  154.26 -179.75 -178.39

DOCKED: MODEL       45
DOCKED: USER    Run = 45
DOCKED: USER    DPF = ligand_dock.biased.dpf
DOCKED: USER  
DOCKED: USER    Estimated Free Energy of Binding    =  -10.20 kcal/mol  [=(1)+(2)+(3)-(4)]
DOCKED: USER    Estimated Inhibition Constant, Ki   =   33.47 nM (nanomolar)  [Temperature = 298.15 K]
DOCKED: USER    
DOCKED: USER    (1) Final Intermolecular Energy     =  -12.29 kcal/mol
DOCKED: USER        vdW + Hbond + desolv Energy     =  -12.29 kcal/mol
DOCKED: USER        Electrostatic Energy            =   +0.00 kcal/mol
DOCKED: USER    (2) Final Total Internal Energy     =   -0.46 kcal/mol
DOCKED: USER    (3) Torsional Free Energy           =   +2.09 kcal/mol
DOCKED: USER    (4) Unbound System's Energy  [=(2)] =   -0.46 kcal/mol
DOCKED: USER    
DOCKED: USER    
DOCKED: USER    NEWDPF move ligand.pdbqt
DOCKED: USER    NEWDPF about 0.016000 0.633000 0.013000
DOCKED: USER    NEWDPF tran0 38.473524 15.331142 120.733068
DOCKED: USER    NEWDPF quaternion0 -0.399610 -0.699949 0.271672 -0.525906
DOCKED: USER    NEWDPF axisangle0 -0.469829 -0.822944 0.319411 -116.541497
DOCKED: USER    NEWDPF quat0 -0.469829 -0.822944 0.319411 -116.541497
DOCKED: USER    NEWDPF dihe0 -84.61 -17.62 19.11 -55.29 154.26 -179.75 -178.39 
DOCKED: USER  keepresnum = 1 
DOCKED: USER  
DOCKED: REMARK  Name = 
DOCKED: REMARK  7 active torsions:
DOCKED: REMARK  status: ('A' for Active; 'I' for Inactive)
DOCKED: REMARK    1  A    between atoms: C_3  and  C_4
DOCKED: REMARK    2  A    between atoms: C_4  and  C_5
DOCKED: REMARK    3  A    between atoms: C_5  and  C_6
DOCKED: REMARK    4  A    between atoms: C_6  and  C_7
DOCKED: REMARK    5  A    between atoms: C_7  and  C_8
DOCKED: REMARK    6  A    between atoms: C_8  and  C_9
DOCKED: REMARK    7  A    between atoms: C_9  and  C_10
DOCKED: REMARK                            x       y       z     vdW  Elec       q    Type
DOCKED: REMARK                         _______ _______ _______ _____ _____    ______ ____
DOCKED: USER                              x       y       z     vdW  Elec       q    Type
DOCKED: USER                           _______ _______ _______ _____ _____    ______ ____
DOCKED: ROOT
DOCKED: ATOM      1  C   UNL     1      37.380  14.620 122.515 -0.43 -0.00    +0.000 C 
DOCKED: ENDROOT
DOCKED: BRANCH   1   2
DOCKED: ATOM      2  C   UNL     1      38.623  15.513 122.639 -0.35 -0.00    +0.000 C 
DOCKED: BRANCH   2   3
DOCKED: ATOM      3  C   UNL     1      39.906  14.690 122.494 -0.38 -0.00    +0.000 C 
DOCKED: BRANCH   3   6
DOCKED: ATOM      4  O   UNL     1      41.945  17.405 124.159 -0.73 -0.00    +0.000 OA
DOCKED: ATOM      5  N   UNL     1      40.892  16.729 123.644 -0.31 -0.00    +0.000 N 
DOCKED: ATOM      6  C   UNL     1      41.071  15.427 123.081 -0.38 -0.00    +0.000 C 
DOCKED: ATOM      7  O   UNL     1      42.221  14.912 123.041 -1.01 +0.00    +0.000 OA
DOCKED: ATOM      8  H   UNL     1      39.996  17.136 123.657 -0.01 -0.00    +0.000 HD
DOCKED: ENDBRANCH   3   6
DOCKED: ENDBRANCH   2   3
DOCKED: ENDBRANCH   1   2
DOCKED: BRANCH   1   9
DOCKED: ATOM      9  C   UNL     1      37.678  13.264 121.848 -0.48 -0.00    +0.000 C 
DOCKED: BRANCH   9  10
DOCKED: ATOM     10  C   UNL     1      37.366  12.030 122.713 -0.51 -0.00    +0.000 C 
DOCKED: BRANCH  10  11
DOCKED: ATOM     11  C   UNL     1      36.302  11.117 122.090 -0.63 -0.00    +0.000 C 
DOCKED: BRANCH  11  12
DOCKED: ATOM     12  C   UNL     1      36.755   9.688 122.125 -0.67 -0.00    +0.000 C 
DOCKED: ATOM     13  N   UNL     1      36.881   9.003 123.373 -0.60 -0.00    +0.000 N 
DOCKED: ATOM     14  O   UNL     1      37.306   7.718 123.411 -2.61 -0.00    +0.000 OA
DOCKED: ATOM     15  O   UNL     1      37.063   9.103 121.052 -2.72 -0.00    +0.000 OA
DOCKED: ATOM     16  H   UNL     1      36.659   9.469 124.211 -0.47 -0.00    +0.000 HD
DOCKED: ENDBRANCH  11  12
DOCKED: ENDBRANCH  10  11
DOCKED: ENDBRANCH   9  10
DOCKED: ENDBRANCH   1   9
DOCKED: TORSDOF 7
DOCKED: TER
DOCKED: ENDMDL
________________________________________________________________________________


	BEGINNING GENETIC ALGORITHM DOCKING 46 of 100
Run: 46 Seed: 1003983458 1562598081 [ Run 46 of 100 GA/GALS ]
Beginning LAMARCKIAN GENETIC ALGORITHM (LGA), with a maximum of 2500000 energy evaluations.

Final-Value: -12.371


	FINAL GENETIC ALGORITHM DOCKED STATE
	_______________________________________________


Detailed state:  trans 35.720 12.949 121.703 quatxyzw -0.528088 0.590004 0.419340 -0.444041 center 0.016 0.633 0.013 ntor 7 70.5196 7.6473 52.2580 160.2595 177.7609 164.2749 -115.1996
State:	 35.720  12.949 121.703  -0.589  0.658  0.468 -127.276     70.52    7.65   52.26  160.26  177.76  164.27 -115.20

DOCKED: MODEL       46
DOCKED: USER    Run = 46
DOCKED: USER    DPF = ligand_dock.biased.dpf
DOCKED: USER  
DOCKED: USER    Estimated Free Energy of Binding    =   -9.45 kcal/mol  [=(1)+(2)+(3)-(4)]
DOCKED: USER    Estimated Inhibition Constant, Ki   =  117.50 nM (nanomolar)  [Temperature = 298.15 K]
DOCKED: USER    
DOCKED: USER    (1) Final Intermolecular Energy     =  -11.54 kcal/mol
DOCKED: USER        vdW + Hbond + desolv Energy     =  -11.54 kcal/mol
DOCKED: USER        Electrostatic Energy            =   +0.00 kcal/mol
DOCKED: USER    (2) Final Total Internal Energy     =   -0.83 kcal/mol
DOCKED: USER    (3) Torsional Free Energy           =   +2.09 kcal/mol
DOCKED: USER    (4) Unbound System's Energy  [=(2)] =   -0.83 kcal/mol
DOCKED: USER    
DOCKED: USER    
DOCKED: USER    NEWDPF move ligand.pdbqt
DOCKED: USER    NEWDPF about 0.016000 0.633000 0.013000
DOCKED: USER    NEWDPF tran0 35.720477 12.949371 121.703321
DOCKED: USER    NEWDPF quaternion0 -0.528088 0.590004 0.419340 -0.444041
DOCKED: USER    NEWDPF axisangle0 -0.589379 0.658482 0.468011 -127.276012
DOCKED: USER    NEWDPF quat0 -0.589379 0.658482 0.468011 -127.276012
DOCKED: USER    NEWDPF dihe0 70.52 7.65 52.26 160.26 177.76 164.27 -115.20 
DOCKED: USER  keepresnum = 1 
DOCKED: USER  
DOCKED: REMARK  Name = 
DOCKED: REMARK  7 active torsions:
DOCKED: REMARK  status: ('A' for Active; 'I' for Inactive)
DOCKED: REMARK    1  A    between atoms: C_3  and  C_4
DOCKED: REMARK    2  A    between atoms: C_4  and  C_5
DOCKED: REMARK    3  A    between atoms: C_5  and  C_6
DOCKED: REMARK    4  A    between atoms: C_6  and  C_7
DOCKED: REMARK    5  A    between atoms: C_7  and  C_8
DOCKED: REMARK    6  A    between atoms: C_8  and  C_9
DOCKED: REMARK    7  A    between atoms: C_9  and  C_10
DOCKED: REMARK                            x       y       z     vdW  Elec       q    Type
DOCKED: REMARK                         _______ _______ _______ _____ _____    ______ ____
DOCKED: USER                              x       y       z     vdW  Elec       q    Type
DOCKED: USER                           _______ _______ _______ _____ _____    ______ ____
DOCKED: ROOT
DOCKED: ATOM      1  C   UNL     1      37.833  13.106 121.079 -0.47 -0.00    +0.000 C 
DOCKED: ENDROOT
DOCKED: BRANCH   1   2
DOCKED: ATOM      2  C   UNL     1      36.991  11.862 120.760 -0.45 -0.00    +0.000 C 
DOCKED: BRANCH   2   3
DOCKED: ATOM      3  C   UNL     1      36.422  11.242 122.039 -0.62 -0.00    +0.000 C 
DOCKED: BRANCH   3   6
DOCKED: ATOM      4  O   UNL     1      37.188   7.821 123.457 -2.63 -0.00    +0.000 OA
DOCKED: ATOM      5  N   UNL     1      36.859   9.132 123.383 -0.57 -0.00    +0.000 N 
DOCKED: ATOM      6  C   UNL     1      36.768   9.786 122.116 -0.66 -0.00    +0.000 C 
DOCKED: ATOM      7  O   UNL     1      37.018   9.147 121.059 -2.71 -0.00    +0.000 OA
DOCKED: ATOM      8  H   UNL     1      36.680   9.638 124.208 -0.48 -0.00    +0.000 HD
DOCKED: ENDBRANCH   3   6
DOCKED: ENDBRANCH   2   3
DOCKED: ENDBRANCH   1   2
DOCKED: BRANCH   1   9
DOCKED: ATOM      9  C   UNL     1      38.001  13.346 122.591 -0.44 -0.00    +0.000 C 
DOCKED: BRANCH   9  10
DOCKED: ATOM     10  C   UNL     1      38.768  14.627 122.965 -0.34 -0.00    +0.000 C 
DOCKED: BRANCH  10  11
DOCKED: ATOM     11  C   UNL     1      37.845  15.760 123.434 -0.30 -0.00    +0.000 C 
DOCKED: BRANCH  11  12
DOCKED: ATOM     12  C   UNL     1      36.415  15.430 123.128 -0.42 -0.00    +0.000 C 
DOCKED: ATOM     13  N   UNL     1      35.600  14.784 124.107 -0.52 -0.00    +0.000 N 
DOCKED: ATOM     14  O   UNL     1      34.313  14.469 123.829 -0.63 -0.00    +0.000 OA
DOCKED: ATOM     15  O   UNL     1      35.944  15.689 121.988 -0.25 -0.00    +0.000 OA
DOCKED: ATOM     16  H   UNL     1      35.976  14.566 124.990 -0.05 -0.00    +0.000 HD
DOCKED: ENDBRANCH  11  12
DOCKED: ENDBRANCH  10  11
DOCKED: ENDBRANCH   9  10
DOCKED: ENDBRANCH   1   9
DOCKED: TORSDOF 7
DOCKED: TER
DOCKED: ENDMDL
________________________________________________________________________________


	BEGINNING GENETIC ALGORITHM DOCKING 47 of 100
Run: 47 Seed: 1066696282 53347897 [ Run 47 of 100 GA/GALS ]
Beginning LAMARCKIAN GENETIC ALGORITHM (LGA), with a maximum of 2500000 energy evaluations.

Final-Value: -11.925


	FINAL GENETIC ALGORITHM DOCKED STATE
	_______________________________________________


Detailed state:  trans 38.931 12.726 121.434 quatxyzw -0.099729 -0.533264 -0.729282 -0.416932 center 0.016 0.633 0.013 ntor 7 42.2526 165.1340 -13.1866 -172.1680 -6.4881 -70.2156 -124.3891
State:	 38.931  12.726 121.434  -0.110 -0.587 -0.802 -130.718     42.25  165.13  -13.19 -172.17   -6.49  -70.22 -124.39

DOCKED: MODEL       47
DOCKED: USER    Run = 47
DOCKED: USER    DPF = ligand_dock.biased.dpf
DOCKED: USER  
DOCKED: USER    Estimated Free Energy of Binding    =   -9.31 kcal/mol  [=(1)+(2)+(3)-(4)]
DOCKED: USER    Estimated Inhibition Constant, Ki   =  150.74 nM (nanomolar)  [Temperature = 298.15 K]
DOCKED: USER    
DOCKED: USER    (1) Final Intermolecular Energy     =  -11.39 kcal/mol
DOCKED: USER        vdW + Hbond + desolv Energy     =  -11.39 kcal/mol
DOCKED: USER        Electrostatic Energy            =   +0.00 kcal/mol
DOCKED: USER    (2) Final Total Internal Energy     =   -0.53 kcal/mol
DOCKED: USER    (3) Torsional Free Energy           =   +2.09 kcal/mol
DOCKED: USER    (4) Unbound System's Energy  [=(2)] =   -0.53 kcal/mol
DOCKED: USER    
DOCKED: USER    
DOCKED: USER    NEWDPF move ligand.pdbqt
DOCKED: USER    NEWDPF about 0.016000 0.633000 0.013000
DOCKED: USER    NEWDPF tran0 38.930766 12.725916 121.434369
DOCKED: USER    NEWDPF quaternion0 -0.099729 -0.533264 -0.729282 -0.416932
DOCKED: USER    NEWDPF axisangle0 -0.109720 -0.586689 -0.802345 -130.717912
DOCKED: USER    NEWDPF quat0 -0.109720 -0.586689 -0.802345 -130.717912
DOCKED: USER    NEWDPF dihe0 42.25 165.13 -13.19 -172.17 -6.49 -70.22 -124.39 
DOCKED: USER  keepresnum = 1 
DOCKED: USER  
DOCKED: REMARK  Name = 
DOCKED: REMARK  7 active torsions:
DOCKED: REMARK  status: ('A' for Active; 'I' for Inactive)
DOCKED: REMARK    1  A    between atoms: C_3  and  C_4
DOCKED: REMARK    2  A    between atoms: C_4  and  C_5
DOCKED: REMARK    3  A    between atoms: C_5  and  C_6
DOCKED: REMARK    4  A    between atoms: C_6  and  C_7
DOCKED: REMARK    5  A    between atoms: C_7  and  C_8
DOCKED: REMARK    6  A    between atoms: C_8  and  C_9
DOCKED: REMARK    7  A    between atoms: C_9  and  C_10
DOCKED: REMARK                            x       y       z     vdW  Elec       q    Type
DOCKED: REMARK                         _______ _______ _______ _____ _____    ______ ____
DOCKED: USER                              x       y       z     vdW  Elec       q    Type
DOCKED: USER                           _______ _______ _______ _____ _____    ______ ____
DOCKED: ROOT
DOCKED: ATOM      1  C   UNL     1      36.990  13.084 120.443 -0.43 -0.00    +0.000 C 
DOCKED: ENDROOT
DOCKED: BRANCH   1   2
DOCKED: ATOM      2  C   UNL     1      37.439  11.671 120.844 -0.49 -0.00    +0.000 C 
DOCKED: BRANCH   2   3
DOCKED: ATOM      3  C   UNL     1      36.469  11.053 121.855 -0.56 -0.00    +0.000 C 
DOCKED: BRANCH   3   6
DOCKED: ATOM      4  O   UNL     1      37.241   7.714 123.453 -2.65 -0.00    +0.000 OA
DOCKED: ATOM      5  N   UNL     1      36.980   9.034 123.308 -0.62 -0.00    +0.000 N 
DOCKED: ATOM      6  C   UNL     1      36.738   9.588 122.013 -0.67 -0.00    +0.000 C 
DOCKED: ATOM      7  O   UNL     1      36.790   8.848 120.994 -2.64 -0.00    +0.000 OA
DOCKED: ATOM      8  H   UNL     1      36.957   9.617 124.100 -0.53 -0.00    +0.000 HD
DOCKED: ENDBRANCH   3   6
DOCKED: ENDBRANCH   2   3
DOCKED: ENDBRANCH   1   2
DOCKED: BRANCH   1   9
DOCKED: ATOM      9  C   UNL     1      37.923  13.741 119.409 -0.30 -0.00    +0.000 C 
DOCKED: BRANCH   9  10
DOCKED: ATOM     10  C   UNL     1      37.443  15.100 118.870 -0.24 -0.00    +0.000 C 
DOCKED: BRANCH  10  11
DOCKED: ATOM     11  C   UNL     1      37.505  15.193 117.340 -0.21 -0.00    +0.000 C 
DOCKED: BRANCH  11  12
DOCKED: ATOM     12  C   UNL     1      37.662  13.828 116.739 -0.39 -0.00    +0.000 C 
DOCKED: ATOM     13  N   UNL     1      38.896  13.448 116.128 -0.40 -0.00    +0.000 N 
DOCKED: ATOM     14  O   UNL     1      39.036  12.222 115.570 -0.74 -0.00    +0.000 OA
DOCKED: ATOM     15  O   UNL     1      36.687  13.030 116.740 -0.43 -0.00    +0.000 OA
DOCKED: ATOM     16  H   UNL     1      39.649  14.081 116.112 -0.10 -0.00    +0.000 HD
DOCKED: ENDBRANCH  11  12
DOCKED: ENDBRANCH  10  11
DOCKED: ENDBRANCH   9  10
DOCKED: ENDBRANCH   1   9
DOCKED: TORSDOF 7
DOCKED: TER
DOCKED: ENDMDL
________________________________________________________________________________


	BEGINNING GENETIC ALGORITHM DOCKING 48 of 100
Run: 48 Seed: 862170169 2041747932 [ Run 48 of 100 GA/GALS ]
Beginning LAMARCKIAN GENETIC ALGORITHM (LGA), with a maximum of 2500000 energy evaluations.

Final-Value: -12.603


	FINAL GENETIC ALGORITHM DOCKED STATE
	_______________________________________________


Detailed state:  trans 38.378 11.620 120.052 quatxyzw 0.505958 -0.133506 0.799703 0.294376 center 0.016 0.633 0.013 ntor 7 56.8248 141.2333 58.0551 97.3646 5.0221 177.7591 -159.4688
State:	 38.378  11.620 120.052   0.529 -0.140  0.837 145.760     56.82  141.23   58.06   97.36    5.02  177.76 -159.47

DOCKED: MODEL       48
DOCKED: USER    Run = 48
DOCKED: USER    DPF = ligand_dock.biased.dpf
DOCKED: USER  
DOCKED: USER    Estimated Free Energy of Binding    =  -10.07 kcal/mol  [=(1)+(2)+(3)-(4)]
DOCKED: USER    Estimated Inhibition Constant, Ki   =   41.60 nM (nanomolar)  [Temperature = 298.15 K]
DOCKED: USER    
DOCKED: USER    (1) Final Intermolecular Energy     =  -12.16 kcal/mol
DOCKED: USER        vdW + Hbond + desolv Energy     =  -12.16 kcal/mol
DOCKED: USER        Electrostatic Energy            =   +0.00 kcal/mol
DOCKED: USER    (2) Final Total Internal Energy     =   -0.45 kcal/mol
DOCKED: USER    (3) Torsional Free Energy           =   +2.09 kcal/mol
DOCKED: USER    (4) Unbound System's Energy  [=(2)] =   -0.45 kcal/mol
DOCKED: USER    
DOCKED: USER    
DOCKED: USER    NEWDPF move ligand.pdbqt
DOCKED: USER    NEWDPF about 0.016000 0.633000 0.013000
DOCKED: USER    NEWDPF tran0 38.378230 11.620216 120.051958
DOCKED: USER    NEWDPF quaternion0 0.505958 -0.133506 0.799703 0.294376
DOCKED: USER    NEWDPF axisangle0 0.529416 -0.139696 0.836781 145.759773
DOCKED: USER    NEWDPF quat0 0.529416 -0.139696 0.836781 145.759773
DOCKED: USER    NEWDPF dihe0 56.82 141.23 58.06 97.36 5.02 177.76 -159.47 
DOCKED: USER  keepresnum = 1 
DOCKED: USER  
DOCKED: REMARK  Name = 
DOCKED: REMARK  7 active torsions:
DOCKED: REMARK  status: ('A' for Active; 'I' for Inactive)
DOCKED: REMARK    1  A    between atoms: C_3  and  C_4
DOCKED: REMARK    2  A    between atoms: C_4  and  C_5
DOCKED: REMARK    3  A    between atoms: C_5  and  C_6
DOCKED: REMARK    4  A    between atoms: C_6  and  C_7
DOCKED: REMARK    5  A    between atoms: C_7  and  C_8
DOCKED: REMARK    6  A    between atoms: C_8  and  C_9
DOCKED: REMARK    7  A    between atoms: C_9  and  C_10
DOCKED: REMARK                            x       y       z     vdW  Elec       q    Type
DOCKED: REMARK                         _______ _______ _______ _____ _____    ______ ____
DOCKED: USER                              x       y       z     vdW  Elec       q    Type
DOCKED: USER                           _______ _______ _______ _____ _____    ______ ____
DOCKED: ROOT
DOCKED: ATOM      1  C   UNL     1      37.953  13.045 121.684 -0.41 -0.00    +0.000 C 
DOCKED: ENDROOT
DOCKED: BRANCH   1   2
DOCKED: ATOM      2  C   UNL     1      36.933  11.978 121.264 -0.54 -0.00    +0.000 C 
DOCKED: BRANCH   2   3
DOCKED: ATOM      3  C   UNL     1      36.415  11.204 122.481 -0.67 -0.00    +0.000 C 
DOCKED: BRANCH   3   6
DOCKED: ATOM      4  O   UNL     1      37.410   7.658 123.334 -2.48 -0.00    +0.000 OA
DOCKED: ATOM      5  N   UNL     1      37.131   8.975 123.465 -0.55 -0.00    +0.000 N 
DOCKED: ATOM      6  C   UNL     1      36.705   9.742 122.336 -0.70 -0.00    +0.000 C 
DOCKED: ATOM      7  O   UNL     1      36.611   9.195 121.205 -2.53 -0.00    +0.000 OA
DOCKED: ATOM      8  H   UNL     1      37.220   9.409 124.344 -0.57 -0.00    +0.000 HD
DOCKED: ENDBRANCH   3   6
DOCKED: ENDBRANCH   2   3
DOCKED: ENDBRANCH   1   2
DOCKED: BRANCH   1   9
DOCKED: ATOM      9  C   UNL     1      38.275  14.045 120.558 -0.36 -0.00    +0.000 C 
DOCKED: BRANCH   9  10
DOCKED: ATOM     10  C   UNL     1      38.399  15.512 121.007 -0.25 -0.00    +0.000 C 
DOCKED: BRANCH  10  11
DOCKED: ATOM     11  C   UNL     1      39.808  16.084 120.797 -0.20 -0.00    +0.000 C 
DOCKED: BRANCH  11  12
DOCKED: ATOM     12  C   UNL     1      40.748  15.552 121.837 -0.37 -0.00    +0.000 C 
DOCKED: ATOM     13  N   UNL     1      41.632  16.436 122.529 -0.33 -0.00    +0.000 N 
DOCKED: ATOM     14  O   UNL     1      42.494  15.958 123.456 -1.13 +0.00    +0.000 OA
DOCKED: ATOM     15  O   UNL     1      40.786  14.314 122.070 -1.07 +0.00    +0.000 OA
DOCKED: ATOM     16  H   UNL     1      41.614  17.400 122.330 +0.00 -0.00    +0.000 HD
DOCKED: ENDBRANCH  11  12
DOCKED: ENDBRANCH  10  11
DOCKED: ENDBRANCH   9  10
DOCKED: ENDBRANCH   1   9
DOCKED: TORSDOF 7
DOCKED: TER
DOCKED: ENDMDL
________________________________________________________________________________


	BEGINNING GENETIC ALGORITHM DOCKING 49 of 100
Run: 49 Seed: 180668762 677546521 [ Run 49 of 100 GA/GALS ]
Beginning LAMARCKIAN GENETIC ALGORITHM (LGA), with a maximum of 2500000 energy evaluations.

Final-Value: -11.896


	FINAL GENETIC ALGORITHM DOCKED STATE
	_______________________________________________


Detailed state:  trans 38.228 12.641 120.757 quatxyzw -0.455856 0.187777 -0.685884 -0.535255 center 0.016 0.633 0.013 ntor 7 51.7756 -145.5292 47.7797 157.5157 33.1176 -180.0000 -149.7036
State:	 38.228  12.641 120.757  -0.540  0.222 -0.812 -115.278     51.78 -145.53   47.78  157.52   33.12 -180.00 -149.70

DOCKED: MODEL       49
DOCKED: USER    Run = 49
DOCKED: USER    DPF = ligand_dock.biased.dpf
DOCKED: USER  
DOCKED: USER    Estimated Free Energy of Binding    =   -9.31 kcal/mol  [=(1)+(2)+(3)-(4)]
DOCKED: USER    Estimated Inhibition Constant, Ki   =  150.88 nM (nanomolar)  [Temperature = 298.15 K]
DOCKED: USER    
DOCKED: USER    (1) Final Intermolecular Energy     =  -11.39 kcal/mol
DOCKED: USER        vdW + Hbond + desolv Energy     =  -11.39 kcal/mol
DOCKED: USER        Electrostatic Energy            =   +0.00 kcal/mol
DOCKED: USER    (2) Final Total Internal Energy     =   -0.50 kcal/mol
DOCKED: USER    (3) Torsional Free Energy           =   +2.09 kcal/mol
DOCKED: USER    (4) Unbound System's Energy  [=(2)] =   -0.50 kcal/mol
DOCKED: USER    
DOCKED: USER    
DOCKED: USER    NEWDPF move ligand.pdbqt
DOCKED: USER    NEWDPF about 0.016000 0.633000 0.013000
DOCKED: USER    NEWDPF tran0 38.228246 12.640868 120.757420
DOCKED: USER    NEWDPF quaternion0 -0.455856 0.187777 -0.685884 -0.535255
DOCKED: USER    NEWDPF axisangle0 -0.539673 0.222303 -0.811994 -115.277535
DOCKED: USER    NEWDPF quat0 -0.539673 0.222303 -0.811994 -115.277535
DOCKED: USER    NEWDPF dihe0 51.78 -145.53 47.78 157.52 33.12 -180.00 -149.70 
DOCKED: USER  keepresnum = 1 
DOCKED: USER  
DOCKED: REMARK  Name = 
DOCKED: REMARK  7 active torsions:
DOCKED: REMARK  status: ('A' for Active; 'I' for Inactive)
DOCKED: REMARK    1  A    between atoms: C_3  and  C_4
DOCKED: REMARK    2  A    between atoms: C_4  and  C_5
DOCKED: REMARK    3  A    between atoms: C_5  and  C_6
DOCKED: REMARK    4  A    between atoms: C_6  and  C_7
DOCKED: REMARK    5  A    between atoms: C_7  and  C_8
DOCKED: REMARK    6  A    between atoms: C_8  and  C_9
DOCKED: REMARK    7  A    between atoms: C_9  and  C_10
DOCKED: REMARK                            x       y       z     vdW  Elec       q    Type
DOCKED: REMARK                         _______ _______ _______ _____ _____    ______ ____
DOCKED: USER                              x       y       z     vdW  Elec       q    Type
DOCKED: USER                           _______ _______ _______ _____ _____    ______ ____
DOCKED: ROOT
DOCKED: ATOM      1  C   UNL     1      37.435  13.083 122.771 -0.56 -0.00    +0.000 C 
DOCKED: ENDROOT
DOCKED: BRANCH   1   2
DOCKED: ATOM      2  C   UNL     1      36.851  11.956 121.907 -0.58 -0.00    +0.000 C 
DOCKED: BRANCH   2   3
DOCKED: ATOM      3  C   UNL     1      36.118  10.926 122.772 -0.69 -0.00    +0.000 C 
DOCKED: BRANCH   3   6
DOCKED: ATOM      4  O   UNL     1      37.266   7.341 123.130 -2.22 -0.00    +0.000 OA
DOCKED: ATOM      5  N   UNL     1      36.856   8.591 123.446 -0.65 -0.00    +0.000 N 
DOCKED: ATOM      6  C   UNL     1      36.554   9.537 122.418 -0.71 -0.00    +0.000 C 
DOCKED: ATOM      7  O   UNL     1      36.691   9.215 121.207 -2.63 -0.00    +0.000 OA
DOCKED: ATOM      8  H   UNL     1      36.764   8.851 124.391 -0.43 -0.00    +0.000 HD
DOCKED: ENDBRANCH   3   6
DOCKED: ENDBRANCH   2   3
DOCKED: ENDBRANCH   1   2
DOCKED: BRANCH   1   9
DOCKED: ATOM      9  C   UNL     1      37.278  14.474 122.130 -0.41 -0.00    +0.000 C 
DOCKED: BRANCH   9  10
DOCKED: ATOM     10  C   UNL     1      37.120  15.636 123.127 -0.37 -0.00    +0.000 C 
DOCKED: BRANCH  10  11
DOCKED: ATOM     11  C   UNL     1      38.248  16.671 123.022 -0.26 -0.00    +0.000 C 
DOCKED: BRANCH  11  12
DOCKED: ATOM     12  C   UNL     1      39.398  16.114 122.237 -0.28 -0.00    +0.000 C 
DOCKED: ATOM     13  N   UNL     1      40.076  14.939 122.690 -0.43 -0.00    +0.000 N 
DOCKED: ATOM     14  O   UNL     1      41.125  14.442 121.993 -1.03 -0.00    +0.000 OA
DOCKED: ATOM     15  O   UNL     1      39.792  16.707 121.198 -0.15 -0.00    +0.000 OA
DOCKED: ATOM     16  H   UNL     1      39.778  14.489 123.512 -0.01 -0.00    +0.000 HD
DOCKED: ENDBRANCH  11  12
DOCKED: ENDBRANCH  10  11
DOCKED: ENDBRANCH   9  10
DOCKED: ENDBRANCH   1   9
DOCKED: TORSDOF 7
DOCKED: TER
DOCKED: ENDMDL
________________________________________________________________________________


	BEGINNING GENETIC ALGORITHM DOCKING 50 of 100
Run: 50 Seed: 320025651 133879675 [ Run 50 of 100 GA/GALS ]
Beginning LAMARCKIAN GENETIC ALGORITHM (LGA), with a maximum of 2500000 energy evaluations.

Final-Value: -12.459


	FINAL GENETIC ALGORITHM DOCKED STATE
	_______________________________________________


Detailed state:  trans 38.535 11.708 123.552 quatxyzw 0.118853 -0.095412 -0.917865 -0.366463 center 0.016 0.633 0.013 ntor 7 16.5331 -160.5957 43.5234 173.8074 -6.4355 -67.1140 169.7989
State:	 38.535  11.708 123.552   0.128 -0.103 -0.986 -137.005     16.53 -160.60   43.52  173.81   -6.44  -67.11  169.80

DOCKED: MODEL       50
DOCKED: USER    Run = 50
DOCKED: USER    DPF = ligand_dock.biased.dpf
DOCKED: USER  
DOCKED: USER    Estimated Free Energy of Binding    =   -9.77 kcal/mol  [=(1)+(2)+(3)-(4)]
DOCKED: USER    Estimated Inhibition Constant, Ki   =   69.25 nM (nanomolar)  [Temperature = 298.15 K]
DOCKED: USER    
DOCKED: USER    (1) Final Intermolecular Energy     =  -11.86 kcal/mol
DOCKED: USER        vdW + Hbond + desolv Energy     =  -11.86 kcal/mol
DOCKED: USER        Electrostatic Energy            =   +0.00 kcal/mol
DOCKED: USER    (2) Final Total Internal Energy     =   -0.60 kcal/mol
DOCKED: USER    (3) Torsional Free Energy           =   +2.09 kcal/mol
DOCKED: USER    (4) Unbound System's Energy  [=(2)] =   -0.60 kcal/mol
DOCKED: USER    
DOCKED: USER    
DOCKED: USER    NEWDPF move ligand.pdbqt
DOCKED: USER    NEWDPF about 0.016000 0.633000 0.013000
DOCKED: USER    NEWDPF tran0 38.535447 11.707765 123.552254
DOCKED: USER    NEWDPF quaternion0 0.118853 -0.095412 -0.917865 -0.366463
DOCKED: USER    NEWDPF axisangle0 0.127740 -0.102545 -0.986492 -137.004763
DOCKED: USER    NEWDPF quat0 0.127740 -0.102545 -0.986492 -137.004763
DOCKED: USER    NEWDPF dihe0 16.53 -160.60 43.52 173.81 -6.44 -67.11 169.80 
DOCKED: USER  keepresnum = 1 
DOCKED: USER  
DOCKED: REMARK  Name = 
DOCKED: REMARK  7 active torsions:
DOCKED: REMARK  status: ('A' for Active; 'I' for Inactive)
DOCKED: REMARK    1  A    between atoms: C_3  and  C_4
DOCKED: REMARK    2  A    between atoms: C_4  and  C_5
DOCKED: REMARK    3  A    between atoms: C_5  and  C_6
DOCKED: REMARK    4  A    between atoms: C_6  and  C_7
DOCKED: REMARK    5  A    between atoms: C_7  and  C_8
DOCKED: REMARK    6  A    between atoms: C_8  and  C_9
DOCKED: REMARK    7  A    between atoms: C_9  and  C_10
DOCKED: REMARK                            x       y       z     vdW  Elec       q    Type
DOCKED: REMARK                         _______ _______ _______ _____ _____    ______ ____
DOCKED: USER                              x       y       z     vdW  Elec       q    Type
DOCKED: USER                           _______ _______ _______ _____ _____    ______ ____
DOCKED: ROOT
DOCKED: ATOM      1  C   UNL     1      36.703  12.929 123.390 -0.63 -0.00    +0.000 C 
DOCKED: ENDROOT
DOCKED: BRANCH   1   2
DOCKED: ATOM      2  C   UNL     1      37.046  11.854 122.349 -0.60 -0.00    +0.000 C 
DOCKED: BRANCH   2   3
DOCKED: ATOM      3  C   UNL     1      35.965  10.769 122.305 -0.65 -0.00    +0.000 C 
DOCKED: BRANCH   3   6
DOCKED: ATOM      4  O   UNL     1      37.271   7.398 123.414 -2.39 -0.00    +0.000 OA
DOCKED: ATOM      5  N   UNL     1      36.692   8.621 123.448 -0.63 -0.00    +0.000 N 
DOCKED: ATOM      6  C   UNL     1      36.590   9.408 122.259 -0.71 -0.00    +0.000 C 
DOCKED: ATOM      7  O   UNL     1      37.061   8.973 121.175 -2.70 -0.00    +0.000 OA
DOCKED: ATOM      8  H   UNL     1      36.339   8.971 124.297 -0.30 -0.00    +0.000 HD
DOCKED: ENDBRANCH   3   6
DOCKED: ENDBRANCH   2   3
DOCKED: ENDBRANCH   1   2
DOCKED: BRANCH   1   9
DOCKED: ATOM      9  C   UNL     1      37.749  14.057 123.456 -0.40 -0.00    +0.000 C 
DOCKED: BRANCH   9  10
DOCKED: ATOM     10  C   UNL     1      37.287  15.408 122.882 -0.38 -0.00    +0.000 C 
DOCKED: BRANCH  10  11
DOCKED: ATOM     11  C   UNL     1      38.272  15.992 121.860 -0.24 -0.00    +0.000 C 
DOCKED: BRANCH  11  12
DOCKED: ATOM     12  C   UNL     1      39.431  15.062 121.661 -0.35 -0.00    +0.000 C 
DOCKED: ATOM     13  N   UNL     1      40.453  14.963 122.656 -0.46 -0.00    +0.000 N 
DOCKED: ATOM     14  O   UNL     1      41.510  14.137 122.473 -1.04 +0.00    +0.000 OA
DOCKED: ATOM     15  O   UNL     1      39.523  14.397 120.596 -0.36 -0.00    +0.000 OA
DOCKED: ATOM     16  H   UNL     1      40.388  15.499 123.478 -0.02 -0.00    +0.000 HD
DOCKED: ENDBRANCH  11  12
DOCKED: ENDBRANCH  10  11
DOCKED: ENDBRANCH   9  10
DOCKED: ENDBRANCH   1   9
DOCKED: TORSDOF 7
DOCKED: TER
DOCKED: ENDMDL
________________________________________________________________________________


	BEGINNING GENETIC ALGORITHM DOCKING 51 of 100
Run: 51 Seed: 1449466924 144895404 [ Run 51 of 100 GA/GALS ]
Beginning LAMARCKIAN GENETIC ALGORITHM (LGA), with a maximum of 2500000 energy evaluations.

Final-Value: -11.788


	FINAL GENETIC ALGORITHM DOCKED STATE
	_______________________________________________


Detailed state:  trans 38.461 12.193 122.082 quatxyzw 0.129703 0.313193 0.875785 0.343639 center 0.016 0.633 0.013 ntor 7 111.8496 -46.3640 -8.6414 21.5911 -77.9692 -24.9857 -16.1908
State:	 38.461  12.193 122.082   0.138  0.334  0.933 139.803    111.85  -46.36   -8.64   21.59  -77.97  -24.99  -16.19

DOCKED: MODEL       51
DOCKED: USER    Run = 51
DOCKED: USER    DPF = ligand_dock.biased.dpf
DOCKED: USER  
DOCKED: USER    Estimated Free Energy of Binding    =   -9.22 kcal/mol  [=(1)+(2)+(3)-(4)]
DOCKED: USER    Estimated Inhibition Constant, Ki   =  173.04 nM (nanomolar)  [Temperature = 298.15 K]
DOCKED: USER    
DOCKED: USER    (1) Final Intermolecular Energy     =  -11.31 kcal/mol
DOCKED: USER        vdW + Hbond + desolv Energy     =  -11.31 kcal/mol
DOCKED: USER        Electrostatic Energy            =   +0.00 kcal/mol
DOCKED: USER    (2) Final Total Internal Energy     =   -0.48 kcal/mol
DOCKED: USER    (3) Torsional Free Energy           =   +2.09 kcal/mol
DOCKED: USER    (4) Unbound System's Energy  [=(2)] =   -0.48 kcal/mol
DOCKED: USER    
DOCKED: USER    
DOCKED: USER    NEWDPF move ligand.pdbqt
DOCKED: USER    NEWDPF about 0.016000 0.633000 0.013000
DOCKED: USER    NEWDPF tran0 38.460827 12.192785 122.081654
DOCKED: USER    NEWDPF quaternion0 0.129703 0.313193 0.875785 0.343639
DOCKED: USER    NEWDPF axisangle0 0.138114 0.333503 0.932577 139.802529
DOCKED: USER    NEWDPF quat0 0.138114 0.333503 0.932577 139.802529
DOCKED: USER    NEWDPF dihe0 111.85 -46.36 -8.64 21.59 -77.97 -24.99 -16.19 
DOCKED: USER  keepresnum = 1 
DOCKED: USER  
DOCKED: REMARK  Name = 
DOCKED: REMARK  7 active torsions:
DOCKED: REMARK  status: ('A' for Active; 'I' for Inactive)
DOCKED: REMARK    1  A    between atoms: C_3  and  C_4
DOCKED: REMARK    2  A    between atoms: C_4  and  C_5
DOCKED: REMARK    3  A    between atoms: C_5  and  C_6
DOCKED: REMARK    4  A    between atoms: C_6  and  C_7
DOCKED: REMARK    5  A    between atoms: C_7  and  C_8
DOCKED: REMARK    6  A    between atoms: C_8  and  C_9
DOCKED: REMARK    7  A    between atoms: C_9  and  C_10
DOCKED: REMARK                            x       y       z     vdW  Elec       q    Type
DOCKED: REMARK                         _______ _______ _______ _____ _____    ______ ____
DOCKED: USER                              x       y       z     vdW  Elec       q    Type
DOCKED: USER                           _______ _______ _______ _____ _____    ______ ____
DOCKED: ROOT
DOCKED: ATOM      1  C   UNL     1      36.690  13.453 121.690 -0.32 -0.00    +0.000 C 
DOCKED: ENDROOT
DOCKED: BRANCH   1   2
DOCKED: ATOM      2  C   UNL     1      36.683  11.946 121.398 -0.54 -0.00    +0.000 C 
DOCKED: BRANCH   2   3
DOCKED: ATOM      3  C   UNL     1      37.249  11.155 122.582 -0.38 -0.00    +0.000 C 
DOCKED: BRANCH   3   6
DOCKED: ATOM      4  O   UNL     1      37.066   7.440 123.263 -2.43 -0.00    +0.000 OA
DOCKED: ATOM      5  N   UNL     1      37.214   8.771 123.457 -0.59 -0.00    +0.000 N 
DOCKED: ATOM      6  C   UNL     1      37.066   9.684 122.367 -0.59 -0.00    +0.000 C 
DOCKED: ATOM      7  O   UNL     1      36.818   9.248 121.211 -2.64 -0.00    +0.000 OA
DOCKED: ATOM      8  H   UNL     1      37.424   9.114 124.355 -0.62 -0.00    +0.000 HD
DOCKED: ENDBRANCH   3   6
DOCKED: ENDBRANCH   2   3
DOCKED: ENDBRANCH   1   2
DOCKED: BRANCH   1   9
DOCKED: ATOM      9  C   UNL     1      37.733  14.222 120.857 -0.37 -0.00    +0.000 C 
DOCKED: BRANCH   9  10
DOCKED: ATOM     10  C   UNL     1      39.184  14.096 121.353 -0.32 -0.00    +0.000 C 
DOCKED: BRANCH  10  11
DOCKED: ATOM     11  C   UNL     1      39.539  15.131 122.430 -0.40 -0.00    +0.000 C 
DOCKED: BRANCH  11  12
DOCKED: ATOM     12  C   UNL     1      41.001  15.460 122.376 -0.46 -0.00    +0.000 C 
DOCKED: ATOM     13  N   UNL     1      41.667  15.579 121.117 -0.26 -0.00    +0.000 N 
DOCKED: ATOM     14  O   UNL     1      42.990  15.860 121.065 -0.32 -0.00    +0.000 OA
DOCKED: ATOM     15  O   UNL     1      41.652  15.591 123.447 -1.06 +0.00    +0.000 OA
DOCKED: ATOM     16  H   UNL     1      41.160  15.457 120.283 -0.01 -0.00    +0.000 HD
DOCKED: ENDBRANCH  11  12
DOCKED: ENDBRANCH  10  11
DOCKED: ENDBRANCH   9  10
DOCKED: ENDBRANCH   1   9
DOCKED: TORSDOF 7
DOCKED: TER
DOCKED: ENDMDL
________________________________________________________________________________


	BEGINNING GENETIC ALGORITHM DOCKING 52 of 100
Run: 52 Seed: 1888990968 126593977 [ Run 52 of 100 GA/GALS ]
Beginning LAMARCKIAN GENETIC ALGORITHM (LGA), with a maximum of 2500000 energy evaluations.

Final-Value: -11.985


	FINAL GENETIC ALGORITHM DOCKED STATE
	_______________________________________________


Detailed state:  trans 35.605 13.614 121.257 quatxyzw -0.522420 0.837464 0.104631 -0.121589 center 0.016 0.633 0.013 ntor 7 118.3360 -176.0805 77.4400 176.1934 99.3852 179.1724 -48.3773
State:	 35.605  13.614 121.257  -0.526  0.844  0.105 -166.032    118.34 -176.08   77.44  176.19   99.39  179.17  -48.38

DOCKED: MODEL       52
DOCKED: USER    Run = 52
DOCKED: USER    DPF = ligand_dock.biased.dpf
DOCKED: USER  
DOCKED: USER    Estimated Free Energy of Binding    =   -9.06 kcal/mol  [=(1)+(2)+(3)-(4)]
DOCKED: USER    Estimated Inhibition Constant, Ki   =  230.42 nM (nanomolar)  [Temperature = 298.15 K]
DOCKED: USER    
DOCKED: USER    (1) Final Intermolecular Energy     =  -11.14 kcal/mol
DOCKED: USER        vdW + Hbond + desolv Energy     =  -11.14 kcal/mol
DOCKED: USER        Electrostatic Energy            =   +0.00 kcal/mol
DOCKED: USER    (2) Final Total Internal Energy     =   -0.84 kcal/mol
DOCKED: USER    (3) Torsional Free Energy           =   +2.09 kcal/mol
DOCKED: USER    (4) Unbound System's Energy  [=(2)] =   -0.84 kcal/mol
DOCKED: USER    
DOCKED: USER    
DOCKED: USER    NEWDPF move ligand.pdbqt
DOCKED: USER    NEWDPF about 0.016000 0.633000 0.013000
DOCKED: USER    NEWDPF tran0 35.605285 13.614019 121.256886
DOCKED: USER    NEWDPF quaternion0 -0.522420 0.837464 0.104631 -0.121589
DOCKED: USER    NEWDPF axisangle0 -0.526325 0.843724 0.105413 -166.032394
DOCKED: USER    NEWDPF quat0 -0.526325 0.843724 0.105413 -166.032394
DOCKED: USER    NEWDPF dihe0 118.34 -176.08 77.44 176.19 99.39 179.17 -48.38 
DOCKED: USER  keepresnum = 1 
DOCKED: USER  
DOCKED: REMARK  Name = 
DOCKED: REMARK  7 active torsions:
DOCKED: REMARK  status: ('A' for Active; 'I' for Inactive)
DOCKED: REMARK    1  A    between atoms: C_3  and  C_4
DOCKED: REMARK    2  A    between atoms: C_4  and  C_5
DOCKED: REMARK    3  A    between atoms: C_5  and  C_6
DOCKED: REMARK    4  A    between atoms: C_6  and  C_7
DOCKED: REMARK    5  A    between atoms: C_7  and  C_8
DOCKED: REMARK    6  A    between atoms: C_8  and  C_9
DOCKED: REMARK    7  A    between atoms: C_9  and  C_10
DOCKED: REMARK                            x       y       z     vdW  Elec       q    Type
DOCKED: REMARK                         _______ _______ _______ _____ _____    ______ ____
DOCKED: USER                              x       y       z     vdW  Elec       q    Type
DOCKED: USER                           _______ _______ _______ _____ _____    ______ ____
DOCKED: ROOT
DOCKED: ATOM      1  C   UNL     1      37.350  12.456 120.554 -0.52 -0.00    +0.000 C 
DOCKED: ENDROOT
DOCKED: BRANCH   1   2
DOCKED: ATOM      2  C   UNL     1      36.311  11.846 121.507 -0.47 -0.00    +0.000 C 
DOCKED: BRANCH   2   3
DOCKED: ATOM      3  C   UNL     1      36.994  11.077 122.642 -0.61 -0.00    +0.000 C 
DOCKED: BRANCH   3   6
DOCKED: ATOM      4  O   UNL     1      37.065   7.340 123.220 -2.36 -0.00    +0.000 OA
DOCKED: ATOM      5  N   UNL     1      37.088   8.673 123.456 -0.64 -0.00    +0.000 N 
DOCKED: ATOM      6  C   UNL     1      36.949   9.603 122.379 -0.63 -0.00    +0.000 C 
DOCKED: ATOM      7  O   UNL     1      36.827   9.182 121.197 -2.67 -0.00    +0.000 OA
DOCKED: ATOM      8  H   UNL     1      37.200   9.004 124.375 -0.55 -0.00    +0.000 HD
DOCKED: ENDBRANCH   3   6
DOCKED: ENDBRANCH   2   3
DOCKED: ENDBRANCH   1   2
DOCKED: BRANCH   1   9
DOCKED: ATOM      9  C   UNL     1      38.082  13.668 121.160 -0.43 -0.00    +0.000 C 
DOCKED: BRANCH   9  10
DOCKED: ATOM     10  C   UNL     1      37.724  15.026 120.531 -0.27 -0.00    +0.000 C 
DOCKED: BRANCH  10  11
DOCKED: ATOM     11  C   UNL     1      37.077  15.995 121.529 -0.24 -0.00    +0.000 C 
DOCKED: BRANCH  11  12
DOCKED: ATOM     12  C   UNL     1      37.043  15.388 122.900 -0.38 -0.00    +0.000 C 
DOCKED: ATOM     13  N   UNL     1      35.912  14.621 123.320 -0.47 -0.00    +0.000 N 
DOCKED: ATOM     14  O   UNL     1      35.870  14.085 124.562 -0.56 -0.00    +0.000 OA
DOCKED: ATOM     15  O   UNL     1      37.998  15.590 123.697 -0.33 -0.00    +0.000 OA
DOCKED: ATOM     16  H   UNL     1      35.160  14.482 122.702 -0.01 -0.00    +0.000 HD
DOCKED: ENDBRANCH  11  12
DOCKED: ENDBRANCH  10  11
DOCKED: ENDBRANCH   9  10
DOCKED: ENDBRANCH   1   9
DOCKED: TORSDOF 7
DOCKED: TER
DOCKED: ENDMDL
________________________________________________________________________________


	BEGINNING GENETIC ALGORITHM DOCKING 53 of 100
Run: 53 Seed: 2000612939 1336002134 [ Run 53 of 100 GA/GALS ]
Beginning LAMARCKIAN GENETIC ALGORITHM (LGA), with a maximum of 2500000 energy evaluations.

Final-Value: -12.936


	FINAL GENETIC ALGORITHM DOCKED STATE
	_______________________________________________


Detailed state:  trans 36.419 13.145 121.424 quatxyzw -0.531633 -0.466878 0.595418 -0.380617 center 0.016 0.633 0.013 ntor 7 97.4596 -45.0161 -40.6739 46.6598 113.3629 -30.1309 31.3152
State:	 36.419  13.145 121.424  -0.575 -0.505  0.644 -135.256     97.46  -45.02  -40.67   46.66  113.36  -30.13   31.32

DOCKED: MODEL       53
DOCKED: USER    Run = 53
DOCKED: USER    DPF = ligand_dock.biased.dpf
DOCKED: USER  
DOCKED: USER    Estimated Free Energy of Binding    =  -10.20 kcal/mol  [=(1)+(2)+(3)-(4)]
DOCKED: USER    Estimated Inhibition Constant, Ki   =   33.64 nM (nanomolar)  [Temperature = 298.15 K]
DOCKED: USER    
DOCKED: USER    (1) Final Intermolecular Energy     =  -12.28 kcal/mol
DOCKED: USER        vdW + Hbond + desolv Energy     =  -12.28 kcal/mol
DOCKED: USER        Electrostatic Energy            =   +0.00 kcal/mol
DOCKED: USER    (2) Final Total Internal Energy     =   -0.65 kcal/mol
DOCKED: USER    (3) Torsional Free Energy           =   +2.09 kcal/mol
DOCKED: USER    (4) Unbound System's Energy  [=(2)] =   -0.65 kcal/mol
DOCKED: USER    
DOCKED: USER    
DOCKED: USER    NEWDPF move ligand.pdbqt
DOCKED: USER    NEWDPF about 0.016000 0.633000 0.013000
DOCKED: USER    NEWDPF tran0 36.418580 13.145180 121.424359
DOCKED: USER    NEWDPF quaternion0 -0.531633 -0.466878 0.595418 -0.380617
DOCKED: USER    NEWDPF axisangle0 -0.574904 -0.504878 0.643881 -135.256206
DOCKED: USER    NEWDPF quat0 -0.574904 -0.504878 0.643881 -135.256206
DOCKED: USER    NEWDPF dihe0 97.46 -45.02 -40.67 46.66 113.36 -30.13 31.32 
DOCKED: USER  keepresnum = 1 
DOCKED: USER  
DOCKED: REMARK  Name = 
DOCKED: REMARK  7 active torsions:
DOCKED: REMARK  status: ('A' for Active; 'I' for Inactive)
DOCKED: REMARK    1  A    between atoms: C_3  and  C_4
DOCKED: REMARK    2  A    between atoms: C_4  and  C_5
DOCKED: REMARK    3  A    between atoms: C_5  and  C_6
DOCKED: REMARK    4  A    between atoms: C_6  and  C_7
DOCKED: REMARK    5  A    between atoms: C_7  and  C_8
DOCKED: REMARK    6  A    between atoms: C_8  and  C_9
DOCKED: REMARK    7  A    between atoms: C_9  and  C_10
DOCKED: REMARK                            x       y       z     vdW  Elec       q    Type
DOCKED: REMARK                         _______ _______ _______ _____ _____    ______ ____
DOCKED: USER                              x       y       z     vdW  Elec       q    Type
DOCKED: USER                           _______ _______ _______ _____ _____    ______ ____
DOCKED: ROOT
DOCKED: ATOM      1  C   UNL     1      35.785  14.090 123.317 -0.45 -0.00    +0.000 C 
DOCKED: ENDROOT
DOCKED: BRANCH   1   2
DOCKED: ATOM      2  C   UNL     1      36.893  14.700 122.447 -0.40 -0.00    +0.000 C 
DOCKED: BRANCH   2   3
DOCKED: ATOM      3  C   UNL     1      38.203  14.822 123.231 -0.28 -0.00    +0.000 C 
DOCKED: BRANCH   3   6
DOCKED: ATOM      4  O   UNL     1      41.757  14.194 122.102 -0.76 +0.00    +0.000 OA
DOCKED: ATOM      5  N   UNL     1      40.698  14.496 122.890 -0.47 -0.00    +0.000 N 
DOCKED: ATOM      6  C   UNL     1      39.370  14.469 122.361 -0.41 -0.00    +0.000 C 
DOCKED: ATOM      7  O   UNL     1      39.182  14.184 121.148 -0.59 -0.00    +0.000 OA
DOCKED: ATOM      8  H   UNL     1      40.843  14.736 123.833 +0.01 +0.00    +0.000 HD
DOCKED: ENDBRANCH   3   6
DOCKED: ENDBRANCH   2   3
DOCKED: ENDBRANCH   1   2
DOCKED: BRANCH   1   9
DOCKED: ATOM      9  C   UNL     1      36.140  12.687 123.845 -0.62 -0.00    +0.000 C 
DOCKED: BRANCH   9  10
DOCKED: ATOM     10  C   UNL     1      37.065  11.863 122.932 -0.64 -0.00    +0.000 C 
DOCKED: BRANCH  10  11
DOCKED: ATOM     11  C   UNL     1      36.294  10.978 121.943 -0.59 -0.00    +0.000 C 
DOCKED: BRANCH  11  12
DOCKED: ATOM     12  C   UNL     1      36.740   9.551 122.062 -0.68 -0.00    +0.000 C 
DOCKED: ATOM     13  N   UNL     1      36.999   8.982 123.347 -0.61 -0.00    +0.000 N 
DOCKED: ATOM     14  O   UNL     1      37.417   7.699 123.458 -2.60 -0.00    +0.000 OA
DOCKED: ATOM     15  O   UNL     1      36.923   8.865 121.022 -2.67 -0.00    +0.000 OA
DOCKED: ATOM     16  H   UNL     1      36.873   9.527 124.157 -0.52 -0.00    +0.000 HD
DOCKED: ENDBRANCH  11  12
DOCKED: ENDBRANCH  10  11
DOCKED: ENDBRANCH   9  10
DOCKED: ENDBRANCH   1   9
DOCKED: TORSDOF 7
DOCKED: TER
DOCKED: ENDMDL
________________________________________________________________________________


	BEGINNING GENETIC ALGORITHM DOCKING 54 of 100
Run: 54 Seed: 1042471201 578060442 [ Run 54 of 100 GA/GALS ]
Beginning LAMARCKIAN GENETIC ALGORITHM (LGA), with a maximum of 2500000 energy evaluations.

Final-Value: -12.339


	FINAL GENETIC ALGORITHM DOCKED STATE
	_______________________________________________


Detailed state:  trans 34.819 13.987 122.038 quatxyzw 0.027328 0.509786 -0.747868 0.424341 center 0.016 0.633 0.013 ntor 7 -15.2948 -113.5165 -46.1562 -27.2793 12.6829 -159.9743 -64.8384
State:	 34.819  13.987 122.038   0.030  0.563 -0.826 129.782    -15.29 -113.52  -46.16  -27.28   12.68 -159.97  -64.84

DOCKED: MODEL       54
DOCKED: USER    Run = 54
DOCKED: USER    DPF = ligand_dock.biased.dpf
DOCKED: USER  
DOCKED: USER    Estimated Free Energy of Binding    =   -9.87 kcal/mol  [=(1)+(2)+(3)-(4)]
DOCKED: USER    Estimated Inhibition Constant, Ki   =   58.70 nM (nanomolar)  [Temperature = 298.15 K]
DOCKED: USER    
DOCKED: USER    (1) Final Intermolecular Energy     =  -11.95 kcal/mol
DOCKED: USER        vdW + Hbond + desolv Energy     =  -11.95 kcal/mol
DOCKED: USER        Electrostatic Energy            =   +0.00 kcal/mol
DOCKED: USER    (2) Final Total Internal Energy     =   -0.39 kcal/mol
DOCKED: USER    (3) Torsional Free Energy           =   +2.09 kcal/mol
DOCKED: USER    (4) Unbound System's Energy  [=(2)] =   -0.39 kcal/mol
DOCKED: USER    
DOCKED: USER    
DOCKED: USER    NEWDPF move ligand.pdbqt
DOCKED: USER    NEWDPF about 0.016000 0.633000 0.013000
DOCKED: USER    NEWDPF tran0 34.819152 13.986820 122.038062
DOCKED: USER    NEWDPF quaternion0 0.027328 0.509786 -0.747868 0.424341
DOCKED: USER    NEWDPF axisangle0 0.030180 0.562987 -0.825915 129.782116
DOCKED: USER    NEWDPF quat0 0.030180 0.562987 -0.825915 129.782116
DOCKED: USER    NEWDPF dihe0 -15.29 -113.52 -46.16 -27.28 12.68 -159.97 -64.84 
DOCKED: USER  keepresnum = 1 
DOCKED: USER  
DOCKED: REMARK  Name = 
DOCKED: REMARK  7 active torsions:
DOCKED: REMARK  status: ('A' for Active; 'I' for Inactive)
DOCKED: REMARK    1  A    between atoms: C_3  and  C_4
DOCKED: REMARK    2  A    between atoms: C_4  and  C_5
DOCKED: REMARK    3  A    between atoms: C_5  and  C_6
DOCKED: REMARK    4  A    between atoms: C_6  and  C_7
DOCKED: REMARK    5  A    between atoms: C_7  and  C_8
DOCKED: REMARK    6  A    between atoms: C_8  and  C_9
DOCKED: REMARK    7  A    between atoms: C_9  and  C_10
DOCKED: REMARK                            x       y       z     vdW  Elec       q    Type
DOCKED: REMARK                         _______ _______ _______ _____ _____    ______ ____
DOCKED: USER                              x       y       z     vdW  Elec       q    Type
DOCKED: USER                           _______ _______ _______ _____ _____    ______ ____
DOCKED: ROOT
DOCKED: ATOM      1  C   UNL     1      35.573  14.191 124.104 -0.51 -0.00    +0.000 C 
DOCKED: ENDROOT
DOCKED: BRANCH   1   2
DOCKED: ATOM      2  C   UNL     1      35.278  15.419 123.231 -0.39 -0.00    +0.000 C 
DOCKED: BRANCH   2   3
DOCKED: ATOM      3  C   UNL     1      34.571  16.510 124.042 -0.51 -0.00    +0.000 C 
DOCKED: BRANCH   3   6
DOCKED: ATOM      4  O   UNL     1      35.605  19.660 122.223 -0.63 -0.00    +0.000 OA
DOCKED: ATOM      5  N   UNL     1      35.039  18.458 122.481 -0.27 -0.00    +0.000 N 
DOCKED: ATOM      6  C   UNL     1      35.183  17.849 123.766 -0.34 -0.00    +0.000 C 
DOCKED: ATOM      7  O   UNL     1      35.862  18.422 124.661 -0.25 -0.00    +0.000 OA
DOCKED: ATOM      8  H   UNL     1      34.523  18.001 121.780 -0.02 -0.00    +0.000 HD
DOCKED: ENDBRANCH   3   6
DOCKED: ENDBRANCH   2   3
DOCKED: ENDBRANCH   1   2
DOCKED: BRANCH   1   9
DOCKED: ATOM      9  C   UNL     1      36.681  13.293 123.522 -0.59 -0.00    +0.000 C 
DOCKED: BRANCH   9  10
DOCKED: ATOM     10  C   UNL     1      36.295  11.813 123.350 -0.70 -0.00    +0.000 C 
DOCKED: BRANCH  10  11
DOCKED: ATOM     11  C   UNL     1      36.801  11.212 122.031 -0.60 -0.00    +0.000 C 
DOCKED: BRANCH  11  12
DOCKED: ATOM     12  C   UNL     1      36.833   9.716 122.116 -0.65 -0.00    +0.000 C 
DOCKED: ATOM     13  N   UNL     1      37.021   9.070 123.378 -0.59 -0.00    +0.000 N 
DOCKED: ATOM     14  O   UNL     1      37.067   7.720 123.457 -2.70 -0.00    +0.000 OA
DOCKED: ATOM     15  O   UNL     1      36.734   9.028 121.066 -2.62 -0.00    +0.000 OA
DOCKED: ATOM     16  H   UNL     1      37.118   9.611 124.194 -0.59 -0.00    +0.000 HD
DOCKED: ENDBRANCH  11  12
DOCKED: ENDBRANCH  10  11
DOCKED: ENDBRANCH   9  10
DOCKED: ENDBRANCH   1   9
DOCKED: TORSDOF 7
DOCKED: TER
DOCKED: ENDMDL
________________________________________________________________________________


	BEGINNING GENETIC ALGORITHM DOCKING 55 of 100
Run: 55 Seed: 1131108297 79273020 [ Run 55 of 100 GA/GALS ]
Beginning LAMARCKIAN GENETIC ALGORITHM (LGA), with a maximum of 2500000 energy evaluations.

Final-Value: -13.381


	FINAL GENETIC ALGORITHM DOCKED STATE
	_______________________________________________


Detailed state:  trans 36.869 15.122 122.077 quatxyzw -0.208542 0.079544 0.135856 -0.965260 center 0.016 0.633 0.013 ntor 7 145.0400 -65.3644 -120.1536 -34.2506 -57.3734 -24.8769 156.2529
State:	 36.869  15.122 122.077  -0.798  0.304  0.520 -30.293    145.04  -65.36 -120.15  -34.25  -57.37  -24.88  156.25

DOCKED: MODEL       55
DOCKED: USER    Run = 55
DOCKED: USER    DPF = ligand_dock.biased.dpf
DOCKED: USER  
DOCKED: USER    Estimated Free Energy of Binding    =  -10.74 kcal/mol  [=(1)+(2)+(3)-(4)]
DOCKED: USER    Estimated Inhibition Constant, Ki   =   13.34 nM (nanomolar)  [Temperature = 298.15 K]
DOCKED: USER    
DOCKED: USER    (1) Final Intermolecular Energy     =  -12.83 kcal/mol
DOCKED: USER        vdW + Hbond + desolv Energy     =  -12.83 kcal/mol
DOCKED: USER        Electrostatic Energy            =   +0.00 kcal/mol
DOCKED: USER    (2) Final Total Internal Energy     =   -0.55 kcal/mol
DOCKED: USER    (3) Torsional Free Energy           =   +2.09 kcal/mol
DOCKED: USER    (4) Unbound System's Energy  [=(2)] =   -0.55 kcal/mol
DOCKED: USER    
DOCKED: USER    
DOCKED: USER    NEWDPF move ligand.pdbqt
DOCKED: USER    NEWDPF about 0.016000 0.633000 0.013000
DOCKED: USER    NEWDPF tran0 36.869251 15.122433 122.076501
DOCKED: USER    NEWDPF quaternion0 -0.208542 0.079544 0.135856 -0.965260
DOCKED: USER    NEWDPF axisangle0 -0.798117 0.304424 0.519937 -30.293498
DOCKED: USER    NEWDPF quat0 -0.798117 0.304424 0.519937 -30.293498
DOCKED: USER    NEWDPF dihe0 145.04 -65.36 -120.15 -34.25 -57.37 -24.88 156.25 
DOCKED: USER  keepresnum = 1 
DOCKED: USER  
DOCKED: REMARK  Name = 
DOCKED: REMARK  7 active torsions:
DOCKED: REMARK  status: ('A' for Active; 'I' for Inactive)
DOCKED: REMARK    1  A    between atoms: C_3  and  C_4
DOCKED: REMARK    2  A    between atoms: C_4  and  C_5
DOCKED: REMARK    3  A    between atoms: C_5  and  C_6
DOCKED: REMARK    4  A    between atoms: C_6  and  C_7
DOCKED: REMARK    5  A    between atoms: C_7  and  C_8
DOCKED: REMARK    6  A    between atoms: C_8  and  C_9
DOCKED: REMARK    7  A    between atoms: C_9  and  C_10
DOCKED: REMARK                            x       y       z     vdW  Elec       q    Type
DOCKED: REMARK                         _______ _______ _______ _____ _____    ______ ____
DOCKED: USER                              x       y       z     vdW  Elec       q    Type
DOCKED: USER                           _______ _______ _______ _____ _____    ______ ____
DOCKED: ROOT
DOCKED: ATOM      1  C   UNL     1      37.978  13.588 123.214 -0.46 -0.00    +0.000 C 
DOCKED: ENDROOT
DOCKED: BRANCH   1   2
DOCKED: ATOM      2  C   UNL     1      38.279  13.865 121.734 -0.43 -0.00    +0.000 C 
DOCKED: BRANCH   2   3
DOCKED: ATOM      3  C   UNL     1      38.900  15.253 121.551 -0.32 -0.00    +0.000 C 
DOCKED: BRANCH   3   6
DOCKED: ATOM      4  O   UNL     1      41.623  16.579 123.815 -0.97 +0.00    +0.000 OA
DOCKED: ATOM      5  N   UNL     1      40.450  16.476 123.148 -0.30 -0.00    +0.000 N 
DOCKED: ATOM      6  C   UNL     1      40.193  15.353 122.302 -0.41 -0.00    +0.000 C 
DOCKED: ATOM      7  O   UNL     1      41.072  14.462 122.156 -1.07 -0.00    +0.000 OA
DOCKED: ATOM      8  H   UNL     1      39.769  17.179 123.247 -0.01 -0.00    +0.000 HD
DOCKED: ENDBRANCH   3   6
DOCKED: ENDBRANCH   2   3
DOCKED: ENDBRANCH   1   2
DOCKED: BRANCH   1   9
DOCKED: ATOM      9  C   UNL     1      36.542  13.085 123.451 -0.63 -0.00    +0.000 C 
DOCKED: BRANCH   9  10
DOCKED: ATOM     10  C   UNL     1      36.390  11.555 123.512 -0.70 -0.00    +0.000 C 
DOCKED: BRANCH  10  11
DOCKED: ATOM     11  C   UNL     1      36.200  10.918 122.129 -0.62 -0.00    +0.000 C 
DOCKED: BRANCH  11  12
DOCKED: ATOM     12  C   UNL     1      36.693   9.502 122.133 -0.70 -0.00    +0.000 C 
DOCKED: ATOM     13  N   UNL     1      36.841   8.795 123.366 -0.63 -0.00    +0.000 N 
DOCKED: ATOM     14  O   UNL     1      37.302   7.522 123.375 -2.45 -0.00    +0.000 OA
DOCKED: ATOM     15  O   UNL     1      37.015   8.949 121.047 -2.70 -0.00    +0.000 OA
DOCKED: ATOM     16  H   UNL     1      36.607   9.236 124.213 -0.45 -0.00    +0.000 HD
DOCKED: ENDBRANCH  11  12
DOCKED: ENDBRANCH  10  11
DOCKED: ENDBRANCH   9  10
DOCKED: ENDBRANCH   1   9
DOCKED: TORSDOF 7
DOCKED: TER
DOCKED: ENDMDL
________________________________________________________________________________


	BEGINNING GENETIC ALGORITHM DOCKING 56 of 100
Run: 56 Seed: 1748258100 1753024472 [ Run 56 of 100 GA/GALS ]
Beginning LAMARCKIAN GENETIC ALGORITHM (LGA), with a maximum of 2500000 energy evaluations.

Final-Value: -13.091


	FINAL GENETIC ALGORITHM DOCKED STATE
	_______________________________________________


Detailed state:  trans 35.334 12.814 122.994 quatxyzw -0.788359 0.557298 0.148065 -0.214441 center 0.016 0.633 0.013 ntor 7 -36.3027 146.0137 -49.4042 -120.9476 -62.0997 172.2481 -72.5519
State:	 35.334  12.814 122.994  -0.807  0.571  0.152 -155.235    -36.30  146.01  -49.40 -120.95  -62.10  172.25  -72.55

DOCKED: MODEL       56
DOCKED: USER    Run = 56
DOCKED: USER    DPF = ligand_dock.biased.dpf
DOCKED: USER  
DOCKED: USER    Estimated Free Energy of Binding    =  -10.49 kcal/mol  [=(1)+(2)+(3)-(4)]
DOCKED: USER    Estimated Inhibition Constant, Ki   =   20.54 nM (nanomolar)  [Temperature = 298.15 K]
DOCKED: USER    
DOCKED: USER    (1) Final Intermolecular Energy     =  -12.58 kcal/mol
DOCKED: USER        vdW + Hbond + desolv Energy     =  -12.58 kcal/mol
DOCKED: USER        Electrostatic Energy            =   +0.00 kcal/mol
DOCKED: USER    (2) Final Total Internal Energy     =   -0.52 kcal/mol
DOCKED: USER    (3) Torsional Free Energy           =   +2.09 kcal/mol
DOCKED: USER    (4) Unbound System's Energy  [=(2)] =   -0.52 kcal/mol
DOCKED: USER    
DOCKED: USER    
DOCKED: USER    NEWDPF move ligand.pdbqt
DOCKED: USER    NEWDPF about 0.016000 0.633000 0.013000
DOCKED: USER    NEWDPF tran0 35.333643 12.814009 122.994047
DOCKED: USER    NEWDPF quaternion0 -0.788359 0.557298 0.148065 -0.214441
DOCKED: USER    NEWDPF axisangle0 -0.807136 0.570571 0.151592 -155.234516
DOCKED: USER    NEWDPF quat0 -0.807136 0.570571 0.151592 -155.234516
DOCKED: USER    NEWDPF dihe0 -36.30 146.01 -49.40 -120.95 -62.10 172.25 -72.55 
DOCKED: USER  keepresnum = 1 
DOCKED: USER  
DOCKED: REMARK  Name = 
DOCKED: REMARK  7 active torsions:
DOCKED: REMARK  status: ('A' for Active; 'I' for Inactive)
DOCKED: REMARK    1  A    between atoms: C_3  and  C_4
DOCKED: REMARK    2  A    between atoms: C_4  and  C_5
DOCKED: REMARK    3  A    between atoms: C_5  and  C_6
DOCKED: REMARK    4  A    between atoms: C_6  and  C_7
DOCKED: REMARK    5  A    between atoms: C_7  and  C_8
DOCKED: REMARK    6  A    between atoms: C_8  and  C_9
DOCKED: REMARK    7  A    between atoms: C_9  and  C_10
DOCKED: REMARK                            x       y       z     vdW  Elec       q    Type
DOCKED: REMARK                         _______ _______ _______ _____ _____    ______ ____
DOCKED: USER                              x       y       z     vdW  Elec       q    Type
DOCKED: USER                           _______ _______ _______ _____ _____    ______ ____
DOCKED: ROOT
DOCKED: ATOM      1  C   UNL     1      37.475  13.282 122.724 -0.55 -0.00    +0.000 C 
DOCKED: ENDROOT
DOCKED: BRANCH   1   2
DOCKED: ATOM      2  C   UNL     1      37.014  11.941 123.312 -0.67 -0.00    +0.000 C 
DOCKED: BRANCH   2   3
DOCKED: ATOM      3  C   UNL     1      36.194  11.147 122.291 -0.65 -0.00    +0.000 C 
DOCKED: BRANCH   3   6
DOCKED: ATOM      4  O   UNL     1      37.385   7.712 123.332 -2.52 -0.00    +0.000 OA
DOCKED: ATOM      5  N   UNL     1      36.926   8.983 123.402 -0.59 -0.00    +0.000 N 
DOCKED: ATOM      6  C   UNL     1      36.685   9.733 122.209 -0.69 -0.00    +0.000 C 
DOCKED: ATOM      7  O   UNL     1      36.923   9.218 121.084 -2.69 -0.00    +0.000 OA
DOCKED: ATOM      8  H   UNL     1      36.756   9.394 124.280 -0.43 -0.00    +0.000 HD
DOCKED: ENDBRANCH   3   6
DOCKED: ENDBRANCH   2   3
DOCKED: ENDBRANCH   1   2
DOCKED: BRANCH   1   9
DOCKED: ATOM      9  C   UNL     1      37.062  14.490 123.585 -0.40 -0.00    +0.000 C 
DOCKED: BRANCH   9  10
DOCKED: ATOM     10  C   UNL     1      36.452  15.668 122.805 -0.37 -0.00    +0.000 C 
DOCKED: BRANCH  10  11
DOCKED: ATOM     11  C   UNL     1      34.955  15.858 123.084 -0.37 -0.00    +0.000 C 
DOCKED: BRANCH  11  12
DOCKED: ATOM     12  C   UNL     1      34.738  16.281 124.506 -0.52 -0.00    +0.000 C 
DOCKED: ATOM     13  N   UNL     1      33.804  15.580 125.331 -0.49 -0.00    +0.000 N 
DOCKED: ATOM     14  O   UNL     1      33.593  15.969 126.611 -1.08 -0.00    +0.000 OA
DOCKED: ATOM     15  O   UNL     1      35.351  17.283 124.961 -0.36 -0.00    +0.000 OA
DOCKED: ATOM     16  H   UNL     1      33.313  14.810 124.967 -0.21 -0.00    +0.000 HD
DOCKED: ENDBRANCH  11  12
DOCKED: ENDBRANCH  10  11
DOCKED: ENDBRANCH   9  10
DOCKED: ENDBRANCH   1   9
DOCKED: TORSDOF 7
DOCKED: TER
DOCKED: ENDMDL
________________________________________________________________________________


	BEGINNING GENETIC ALGORITHM DOCKING 57 of 100
Run: 57 Seed: 1232349825 2013396273 [ Run 57 of 100 GA/GALS ]
Beginning LAMARCKIAN GENETIC ALGORITHM (LGA), with a maximum of 2500000 energy evaluations.

Final-Value: -12.827


	FINAL GENETIC ALGORITHM DOCKED STATE
	_______________________________________________


Detailed state:  trans 36.801 12.428 121.632 quatxyzw -0.527858 0.341483 -0.597376 -0.497893 center 0.016 0.633 0.013 ntor 7 -102.0376 70.6909 -69.3299 77.4150 -92.4061 167.9296 -52.1501
State:	 36.801  12.428 121.632  -0.609  0.394 -0.689 -120.279   -102.04   70.69  -69.33   77.41  -92.41  167.93  -52.15

DOCKED: MODEL       57
DOCKED: USER    Run = 57
DOCKED: USER    DPF = ligand_dock.biased.dpf
DOCKED: USER  
DOCKED: USER    Estimated Free Energy of Binding    =   -9.82 kcal/mol  [=(1)+(2)+(3)-(4)]
DOCKED: USER    Estimated Inhibition Constant, Ki   =   63.86 nM (nanomolar)  [Temperature = 298.15 K]
DOCKED: USER    
DOCKED: USER    (1) Final Intermolecular Energy     =  -11.90 kcal/mol
DOCKED: USER        vdW + Hbond + desolv Energy     =  -11.90 kcal/mol
DOCKED: USER        Electrostatic Energy            =   +0.00 kcal/mol
DOCKED: USER    (2) Final Total Internal Energy     =   -0.92 kcal/mol
DOCKED: USER    (3) Torsional Free Energy           =   +2.09 kcal/mol
DOCKED: USER    (4) Unbound System's Energy  [=(2)] =   -0.92 kcal/mol
DOCKED: USER    
DOCKED: USER    
DOCKED: USER    NEWDPF move ligand.pdbqt
DOCKED: USER    NEWDPF about 0.016000 0.633000 0.013000
DOCKED: USER    NEWDPF tran0 36.800638 12.427604 121.631500
DOCKED: USER    NEWDPF quaternion0 -0.527858 0.341483 -0.597376 -0.497893
DOCKED: USER    NEWDPF axisangle0 -0.608666 0.393759 -0.688825 -120.278579
DOCKED: USER    NEWDPF quat0 -0.608666 0.393759 -0.688825 -120.278579
DOCKED: USER    NEWDPF dihe0 -102.04 70.69 -69.33 77.41 -92.41 167.93 -52.15 
DOCKED: USER  keepresnum = 1 
DOCKED: USER  
DOCKED: REMARK  Name = 
DOCKED: REMARK  7 active torsions:
DOCKED: REMARK  status: ('A' for Active; 'I' for Inactive)
DOCKED: REMARK    1  A    between atoms: C_3  and  C_4
DOCKED: REMARK    2  A    between atoms: C_4  and  C_5
DOCKED: REMARK    3  A    between atoms: C_5  and  C_6
DOCKED: REMARK    4  A    between atoms: C_6  and  C_7
DOCKED: REMARK    5  A    between atoms: C_7  and  C_8
DOCKED: REMARK    6  A    between atoms: C_8  and  C_9
DOCKED: REMARK    7  A    between atoms: C_9  and  C_10
DOCKED: REMARK                            x       y       z     vdW  Elec       q    Type
DOCKED: REMARK                         _______ _______ _______ _____ _____    ______ ____
DOCKED: USER                              x       y       z     vdW  Elec       q    Type
DOCKED: USER                           _______ _______ _______ _____ _____    ______ ____
DOCKED: ROOT
DOCKED: ATOM      1  C   UNL     1      36.799  12.612 123.832 -0.59 -0.00    +0.000 C 
DOCKED: ENDROOT
DOCKED: BRANCH   1   2
DOCKED: ATOM      2  C   UNL     1      35.851  11.647 123.106 -0.65 -0.00    +0.000 C 
DOCKED: BRANCH   2   3
DOCKED: ATOM      3  C   UNL     1      36.502  11.088 121.837 -0.56 -0.00    +0.000 C 
DOCKED: BRANCH   3   6
DOCKED: ATOM      4  O   UNL     1      37.109   7.718 123.441 -2.68 -0.00    +0.000 OA
DOCKED: ATOM      5  N   UNL     1      36.835   9.035 123.295 -0.61 -0.00    +0.000 N 
DOCKED: ATOM      6  C   UNL     1      36.787   9.626 121.994 -0.66 -0.00    +0.000 C 
DOCKED: ATOM      7  O   UNL     1      37.024   8.923 120.975 -2.70 -0.00    +0.000 OA
DOCKED: ATOM      8  H   UNL     1      36.666   9.590 124.089 -0.46 -0.00    +0.000 HD
DOCKED: ENDBRANCH   3   6
DOCKED: ENDBRANCH   2   3
DOCKED: ENDBRANCH   1   2
DOCKED: BRANCH   1   9
DOCKED: ATOM      9  C   UNL     1      36.558  14.087 123.458 -0.53 -0.00    +0.000 C 
DOCKED: BRANCH   9  10
DOCKED: ATOM     10  C   UNL     1      37.706  14.758 122.685 -0.43 -0.00    +0.000 C 
DOCKED: BRANCH  10  11
DOCKED: ATOM     11  C   UNL     1      37.384  14.971 121.200 -0.30 -0.00    +0.000 C 
DOCKED: BRANCH  11  12
DOCKED: ATOM     12  C   UNL     1      37.922  13.836 120.381 -0.39 -0.00    +0.000 C 
DOCKED: ATOM     13  N   UNL     1      37.344  13.529 119.110 -0.38 -0.00    +0.000 N 
DOCKED: ATOM     14  O   UNL     1      37.816  12.495 118.374 -0.43 -0.00    +0.000 OA
DOCKED: ATOM     15  O   UNL     1      38.860  13.128 120.834 -0.50 -0.00    +0.000 OA
DOCKED: ATOM     16  H   UNL     1      36.599  14.072 118.768 -0.02 -0.00    +0.000 HD
DOCKED: ENDBRANCH  11  12
DOCKED: ENDBRANCH  10  11
DOCKED: ENDBRANCH   9  10
DOCKED: ENDBRANCH   1   9
DOCKED: TORSDOF 7
DOCKED: TER
DOCKED: ENDMDL
________________________________________________________________________________


	BEGINNING GENETIC ALGORITHM DOCKING 58 of 100
Run: 58 Seed: 990839377 2056320871 [ Run 58 of 100 GA/GALS ]
Beginning LAMARCKIAN GENETIC ALGORITHM (LGA), with a maximum of 2500000 energy evaluations.

Final-Value: -12.442


	FINAL GENETIC ALGORITHM DOCKED STATE
	_______________________________________________


Detailed state:  trans 36.335 14.573 123.566 quatxyzw -0.375247 0.050726 -0.500633 0.778450 center 0.016 0.633 0.013 ntor 7 -179.6468 -26.5102 -174.9995 -70.5044 45.4074 -126.8211 -52.9802
State:	 36.335  14.573 123.566  -0.598  0.081 -0.798 77.762   -179.65  -26.51 -175.00  -70.50   45.41 -126.82  -52.98

DOCKED: MODEL       58
DOCKED: USER    Run = 58
DOCKED: USER    DPF = ligand_dock.biased.dpf
DOCKED: USER  
DOCKED: USER    Estimated Free Energy of Binding    =   -9.82 kcal/mol  [=(1)+(2)+(3)-(4)]
DOCKED: USER    Estimated Inhibition Constant, Ki   =   63.53 nM (nanomolar)  [Temperature = 298.15 K]
DOCKED: USER    
DOCKED: USER    (1) Final Intermolecular Energy     =  -11.91 kcal/mol
DOCKED: USER        vdW + Hbond + desolv Energy     =  -11.91 kcal/mol
DOCKED: USER        Electrostatic Energy            =   +0.00 kcal/mol
DOCKED: USER    (2) Final Total Internal Energy     =   -0.54 kcal/mol
DOCKED: USER    (3) Torsional Free Energy           =   +2.09 kcal/mol
DOCKED: USER    (4) Unbound System's Energy  [=(2)] =   -0.54 kcal/mol
DOCKED: USER    
DOCKED: USER    
DOCKED: USER    NEWDPF move ligand.pdbqt
DOCKED: USER    NEWDPF about 0.016000 0.633000 0.013000
DOCKED: USER    NEWDPF tran0 36.334802 14.573022 123.566325
DOCKED: USER    NEWDPF quaternion0 -0.375247 0.050726 -0.500633 0.778450
DOCKED: USER    NEWDPF axisangle0 -0.597805 0.080812 -0.797558 77.762336
DOCKED: USER    NEWDPF quat0 -0.597805 0.080812 -0.797558 77.762336
DOCKED: USER    NEWDPF dihe0 -179.65 -26.51 -175.00 -70.50 45.41 -126.82 -52.98 
DOCKED: USER  keepresnum = 1 
DOCKED: USER  
DOCKED: REMARK  Name = 
DOCKED: REMARK  7 active torsions:
DOCKED: REMARK  status: ('A' for Active; 'I' for Inactive)
DOCKED: REMARK    1  A    between atoms: C_3  and  C_4
DOCKED: REMARK    2  A    between atoms: C_4  and  C_5
DOCKED: REMARK    3  A    between atoms: C_5  and  C_6
DOCKED: REMARK    4  A    between atoms: C_6  and  C_7
DOCKED: REMARK    5  A    between atoms: C_7  and  C_8
DOCKED: REMARK    6  A    between atoms: C_8  and  C_9
DOCKED: REMARK    7  A    between atoms: C_9  and  C_10
DOCKED: REMARK                            x       y       z     vdW  Elec       q    Type
DOCKED: REMARK                         _______ _______ _______ _____ _____    ______ ____
DOCKED: USER                              x       y       z     vdW  Elec       q    Type
DOCKED: USER                           _______ _______ _______ _____ _____    ______ ____
DOCKED: ROOT
DOCKED: ATOM      1  C   UNL     1      38.427  14.154 122.997 -0.44 -0.00    +0.000 C 
DOCKED: ENDROOT
DOCKED: BRANCH   1   2
DOCKED: ATOM      2  C   UNL     1      37.815  15.553 122.834 -0.35 -0.00    +0.000 C 
DOCKED: BRANCH   2   3
DOCKED: ATOM      3  C   UNL     1      38.890  16.583 122.473 -0.24 -0.00    +0.000 C 
DOCKED: BRANCH   3   6
DOCKED: ATOM      4  O   UNL     1      42.372  15.239 123.081 -1.08 +0.00    +0.000 OA
DOCKED: ATOM      5  N   UNL     1      41.174  15.833 123.292 -0.36 -0.00    +0.000 N 
DOCKED: ATOM      6  C   UNL     1      40.207  15.908 122.241 -0.34 -0.00    +0.000 C 
DOCKED: ATOM      7  O   UNL     1      40.478  15.439 121.103 -0.31 -0.00    +0.000 OA
DOCKED: ATOM      8  H   UNL     1      40.966  16.215 124.174 -0.02 +0.00    +0.000 HD
DOCKED: ENDBRANCH   3   6
DOCKED: ENDBRANCH   2   3
DOCKED: ENDBRANCH   1   2
DOCKED: BRANCH   1   9
DOCKED: ATOM      9  C   UNL     1      37.718  13.085 122.145 -0.48 -0.00    +0.000 C 
DOCKED: BRANCH   9  10
DOCKED: ATOM     10  C   UNL     1      36.982  11.996 122.947 -0.65 -0.00    +0.000 C 
DOCKED: BRANCH  10  11
DOCKED: ATOM     11  C   UNL     1      36.128  11.078 122.063 -0.60 -0.00    +0.000 C 
DOCKED: BRANCH  11  12
DOCKED: ATOM     12  C   UNL     1      36.633   9.668 122.132 -0.68 -0.00    +0.000 C 
DOCKED: ATOM     13  N   UNL     1      36.694   8.985 123.387 -0.58 -0.00    +0.000 N 
DOCKED: ATOM     14  O   UNL     1      37.165   7.718 123.456 -2.67 -0.00    +0.000 OA
DOCKED: ATOM     15  O   UNL     1      37.043   9.099 121.086 -2.72 -0.00    +0.000 OA
DOCKED: ATOM     16  H   UNL     1      36.391   9.439 124.205 -0.38 -0.00    +0.000 HD
DOCKED: ENDBRANCH  11  12
DOCKED: ENDBRANCH  10  11
DOCKED: ENDBRANCH   9  10
DOCKED: ENDBRANCH   1   9
DOCKED: TORSDOF 7
DOCKED: TER
DOCKED: ENDMDL
________________________________________________________________________________


	BEGINNING GENETIC ALGORITHM DOCKING 59 of 100
Run: 59 Seed: 2069171135 1128316447 [ Run 59 of 100 GA/GALS ]
Beginning LAMARCKIAN GENETIC ALGORITHM (LGA), with a maximum of 2500000 energy evaluations.

Final-Value: -13.073


	FINAL GENETIC ALGORITHM DOCKED STATE
	_______________________________________________


Detailed state:  trans 38.324 14.212 121.202 quatxyzw 0.499329 0.696346 -0.433010 0.279779 center 0.016 0.633 0.013 ntor 7 68.9137 -65.2597 28.1889 -77.5497 -159.7605 158.2332 -124.5928
State:	 38.324  14.212 121.202   0.520  0.725 -0.451 147.506     68.91  -65.26   28.19  -77.55 -159.76  158.23 -124.59

DOCKED: MODEL       59
DOCKED: USER    Run = 59
DOCKED: USER    DPF = ligand_dock.biased.dpf
DOCKED: USER  
DOCKED: USER    Estimated Free Energy of Binding    =  -10.50 kcal/mol  [=(1)+(2)+(3)-(4)]
DOCKED: USER    Estimated Inhibition Constant, Ki   =   20.05 nM (nanomolar)  [Temperature = 298.15 K]
DOCKED: USER    
DOCKED: USER    (1) Final Intermolecular Energy     =  -12.59 kcal/mol
DOCKED: USER        vdW + Hbond + desolv Energy     =  -12.59 kcal/mol
DOCKED: USER        Electrostatic Energy            =   +0.00 kcal/mol
DOCKED: USER    (2) Final Total Internal Energy     =   -0.48 kcal/mol
DOCKED: USER    (3) Torsional Free Energy           =   +2.09 kcal/mol
DOCKED: USER    (4) Unbound System's Energy  [=(2)] =   -0.48 kcal/mol
DOCKED: USER    
DOCKED: USER    
DOCKED: USER    NEWDPF move ligand.pdbqt
DOCKED: USER    NEWDPF about 0.016000 0.633000 0.013000
DOCKED: USER    NEWDPF tran0 38.324032 14.212461 121.201824
DOCKED: USER    NEWDPF quaternion0 0.499329 0.696346 -0.433010 0.279779
DOCKED: USER    NEWDPF axisangle0 0.520099 0.725311 -0.451021 147.505993
DOCKED: USER    NEWDPF quat0 0.520099 0.725311 -0.451021 147.505993
DOCKED: USER    NEWDPF dihe0 68.91 -65.26 28.19 -77.55 -159.76 158.23 -124.59 
DOCKED: USER  keepresnum = 1 
DOCKED: USER  
DOCKED: REMARK  Name = 
DOCKED: REMARK  7 active torsions:
DOCKED: REMARK  status: ('A' for Active; 'I' for Inactive)
DOCKED: REMARK    1  A    between atoms: C_3  and  C_4
DOCKED: REMARK    2  A    between atoms: C_4  and  C_5
DOCKED: REMARK    3  A    between atoms: C_5  and  C_6
DOCKED: REMARK    4  A    between atoms: C_6  and  C_7
DOCKED: REMARK    5  A    between atoms: C_7  and  C_8
DOCKED: REMARK    6  A    between atoms: C_8  and  C_9
DOCKED: REMARK    7  A    between atoms: C_9  and  C_10
DOCKED: REMARK                            x       y       z     vdW  Elec       q    Type
DOCKED: REMARK                         _______ _______ _______ _____ _____    ______ ____
DOCKED: USER                              x       y       z     vdW  Elec       q    Type
DOCKED: USER                           _______ _______ _______ _____ _____    ______ ____
DOCKED: ROOT
DOCKED: ATOM      1  C   UNL     1      36.815  14.225 122.814 -0.48 -0.00    +0.000 C 
DOCKED: ENDROOT
DOCKED: BRANCH   1   2
DOCKED: ATOM      2  C   UNL     1      37.887  15.319 122.709 -0.37 -0.00    +0.000 C 
DOCKED: BRANCH   2   3
DOCKED: ATOM      3  C   UNL     1      39.205  14.747 122.179 -0.42 -0.00    +0.000 C 
DOCKED: BRANCH   3   6
DOCKED: ATOM      4  O   UNL     1      42.693  15.604 123.364 -1.08 +0.00    +0.000 OA
DOCKED: ATOM      5  N   UNL     1      41.644  14.905 122.870 -0.57 -0.00    +0.000 N 
DOCKED: ATOM      6  C   UNL     1      40.368  15.529 122.709 -0.40 -0.00    +0.000 C 
DOCKED: ATOM      7  O   UNL     1      40.209  16.732 123.050 -0.31 -0.00    +0.000 OA
DOCKED: ATOM      8  H   UNL     1      41.761  13.961 122.619 -0.07 +0.00    +0.000 HD
DOCKED: ENDBRANCH   3   6
DOCKED: ENDBRANCH   2   3
DOCKED: ENDBRANCH   1   2
DOCKED: BRANCH   1   9
DOCKED: ATOM      9  C   UNL     1      37.408  12.822 123.039 -0.59 -0.00    +0.000 C 
DOCKED: BRANCH   9  10
DOCKED: ATOM     10  C   UNL     1      36.374  11.711 123.295 -0.70 -0.00    +0.000 C 
DOCKED: BRANCH  10  11
DOCKED: ATOM     11  C   UNL     1      36.023  10.918 122.029 -0.57 -0.00    +0.000 C 
DOCKED: BRANCH  11  12
DOCKED: ATOM     12  C   UNL     1      36.577   9.527 122.113 -0.68 -0.00    +0.000 C 
DOCKED: ATOM     13  N   UNL     1      36.925   8.967 123.381 -0.60 -0.00    +0.000 N 
DOCKED: ATOM     14  O   UNL     1      37.441   7.717 123.460 -2.60 -0.00    +0.000 OA
DOCKED: ATOM     15  O   UNL     1      36.772   8.868 121.058 -2.63 -0.00    +0.000 OA
DOCKED: ATOM     16  H   UNL     1      36.789   9.492 124.202 -0.51 -0.00    +0.000 HD
DOCKED: ENDBRANCH  11  12
DOCKED: ENDBRANCH  10  11
DOCKED: ENDBRANCH   9  10
DOCKED: ENDBRANCH   1   9
DOCKED: TORSDOF 7
DOCKED: TER
DOCKED: ENDMDL
________________________________________________________________________________


	BEGINNING GENETIC ALGORITHM DOCKING 60 of 100
Run: 60 Seed: 1691475092 624061091 [ Run 60 of 100 GA/GALS ]
Beginning LAMARCKIAN GENETIC ALGORITHM (LGA), with a maximum of 2500000 energy evaluations.

Final-Value: -13.064


	FINAL GENETIC ALGORITHM DOCKED STATE
	_______________________________________________


Detailed state:  trans 37.814 13.361 124.252 quatxyzw 0.119516 -0.186633 -0.567421 -0.793043 center 0.016 0.633 0.013 ntor 7 -72.9094 -100.6840 80.9650 -113.7225 84.5810 -114.3301 1.7054
State:	 37.814  13.361 124.252   0.196 -0.306 -0.931 -75.058    -72.91 -100.68   80.96 -113.72   84.58 -114.33    1.71

DOCKED: MODEL       60
DOCKED: USER    Run = 60
DOCKED: USER    DPF = ligand_dock.biased.dpf
DOCKED: USER  
DOCKED: USER    Estimated Free Energy of Binding    =  -10.51 kcal/mol  [=(1)+(2)+(3)-(4)]
DOCKED: USER    Estimated Inhibition Constant, Ki   =   19.87 nM (nanomolar)  [Temperature = 298.15 K]
DOCKED: USER    
DOCKED: USER    (1) Final Intermolecular Energy     =  -12.60 kcal/mol
DOCKED: USER        vdW + Hbond + desolv Energy     =  -12.60 kcal/mol
DOCKED: USER        Electrostatic Energy            =   +0.00 kcal/mol
DOCKED: USER    (2) Final Total Internal Energy     =   -0.47 kcal/mol
DOCKED: USER    (3) Torsional Free Energy           =   +2.09 kcal/mol
DOCKED: USER    (4) Unbound System's Energy  [=(2)] =   -0.47 kcal/mol
DOCKED: USER    
DOCKED: USER    
DOCKED: USER    NEWDPF move ligand.pdbqt
DOCKED: USER    NEWDPF about 0.016000 0.633000 0.013000
DOCKED: USER    NEWDPF tran0 37.813982 13.361351 124.252023
DOCKED: USER    NEWDPF quaternion0 0.119516 -0.186633 -0.567421 -0.793043
DOCKED: USER    NEWDPF axisangle0 0.196196 -0.306375 -0.931473 -75.058305
DOCKED: USER    NEWDPF quat0 0.196196 -0.306375 -0.931473 -75.058305
DOCKED: USER    NEWDPF dihe0 -72.91 -100.68 80.96 -113.72 84.58 -114.33 1.71 
DOCKED: USER  keepresnum = 1 
DOCKED: USER  
DOCKED: REMARK  Name = 
DOCKED: REMARK  7 active torsions:
DOCKED: REMARK  status: ('A' for Active; 'I' for Inactive)
DOCKED: REMARK    1  A    between atoms: C_3  and  C_4
DOCKED: REMARK    2  A    between atoms: C_4  and  C_5
DOCKED: REMARK    3  A    between atoms: C_5  and  C_6
DOCKED: REMARK    4  A    between atoms: C_6  and  C_7
DOCKED: REMARK    5  A    between atoms: C_7  and  C_8
DOCKED: REMARK    6  A    between atoms: C_8  and  C_9
DOCKED: REMARK    7  A    between atoms: C_9  and  C_10
DOCKED: REMARK                            x       y       z     vdW  Elec       q    Type
DOCKED: REMARK                         _______ _______ _______ _____ _____    ______ ____
DOCKED: USER                              x       y       z     vdW  Elec       q    Type
DOCKED: USER                           _______ _______ _______ _____ _____    ______ ____
DOCKED: ROOT
DOCKED: ATOM      1  C   UNL     1      35.938  12.245 123.915 -0.59 -0.00    +0.000 C 
DOCKED: ENDROOT
DOCKED: BRANCH   1   2
DOCKED: ATOM      2  C   UNL     1      37.253  11.829 123.239 -0.57 -0.00    +0.000 C 
DOCKED: BRANCH   2   3
DOCKED: ATOM      3  C   UNL     1      36.987  11.159 121.888 -0.55 -0.00    +0.000 C 
DOCKED: BRANCH   3   6
DOCKED: ATOM      4  O   UNL     1      37.105   7.717 123.450 -2.69 -0.00    +0.000 OA
DOCKED: ATOM      5  N   UNL     1      37.056   9.063 123.321 -0.61 -0.00    +0.000 N 
DOCKED: ATOM      6  C   UNL     1      37.022   9.667 122.026 -0.60 -0.00    +0.000 C 
DOCKED: ATOM      7  O   UNL     1      37.062   8.945 120.994 -2.71 -0.00    +0.000 OA
DOCKED: ATOM      8  H   UNL     1      37.043   9.631 124.125 -0.55 -0.00    +0.000 HD
DOCKED: ENDBRANCH   3   6
DOCKED: ENDBRANCH   2   3
DOCKED: ENDBRANCH   1   2
DOCKED: BRANCH   1   9
DOCKED: ATOM      9  C   UNL     1      35.469  13.652 123.501 -0.40 -0.00    +0.000 C 
DOCKED: BRANCH   9  10
DOCKED: ATOM     10  C   UNL     1      36.455  14.789 123.824 -0.45 -0.00    +0.000 C 
DOCKED: BRANCH  10  11
DOCKED: ATOM     11  C   UNL     1      35.898  16.178 123.485 -0.40 -0.00    +0.000 C 
DOCKED: BRANCH  11  12
DOCKED: ATOM     12  C   UNL     1      34.858  16.583 124.487 -0.48 -0.00    +0.000 C 
DOCKED: ATOM     13  N   UNL     1      34.281  15.609 125.359 -0.51 -0.00    +0.000 N 
DOCKED: ATOM     14  O   UNL     1      33.330  15.967 126.253 -1.02 -0.00    +0.000 OA
DOCKED: ATOM     15  O   UNL     1      34.464  17.779 124.529 -0.40 -0.00    +0.000 OA
DOCKED: ATOM     16  H   UNL     1      34.577  14.672 125.310 -0.04 -0.00    +0.000 HD
DOCKED: ENDBRANCH  11  12
DOCKED: ENDBRANCH  10  11
DOCKED: ENDBRANCH   9  10
DOCKED: ENDBRANCH   1   9
DOCKED: TORSDOF 7
DOCKED: TER
DOCKED: ENDMDL
________________________________________________________________________________


	BEGINNING GENETIC ALGORITHM DOCKING 61 of 100
Run: 61 Seed: 968588649 735905666 [ Run 61 of 100 GA/GALS ]
Beginning LAMARCKIAN GENETIC ALGORITHM (LGA), with a maximum of 2500000 energy evaluations.

Final-Value: -12.180


	FINAL GENETIC ALGORITHM DOCKED STATE
	_______________________________________________


Detailed state:  trans 34.672 14.976 122.403 quatxyzw -0.151059 0.626565 -0.558427 0.522261 center 0.016 0.633 0.013 ntor 7 40.6990 -17.1189 -15.1757 -11.2272 -176.7011 159.1289 -125.8007
State:	 34.672  14.976 122.403  -0.177  0.735 -0.655 117.032     40.70  -17.12  -15.18  -11.23 -176.70  159.13 -125.80

DOCKED: MODEL       61
DOCKED: USER    Run = 61
DOCKED: USER    DPF = ligand_dock.biased.dpf
DOCKED: USER  
DOCKED: USER    Estimated Free Energy of Binding    =   -9.67 kcal/mol  [=(1)+(2)+(3)-(4)]
DOCKED: USER    Estimated Inhibition Constant, Ki   =   81.34 nM (nanomolar)  [Temperature = 298.15 K]
DOCKED: USER    
DOCKED: USER    (1) Final Intermolecular Energy     =  -11.76 kcal/mol
DOCKED: USER        vdW + Hbond + desolv Energy     =  -11.76 kcal/mol
DOCKED: USER        Electrostatic Energy            =   +0.00 kcal/mol
DOCKED: USER    (2) Final Total Internal Energy     =   -0.42 kcal/mol
DOCKED: USER    (3) Torsional Free Energy           =   +2.09 kcal/mol
DOCKED: USER    (4) Unbound System's Energy  [=(2)] =   -0.42 kcal/mol
DOCKED: USER    
DOCKED: USER    
DOCKED: USER    NEWDPF move ligand.pdbqt
DOCKED: USER    NEWDPF about 0.016000 0.633000 0.013000
DOCKED: USER    NEWDPF tran0 34.671913 14.976319 122.403258
DOCKED: USER    NEWDPF quaternion0 -0.151059 0.626565 -0.558427 0.522261
DOCKED: USER    NEWDPF axisangle0 -0.177136 0.734728 -0.654827 117.031865
DOCKED: USER    NEWDPF quat0 -0.177136 0.734728 -0.654827 117.031865
DOCKED: USER    NEWDPF dihe0 40.70 -17.12 -15.18 -11.23 -176.70 159.13 -125.80 
DOCKED: USER  keepresnum = 1 
DOCKED: USER  
DOCKED: REMARK  Name = 
DOCKED: REMARK  7 active torsions:
DOCKED: REMARK  status: ('A' for Active; 'I' for Inactive)
DOCKED: REMARK    1  A    between atoms: C_3  and  C_4
DOCKED: REMARK    2  A    between atoms: C_4  and  C_5
DOCKED: REMARK    3  A    between atoms: C_5  and  C_6
DOCKED: REMARK    4  A    between atoms: C_6  and  C_7
DOCKED: REMARK    5  A    between atoms: C_7  and  C_8
DOCKED: REMARK    6  A    between atoms: C_8  and  C_9
DOCKED: REMARK    7  A    between atoms: C_9  and  C_10
DOCKED: REMARK                            x       y       z     vdW  Elec       q    Type
DOCKED: REMARK                         _______ _______ _______ _____ _____    ______ ____
DOCKED: USER                              x       y       z     vdW  Elec       q    Type
DOCKED: USER                           _______ _______ _______ _____ _____    ______ ____
DOCKED: ROOT
DOCKED: ATOM      1  C   UNL     1      35.875  14.050 124.007 -0.52 -0.00    +0.000 C 
DOCKED: ENDROOT
DOCKED: BRANCH   1   2
DOCKED: ATOM      2  C   UNL     1      35.627  15.565 123.962 -0.49 -0.00    +0.000 C 
DOCKED: BRANCH   2   3
DOCKED: ATOM      3  C   UNL     1      35.982  16.138 122.586 -0.32 -0.00    +0.000 C 
DOCKED: BRANCH   3   6
DOCKED: ATOM      4  O   UNL     1      35.785  19.867 121.987 -0.73 -0.00    +0.000 OA
DOCKED: ATOM      5  N   UNL     1      36.284  18.614 122.109 -0.17 -0.00    +0.000 N 
DOCKED: ATOM      6  C   UNL     1      35.423  17.520 122.433 -0.31 -0.00    +0.000 C 
DOCKED: ATOM      7  O   UNL     1      34.195  17.722 122.629 -0.44 -0.00    +0.000 OA
DOCKED: ATOM      8  H   UNL     1      37.245  18.456 121.974 +0.00 -0.00    +0.000 HD
DOCKED: ENDBRANCH   3   6
DOCKED: ENDBRANCH   2   3
DOCKED: ENDBRANCH   1   2
DOCKED: BRANCH   1   9
DOCKED: ATOM      9  C   UNL     1      36.651  13.531 122.782 -0.53 -0.00    +0.000 C 
DOCKED: BRANCH   9  10
DOCKED: ATOM     10  C   UNL     1      37.076  12.054 122.859 -0.63 -0.00    +0.000 C 
DOCKED: BRANCH  10  11
DOCKED: ATOM     11  C   UNL     1      36.115  11.116 122.116 -0.61 -0.00    +0.000 C 
DOCKED: BRANCH  11  12
DOCKED: ATOM     12  C   UNL     1      36.629   9.708 122.150 -0.68 -0.00    +0.000 C 
DOCKED: ATOM     13  N   UNL     1      36.667   8.985 123.383 -0.58 -0.00    +0.000 N 
DOCKED: ATOM     14  O   UNL     1      37.145   7.719 123.421 -2.66 -0.00    +0.000 OA
DOCKED: ATOM     15  O   UNL     1      37.065   9.176 121.095 -2.73 -0.00    +0.000 OA
DOCKED: ATOM     16  H   UNL     1      36.343   9.410 124.209 -0.36 -0.00    +0.000 HD
DOCKED: ENDBRANCH  11  12
DOCKED: ENDBRANCH  10  11
DOCKED: ENDBRANCH   9  10
DOCKED: ENDBRANCH   1   9
DOCKED: TORSDOF 7
DOCKED: TER
DOCKED: ENDMDL
________________________________________________________________________________


	BEGINNING GENETIC ALGORITHM DOCKING 62 of 100
Run: 62 Seed: 1442430496 288192350 [ Run 62 of 100 GA/GALS ]
Beginning LAMARCKIAN GENETIC ALGORITHM (LGA), with a maximum of 2500000 energy evaluations.

Final-Value: -13.131


	FINAL GENETIC ALGORITHM DOCKED STATE
	_______________________________________________


Detailed state:  trans 38.175 11.142 122.164 quatxyzw 0.670232 0.055950 0.698669 0.243967 center 0.016 0.633 0.013 ntor 7 -44.8177 168.7810 -52.3762 113.8578 179.9916 164.3192 -154.0263
State:	 38.175  11.142 122.164   0.691  0.058  0.720 151.758    -44.82  168.78  -52.38  113.86  179.99  164.32 -154.03

DOCKED: MODEL       62
DOCKED: USER    Run = 62
DOCKED: USER    DPF = ligand_dock.biased.dpf
DOCKED: USER  
DOCKED: USER    Estimated Free Energy of Binding    =  -10.44 kcal/mol  [=(1)+(2)+(3)-(4)]
DOCKED: USER    Estimated Inhibition Constant, Ki   =   22.42 nM (nanomolar)  [Temperature = 298.15 K]
DOCKED: USER    
DOCKED: USER    (1) Final Intermolecular Energy     =  -12.52 kcal/mol
DOCKED: USER        vdW + Hbond + desolv Energy     =  -12.52 kcal/mol
DOCKED: USER        Electrostatic Energy            =   +0.00 kcal/mol
DOCKED: USER    (2) Final Total Internal Energy     =   -0.61 kcal/mol
DOCKED: USER    (3) Torsional Free Energy           =   +2.09 kcal/mol
DOCKED: USER    (4) Unbound System's Energy  [=(2)] =   -0.61 kcal/mol
DOCKED: USER    
DOCKED: USER    
DOCKED: USER    NEWDPF move ligand.pdbqt
DOCKED: USER    NEWDPF about 0.016000 0.633000 0.013000
DOCKED: USER    NEWDPF tran0 38.174981 11.142125 122.163652
DOCKED: USER    NEWDPF quaternion0 0.670232 0.055950 0.698669 0.243967
DOCKED: USER    NEWDPF axisangle0 0.691115 0.057693 0.720438 151.758405
DOCKED: USER    NEWDPF quat0 0.691115 0.057693 0.720438 151.758405
DOCKED: USER    NEWDPF dihe0 -44.82 168.78 -52.38 113.86 179.99 164.32 -154.03 
DOCKED: USER  keepresnum = 1 
DOCKED: USER  
DOCKED: REMARK  Name = 
DOCKED: REMARK  7 active torsions:
DOCKED: REMARK  status: ('A' for Active; 'I' for Inactive)
DOCKED: REMARK    1  A    between atoms: C_3  and  C_4
DOCKED: REMARK    2  A    between atoms: C_4  and  C_5
DOCKED: REMARK    3  A    between atoms: C_5  and  C_6
DOCKED: REMARK    4  A    between atoms: C_6  and  C_7
DOCKED: REMARK    5  A    between atoms: C_7  and  C_8
DOCKED: REMARK    6  A    between atoms: C_8  and  C_9
DOCKED: REMARK    7  A    between atoms: C_9  and  C_10
DOCKED: REMARK                            x       y       z     vdW  Elec       q    Type
DOCKED: REMARK                         _______ _______ _______ _____ _____    ______ ____
DOCKED: USER                              x       y       z     vdW  Elec       q    Type
DOCKED: USER                           _______ _______ _______ _____ _____    ______ ____
DOCKED: ROOT
DOCKED: ATOM      1  C   UNL     1      37.745  13.055 123.180 -0.50 -0.00    +0.000 C 
DOCKED: ENDROOT
DOCKED: BRANCH   1   2
DOCKED: ATOM      2  C   UNL     1      36.976  11.772 123.525 -0.68 -0.00    +0.000 C 
DOCKED: BRANCH   2   3
DOCKED: ATOM      3  C   UNL     1      36.349  11.154 122.272 -0.65 -0.00    +0.000 C 
DOCKED: BRANCH   3   6
DOCKED: ATOM      4  O   UNL     1      37.120   7.580 123.238 -2.48 -0.00    +0.000 OA
DOCKED: ATOM      5  N   UNL     1      36.774   8.885 123.332 -0.62 -0.00    +0.000 N 
DOCKED: ATOM      6  C   UNL     1      36.713   9.705 122.162 -0.68 -0.00    +0.000 C 
DOCKED: ATOM      7  O   UNL     1      37.005   9.218 121.037 -2.72 -0.00    +0.000 OA
DOCKED: ATOM      8  H   UNL     1      36.563   9.273 124.211 -0.44 -0.00    +0.000 HD
DOCKED: ENDBRANCH   3   6
DOCKED: ENDBRANCH   2   3
DOCKED: ENDBRANCH   1   2
DOCKED: BRANCH   1   9
DOCKED: ATOM      9  C   UNL     1      37.547  13.499 121.718 -0.47 -0.00    +0.000 C 
DOCKED: BRANCH   9  10
DOCKED: ATOM     10  C   UNL     1      37.505  15.022 121.501 -0.31 -0.00    +0.000 C 
DOCKED: BRANCH  10  11
DOCKED: ATOM     11  C   UNL     1      38.814  15.581 120.928 -0.24 -0.00    +0.000 C 
DOCKED: BRANCH  11  12
DOCKED: ATOM     12  C   UNL     1      39.961  15.268 121.843 -0.37 -0.00    +0.000 C 
DOCKED: ATOM     13  N   UNL     1      40.539  16.297 122.650 -0.30 -0.00    +0.000 N 
DOCKED: ATOM     14  O   UNL     1      41.585  16.023 123.465 -1.05 +0.00    +0.000 OA
DOCKED: ATOM     15  O   UNL     1      40.440  14.104 121.869 -1.02 +0.00    +0.000 OA
DOCKED: ATOM     16  H   UNL     1      40.175  17.210 122.612 +0.00 -0.00    +0.000 HD
DOCKED: ENDBRANCH  11  12
DOCKED: ENDBRANCH  10  11
DOCKED: ENDBRANCH   9  10
DOCKED: ENDBRANCH   1   9
DOCKED: TORSDOF 7
DOCKED: TER
DOCKED: ENDMDL
________________________________________________________________________________


	BEGINNING GENETIC ALGORITHM DOCKING 63 of 100
Run: 63 Seed: 1523088342 635108878 [ Run 63 of 100 GA/GALS ]
Beginning LAMARCKIAN GENETIC ALGORITHM (LGA), with a maximum of 2500000 energy evaluations.

Final-Value: -13.364


	FINAL GENETIC ALGORITHM DOCKED STATE
	_______________________________________________


Detailed state:  trans 36.849 12.199 121.532 quatxyzw -0.777781 0.288689 -0.401601 -0.387855 center 0.016 0.633 0.013 ntor 7 -83.2970 -129.4233 -34.0397 -8.1763 -110.1128 -95.0202 146.8721
State:	 36.849  12.199 121.532  -0.844  0.313 -0.436 -134.358    -83.30 -129.42  -34.04   -8.18 -110.11  -95.02  146.87

DOCKED: MODEL       63
DOCKED: USER    Run = 63
DOCKED: USER    DPF = ligand_dock.biased.dpf
DOCKED: USER  
DOCKED: USER    Estimated Free Energy of Binding    =  -10.83 kcal/mol  [=(1)+(2)+(3)-(4)]
DOCKED: USER    Estimated Inhibition Constant, Ki   =   11.45 nM (nanomolar)  [Temperature = 298.15 K]
DOCKED: USER    
DOCKED: USER    (1) Final Intermolecular Energy     =  -12.92 kcal/mol
DOCKED: USER        vdW + Hbond + desolv Energy     =  -12.92 kcal/mol
DOCKED: USER        Electrostatic Energy            =   +0.00 kcal/mol
DOCKED: USER    (2) Final Total Internal Energy     =   -0.44 kcal/mol
DOCKED: USER    (3) Torsional Free Energy           =   +2.09 kcal/mol
DOCKED: USER    (4) Unbound System's Energy  [=(2)] =   -0.44 kcal/mol
DOCKED: USER    
DOCKED: USER    
DOCKED: USER    NEWDPF move ligand.pdbqt
DOCKED: USER    NEWDPF about 0.016000 0.633000 0.013000
DOCKED: USER    NEWDPF tran0 36.848686 12.198665 121.532289
DOCKED: USER    NEWDPF quaternion0 -0.777781 0.288689 -0.401601 -0.387855
DOCKED: USER    NEWDPF axisangle0 -0.843837 0.313206 -0.435708 -134.357807
DOCKED: USER    NEWDPF quat0 -0.843837 0.313206 -0.435708 -134.357807
DOCKED: USER    NEWDPF dihe0 -83.30 -129.42 -34.04 -8.18 -110.11 -95.02 146.87 
DOCKED: USER  keepresnum = 1 
DOCKED: USER  
DOCKED: REMARK  Name = 
DOCKED: REMARK  7 active torsions:
DOCKED: REMARK  status: ('A' for Active; 'I' for Inactive)
DOCKED: REMARK    1  A    between atoms: C_3  and  C_4
DOCKED: REMARK    2  A    between atoms: C_4  and  C_5
DOCKED: REMARK    3  A    between atoms: C_5  and  C_6
DOCKED: REMARK    4  A    between atoms: C_6  and  C_7
DOCKED: REMARK    5  A    between atoms: C_7  and  C_8
DOCKED: REMARK    6  A    between atoms: C_8  and  C_9
DOCKED: REMARK    7  A    between atoms: C_9  and  C_10
DOCKED: REMARK                            x       y       z     vdW  Elec       q    Type
DOCKED: REMARK                         _______ _______ _______ _____ _____    ______ ____
DOCKED: USER                              x       y       z     vdW  Elec       q    Type
DOCKED: USER                           _______ _______ _______ _____ _____    ______ ____
DOCKED: ROOT
DOCKED: ATOM      1  C   UNL     1      37.783  13.146 123.295 -0.49 -0.00    +0.000 C 
DOCKED: ENDROOT
DOCKED: BRANCH   1   2
DOCKED: ATOM      2  C   UNL     1      37.015  11.821 123.408 -0.68 -0.00    +0.000 C 
DOCKED: BRANCH   2   3
DOCKED: ATOM      3  C   UNL     1      36.794  11.196 122.027 -0.60 -0.00    +0.000 C 
DOCKED: BRANCH   3   6
DOCKED: ATOM      4  O   UNL     1      37.066   7.707 123.459 -2.69 -0.00    +0.000 OA
DOCKED: ATOM      5  N   UNL     1      37.027   9.057 123.376 -0.60 -0.00    +0.000 N 
DOCKED: ATOM      6  C   UNL     1      36.818   9.701 122.117 -0.65 -0.00    +0.000 C 
DOCKED: ATOM      7  O   UNL     1      36.692   9.009 121.071 -2.61 -0.00    +0.000 OA
DOCKED: ATOM      8  H   UNL     1      37.142   9.600 124.189 -0.59 -0.00    +0.000 HD
DOCKED: ENDBRANCH   3   6
DOCKED: ENDBRANCH   2   3
DOCKED: ENDBRANCH   1   2
DOCKED: BRANCH   1   9
DOCKED: ATOM      9  C   UNL     1      36.898  14.315 122.823 -0.48 -0.00    +0.000 C 
DOCKED: BRANCH   9  10
DOCKED: ATOM     10  C   UNL     1      36.124  15.037 123.940 -0.46 -0.00    +0.000 C 
DOCKED: BRANCH  10  11
DOCKED: ATOM     11  C   UNL     1      34.874  15.765 123.427 -0.48 -0.00    +0.000 C 
DOCKED: BRANCH  11  12
DOCKED: ATOM     12  C   UNL     1      34.155  16.433 124.561 -0.50 -0.00    +0.000 C 
DOCKED: ATOM     13  N   UNL     1      33.958  15.740 125.796 -0.46 -0.00    +0.000 N 
DOCKED: ATOM     14  O   UNL     1      33.295  16.334 126.816 -1.13 -0.00    +0.000 OA
DOCKED: ATOM     15  O   UNL     1      33.690  17.593 124.408 -0.47 -0.00    +0.000 OA
DOCKED: ATOM     16  H   UNL     1      34.306  14.827 125.905 -0.04 -0.00    +0.000 HD
DOCKED: ENDBRANCH  11  12
DOCKED: ENDBRANCH  10  11
DOCKED: ENDBRANCH   9  10
DOCKED: ENDBRANCH   1   9
DOCKED: TORSDOF 7
DOCKED: TER
DOCKED: ENDMDL
________________________________________________________________________________


	BEGINNING GENETIC ALGORITHM DOCKING 64 of 100
Run: 64 Seed: 1249675742 130622295 [ Run 64 of 100 GA/GALS ]
Beginning LAMARCKIAN GENETIC ALGORITHM (LGA), with a maximum of 2500000 energy evaluations.

Final-Value: -12.729


	FINAL GENETIC ALGORITHM DOCKED STATE
	_______________________________________________


Detailed state:  trans 35.858 15.219 124.363 quatxyzw -0.388097 -0.049542 -0.387776 0.834599 center 0.016 0.633 0.013 ntor 7 -159.7144 -16.7335 -76.2249 4.2733 179.9801 -124.0737 -138.5169
State:	 35.858  15.219 124.363  -0.705 -0.090 -0.704 66.852   -159.71  -16.73  -76.22    4.27  179.98 -124.07 -138.52

DOCKED: MODEL       64
DOCKED: USER    Run = 64
DOCKED: USER    DPF = ligand_dock.biased.dpf
DOCKED: USER  
DOCKED: USER    Estimated Free Energy of Binding    =  -10.10 kcal/mol  [=(1)+(2)+(3)-(4)]
DOCKED: USER    Estimated Inhibition Constant, Ki   =   39.69 nM (nanomolar)  [Temperature = 298.15 K]
DOCKED: USER    
DOCKED: USER    (1) Final Intermolecular Energy     =  -12.19 kcal/mol
DOCKED: USER        vdW + Hbond + desolv Energy     =  -12.19 kcal/mol
DOCKED: USER        Electrostatic Energy            =   +0.00 kcal/mol
DOCKED: USER    (2) Final Total Internal Energy     =   -0.54 kcal/mol
DOCKED: USER    (3) Torsional Free Energy           =   +2.09 kcal/mol
DOCKED: USER    (4) Unbound System's Energy  [=(2)] =   -0.54 kcal/mol
DOCKED: USER    
DOCKED: USER    
DOCKED: USER    NEWDPF move ligand.pdbqt
DOCKED: USER    NEWDPF about 0.016000 0.633000 0.013000
DOCKED: USER    NEWDPF tran0 35.858461 15.219202 124.363324
DOCKED: USER    NEWDPF quaternion0 -0.388097 -0.049542 -0.387776 0.834599
DOCKED: USER    NEWDPF axisangle0 -0.704532 -0.089937 -0.703950 66.851714
DOCKED: USER    NEWDPF quat0 -0.704532 -0.089937 -0.703950 66.851714
DOCKED: USER    NEWDPF dihe0 -159.71 -16.73 -76.22 4.27 179.98 -124.07 -138.52 
DOCKED: USER  keepresnum = 1 
DOCKED: USER  
DOCKED: REMARK  Name = 
DOCKED: REMARK  7 active torsions:
DOCKED: REMARK  status: ('A' for Active; 'I' for Inactive)
DOCKED: REMARK    1  A    between atoms: C_3  and  C_4
DOCKED: REMARK    2  A    between atoms: C_4  and  C_5
DOCKED: REMARK    3  A    between atoms: C_5  and  C_6
DOCKED: REMARK    4  A    between atoms: C_6  and  C_7
DOCKED: REMARK    5  A    between atoms: C_7  and  C_8
DOCKED: REMARK    6  A    between atoms: C_8  and  C_9
DOCKED: REMARK    7  A    between atoms: C_9  and  C_10
DOCKED: REMARK                            x       y       z     vdW  Elec       q    Type
DOCKED: REMARK                         _______ _______ _______ _____ _____    ______ ____
DOCKED: USER                              x       y       z     vdW  Elec       q    Type
DOCKED: USER                           _______ _______ _______ _____ _____    ______ ____
DOCKED: ROOT
DOCKED: ATOM      1  C   UNL     1      37.646  14.406 123.354 -0.41 -0.00    +0.000 C 
DOCKED: ENDROOT
DOCKED: BRANCH   1   2
DOCKED: ATOM      2  C   UNL     1      37.213  15.867 123.167 -0.34 -0.00    +0.000 C 
DOCKED: BRANCH   2   3
DOCKED: ATOM      3  C   UNL     1      35.760  15.952 122.690 -0.32 -0.00    +0.000 C 
DOCKED: BRANCH   3   6
DOCKED: ATOM      4  O   UNL     1      33.669  15.819 125.837 -0.88 -0.00    +0.000 OA
DOCKED: ATOM      5  N   UNL     1      34.494  15.445 124.831 -0.56 -0.00    +0.000 N 
DOCKED: ATOM      6  C   UNL     1      34.863  16.376 123.812 -0.49 -0.00    +0.000 C 
DOCKED: ATOM      7  O   UNL     1      34.402  17.549 123.834 -0.42 -0.00    +0.000 OA
DOCKED: ATOM      8  H   UNL     1      34.842  14.525 124.801 -0.05 -0.00    +0.000 HD
DOCKED: ENDBRANCH   3   6
DOCKED: ENDBRANCH   2   3
DOCKED: ENDBRANCH   1   2
DOCKED: BRANCH   1   9
DOCKED: ATOM      9  C   UNL     1      36.596  13.399 122.850 -0.55 -0.00    +0.000 C 
DOCKED: BRANCH   9  10
DOCKED: ATOM     10  C   UNL     1      37.134  11.986 122.563 -0.58 -0.00    +0.000 C 
DOCKED: BRANCH  10  11
DOCKED: ATOM     11  C   UNL     1      36.027  10.988 122.196 -0.62 -0.00    +0.000 C 
DOCKED: BRANCH  11  12
DOCKED: ATOM     12  C   UNL     1      36.561   9.587 122.208 -0.69 -0.00    +0.000 C 
DOCKED: ATOM     13  N   UNL     1      36.943   8.973 123.441 -0.59 -0.00    +0.000 N 
DOCKED: ATOM     14  O   UNL     1      37.441   7.714 123.455 -2.60 -0.00    +0.000 OA
DOCKED: ATOM     15  O   UNL     1      36.711   8.966 121.123 -2.62 -0.00    +0.000 OA
DOCKED: ATOM     16  H   UNL     1      36.843   9.468 124.285 -0.46 -0.00    +0.000 HD
DOCKED: ENDBRANCH  11  12
DOCKED: ENDBRANCH  10  11
DOCKED: ENDBRANCH   9  10
DOCKED: ENDBRANCH   1   9
DOCKED: TORSDOF 7
DOCKED: TER
DOCKED: ENDMDL
________________________________________________________________________________


	BEGINNING GENETIC ALGORITHM DOCKING 65 of 100
Run: 65 Seed: 1202628909 720031120 [ Run 65 of 100 GA/GALS ]
Beginning LAMARCKIAN GENETIC ALGORITHM (LGA), with a maximum of 2500000 energy evaluations.

Final-Value: -12.495


	FINAL GENETIC ALGORITHM DOCKED STATE
	_______________________________________________


Detailed state:  trans 36.934 15.753 121.810 quatxyzw 0.091123 -0.116023 -0.223159 0.963553 center 0.016 0.633 0.013 ntor 7 168.8524 -37.6036 77.0031 -22.3378 166.6288 -69.7353 -179.8444
State:	 36.934  15.753 121.810   0.341 -0.434 -0.834 31.033    168.85  -37.60   77.00  -22.34  166.63  -69.74 -179.84

DOCKED: MODEL       65
DOCKED: USER    Run = 65
DOCKED: USER    DPF = ligand_dock.biased.dpf
DOCKED: USER  
DOCKED: USER    Estimated Free Energy of Binding    =   -9.59 kcal/mol  [=(1)+(2)+(3)-(4)]
DOCKED: USER    Estimated Inhibition Constant, Ki   =   92.86 nM (nanomolar)  [Temperature = 298.15 K]
DOCKED: USER    
DOCKED: USER    (1) Final Intermolecular Energy     =  -11.68 kcal/mol
DOCKED: USER        vdW + Hbond + desolv Energy     =  -11.68 kcal/mol
DOCKED: USER        Electrostatic Energy            =   +0.00 kcal/mol
DOCKED: USER    (2) Final Total Internal Energy     =   -0.81 kcal/mol
DOCKED: USER    (3) Torsional Free Energy           =   +2.09 kcal/mol
DOCKED: USER    (4) Unbound System's Energy  [=(2)] =   -0.81 kcal/mol
DOCKED: USER    
DOCKED: USER    
DOCKED: USER    NEWDPF move ligand.pdbqt
DOCKED: USER    NEWDPF about 0.016000 0.633000 0.013000
DOCKED: USER    NEWDPF tran0 36.934426 15.753082 121.810346
DOCKED: USER    NEWDPF quaternion0 0.091123 -0.116023 -0.223159 0.963553
DOCKED: USER    NEWDPF axisangle0 0.340626 -0.433705 -0.834190 31.033020
DOCKED: USER    NEWDPF quat0 0.340626 -0.433705 -0.834190 31.033020
DOCKED: USER    NEWDPF dihe0 168.85 -37.60 77.00 -22.34 166.63 -69.74 -179.84 
DOCKED: USER  keepresnum = 1 
DOCKED: USER  
DOCKED: REMARK  Name = 
DOCKED: REMARK  7 active torsions:
DOCKED: REMARK  status: ('A' for Active; 'I' for Inactive)
DOCKED: REMARK    1  A    between atoms: C_3  and  C_4
DOCKED: REMARK    2  A    between atoms: C_4  and  C_5
DOCKED: REMARK    3  A    between atoms: C_5  and  C_6
DOCKED: REMARK    4  A    between atoms: C_6  and  C_7
DOCKED: REMARK    5  A    between atoms: C_7  and  C_8
DOCKED: REMARK    6  A    between atoms: C_8  and  C_9
DOCKED: REMARK    7  A    between atoms: C_9  and  C_10
DOCKED: REMARK                            x       y       z     vdW  Elec       q    Type
DOCKED: REMARK                         _______ _______ _______ _____ _____    ______ ____
DOCKED: USER                              x       y       z     vdW  Elec       q    Type
DOCKED: USER                           _______ _______ _______ _____ _____    ______ ____
DOCKED: ROOT
DOCKED: ATOM      1  C   UNL     1      38.377  14.191 122.409 -0.46 -0.00    +0.000 C 
DOCKED: ENDROOT
DOCKED: BRANCH   1   2
DOCKED: ATOM      2  C   UNL     1      38.414  14.826 121.011 -0.32 -0.00    +0.000 C 
DOCKED: BRANCH   2   3
DOCKED: ATOM      3  C   UNL     1      37.183  14.422 120.193 -0.30 -0.00    +0.000 C 
DOCKED: BRANCH   3   6
DOCKED: ATOM      4  O   UNL     1      37.912  12.680 116.917 -0.49 -0.00    +0.000 OA
DOCKED: ATOM      5  N   UNL     1      37.610  13.650 117.812 -0.36 -0.00    +0.000 N 
DOCKED: ATOM      6  C   UNL     1      37.535  13.351 119.207 -0.41 -0.00    +0.000 C 
DOCKED: ATOM      7  O   UNL     1      37.729  12.172 119.609 -0.54 -0.00    +0.000 OA
DOCKED: ATOM      8  H   UNL     1      37.442  14.568 117.500 -0.01 -0.00    +0.000 HD
DOCKED: ENDBRANCH   3   6
DOCKED: ENDBRANCH   2   3
DOCKED: ENDBRANCH   1   2
DOCKED: BRANCH   1   9
DOCKED: ATOM      9  C   UNL     1      37.063  13.440 122.693 -0.54 -0.00    +0.000 C 
DOCKED: BRANCH   9  10
DOCKED: ATOM     10  C   UNL     1      37.222  11.935 122.973 -0.58 -0.00    +0.000 C 
DOCKED: BRANCH  10  11
DOCKED: ATOM     11  C   UNL     1      36.254  11.069 122.155 -0.63 -0.00    +0.000 C 
DOCKED: BRANCH  11  12
DOCKED: ATOM     12  C   UNL     1      36.682   9.633 122.187 -0.69 -0.00    +0.000 C 
DOCKED: ATOM     13  N   UNL     1      37.025   9.011 123.428 -0.59 -0.00    +0.000 N 
DOCKED: ATOM     14  O   UNL     1      37.428   7.719 123.459 -2.61 -0.00    +0.000 OA
DOCKED: ATOM     15  O   UNL     1      36.778   8.985 121.111 -2.64 -0.00    +0.000 OA
DOCKED: ATOM     16  H   UNL     1      36.968   9.525 124.264 -0.53 -0.00    +0.000 HD
DOCKED: ENDBRANCH  11  12
DOCKED: ENDBRANCH  10  11
DOCKED: ENDBRANCH   9  10
DOCKED: ENDBRANCH   1   9
DOCKED: TORSDOF 7
DOCKED: TER
DOCKED: ENDMDL
________________________________________________________________________________


	BEGINNING GENETIC ALGORITHM DOCKING 66 of 100
Run: 66 Seed: 1639822688 532983610 [ Run 66 of 100 GA/GALS ]
Beginning LAMARCKIAN GENETIC ALGORITHM (LGA), with a maximum of 2500000 energy evaluations.

Final-Value: -13.019


	FINAL GENETIC ALGORITHM DOCKED STATE
	_______________________________________________


Detailed state:  trans 39.331 14.020 120.862 quatxyzw 0.681472 0.672044 -0.044671 0.286282 center 0.016 0.633 0.013 ntor 7 -165.2711 6.5208 5.0254 -74.3018 -100.1919 -156.7542 125.5453
State:	 39.331  14.020 120.862   0.711  0.701 -0.047 146.729   -165.27    6.52    5.03  -74.30 -100.19 -156.75  125.55

DOCKED: MODEL       66
DOCKED: USER    Run = 66
DOCKED: USER    DPF = ligand_dock.biased.dpf
DOCKED: USER  
DOCKED: USER    Estimated Free Energy of Binding    =  -10.47 kcal/mol  [=(1)+(2)+(3)-(4)]
DOCKED: USER    Estimated Inhibition Constant, Ki   =   21.16 nM (nanomolar)  [Temperature = 298.15 K]
DOCKED: USER    
DOCKED: USER    (1) Final Intermolecular Energy     =  -12.56 kcal/mol
DOCKED: USER        vdW + Hbond + desolv Energy     =  -12.56 kcal/mol
DOCKED: USER        Electrostatic Energy            =   +0.00 kcal/mol
DOCKED: USER    (2) Final Total Internal Energy     =   -0.46 kcal/mol
DOCKED: USER    (3) Torsional Free Energy           =   +2.09 kcal/mol
DOCKED: USER    (4) Unbound System's Energy  [=(2)] =   -0.46 kcal/mol
DOCKED: USER    
DOCKED: USER    
DOCKED: USER    NEWDPF move ligand.pdbqt
DOCKED: USER    NEWDPF about 0.016000 0.633000 0.013000
DOCKED: USER    NEWDPF tran0 39.331102 14.020480 120.862211
DOCKED: USER    NEWDPF quaternion0 0.681472 0.672044 -0.044671 0.286282
DOCKED: USER    NEWDPF axisangle0 0.711241 0.701401 -0.046623 146.729053
DOCKED: USER    NEWDPF quat0 0.711241 0.701401 -0.046623 146.729053
DOCKED: USER    NEWDPF dihe0 -165.27 6.52 5.03 -74.30 -100.19 -156.75 125.55 
DOCKED: USER  keepresnum = 1 
DOCKED: USER  
DOCKED: REMARK  Name = 
DOCKED: REMARK  7 active torsions:
DOCKED: REMARK  status: ('A' for Active; 'I' for Inactive)
DOCKED: REMARK    1  A    between atoms: C_3  and  C_4
DOCKED: REMARK    2  A    between atoms: C_4  and  C_5
DOCKED: REMARK    3  A    between atoms: C_5  and  C_6
DOCKED: REMARK    4  A    between atoms: C_6  and  C_7
DOCKED: REMARK    5  A    between atoms: C_7  and  C_8
DOCKED: REMARK    6  A    between atoms: C_8  and  C_9
DOCKED: REMARK    7  A    between atoms: C_9  and  C_10
DOCKED: REMARK                            x       y       z     vdW  Elec       q    Type
DOCKED: REMARK                         _______ _______ _______ _____ _____    ______ ____
DOCKED: USER                              x       y       z     vdW  Elec       q    Type
DOCKED: USER                           _______ _______ _______ _____ _____    ______ ____
DOCKED: ROOT
DOCKED: ATOM      1  C   UNL     1      37.285  14.474 121.560 -0.35 -0.00    +0.000 C 
DOCKED: ENDROOT
DOCKED: BRANCH   1   2
DOCKED: ATOM      2  C   UNL     1      38.514  14.753 122.438 -0.42 -0.00    +0.000 C 
DOCKED: BRANCH   2   3
DOCKED: ATOM      3  C   UNL     1      39.768  14.951 121.580 -0.36 -0.00    +0.000 C 
DOCKED: BRANCH   3   6
DOCKED: ATOM      4  O   UNL     1      42.414  16.457 123.823 -1.02 +0.00    +0.000 OA
DOCKED: ATOM      5  N   UNL     1      41.308  16.333 123.052 -0.38 -0.00    +0.000 N 
DOCKED: ATOM      6  C   UNL     1      40.982  15.079 122.448 -0.50 -0.00    +0.000 C 
DOCKED: ATOM      7  O   UNL     1      41.740  14.086 122.613 -0.98 -0.00    +0.000 OA
DOCKED: ATOM      8  H   UNL     1      40.724  17.111 122.907 -0.00 -0.00    +0.000 HD
DOCKED: ENDBRANCH   3   6
DOCKED: ENDBRANCH   2   3
DOCKED: ENDBRANCH   1   2
DOCKED: BRANCH   1   9
DOCKED: ATOM      9  C   UNL     1      37.110  12.980 121.228 -0.49 -0.00    +0.000 C 
DOCKED: BRANCH   9  10
DOCKED: ATOM     10  C   UNL     1      36.832  12.073 122.439 -0.61 -0.00    +0.000 C 
DOCKED: BRANCH  10  11
DOCKED: ATOM     11  C   UNL     1      35.818  10.962 122.134 -0.56 -0.00    +0.000 C 
DOCKED: BRANCH  11  12
DOCKED: ATOM     12  C   UNL     1      36.482   9.619 122.187 -0.68 -0.00    +0.000 C 
DOCKED: ATOM     13  N   UNL     1      36.496   8.871 123.405 -0.58 -0.00    +0.000 N 
DOCKED: ATOM     14  O   UNL     1      37.109   7.665 123.462 -2.65 -0.00    +0.000 OA
DOCKED: ATOM     15  O   UNL     1      37.063   9.168 121.164 -2.73 -0.00    +0.000 OA
DOCKED: ATOM     16  H   UNL     1      36.058   9.235 124.207 -0.25 -0.00    +0.000 HD
DOCKED: ENDBRANCH  11  12
DOCKED: ENDBRANCH  10  11
DOCKED: ENDBRANCH   9  10
DOCKED: ENDBRANCH   1   9
DOCKED: TORSDOF 7
DOCKED: TER
DOCKED: ENDMDL
________________________________________________________________________________


	BEGINNING GENETIC ALGORITHM DOCKING 67 of 100
Run: 67 Seed: 1939437614 411048320 [ Run 67 of 100 GA/GALS ]
Beginning LAMARCKIAN GENETIC ALGORITHM (LGA), with a maximum of 2500000 energy evaluations.

Final-Value: -12.251


	FINAL GENETIC ALGORITHM DOCKED STATE
	_______________________________________________


Detailed state:  trans 35.289 12.685 120.146 quatxyzw -0.744493 0.632157 -0.175158 -0.124207 center 0.016 0.633 0.013 ntor 7 123.4010 8.0089 72.4351 113.4977 55.0116 -9.9389 177.2463
State:	 35.289  12.685 120.146  -0.750  0.637 -0.177 -165.730    123.40    8.01   72.44  113.50   55.01   -9.94  177.25

DOCKED: MODEL       67
DOCKED: USER    Run = 67
DOCKED: USER    DPF = ligand_dock.biased.dpf
DOCKED: USER  
DOCKED: USER    Estimated Free Energy of Binding    =   -9.36 kcal/mol  [=(1)+(2)+(3)-(4)]
DOCKED: USER    Estimated Inhibition Constant, Ki   =  138.79 nM (nanomolar)  [Temperature = 298.15 K]
DOCKED: USER    
DOCKED: USER    (1) Final Intermolecular Energy     =  -11.44 kcal/mol
DOCKED: USER        vdW + Hbond + desolv Energy     =  -11.44 kcal/mol
DOCKED: USER        Electrostatic Energy            =   +0.00 kcal/mol
DOCKED: USER    (2) Final Total Internal Energy     =   -0.81 kcal/mol
DOCKED: USER    (3) Torsional Free Energy           =   +2.09 kcal/mol
DOCKED: USER    (4) Unbound System's Energy  [=(2)] =   -0.81 kcal/mol
DOCKED: USER    
DOCKED: USER    
DOCKED: USER    NEWDPF move ligand.pdbqt
DOCKED: USER    NEWDPF about 0.016000 0.633000 0.013000
DOCKED: USER    NEWDPF tran0 35.289061 12.685227 120.146130
DOCKED: USER    NEWDPF quaternion0 -0.744493 0.632157 -0.175158 -0.124207
DOCKED: USER    NEWDPF axisangle0 -0.750303 0.637090 -0.176525 -165.730020
DOCKED: USER    NEWDPF quat0 -0.750303 0.637090 -0.176525 -165.730020
DOCKED: USER    NEWDPF dihe0 123.40 8.01 72.44 113.50 55.01 -9.94 177.25 
DOCKED: USER  keepresnum = 1 
DOCKED: USER  
DOCKED: REMARK  Name = 
DOCKED: REMARK  7 active torsions:
DOCKED: REMARK  status: ('A' for Active; 'I' for Inactive)
DOCKED: REMARK    1  A    between atoms: C_3  and  C_4
DOCKED: REMARK    2  A    between atoms: C_4  and  C_5
DOCKED: REMARK    3  A    between atoms: C_5  and  C_6
DOCKED: REMARK    4  A    between atoms: C_6  and  C_7
DOCKED: REMARK    5  A    between atoms: C_7  and  C_8
DOCKED: REMARK    6  A    between atoms: C_8  and  C_9
DOCKED: REMARK    7  A    between atoms: C_9  and  C_10
DOCKED: REMARK                            x       y       z     vdW  Elec       q    Type
DOCKED: REMARK                         _______ _______ _______ _____ _____    ______ ____
DOCKED: USER                              x       y       z     vdW  Elec       q    Type
DOCKED: USER                           _______ _______ _______ _____ _____    ______ ____
DOCKED: ROOT
DOCKED: ATOM      1  C   UNL     1      37.444  12.569 120.613 -0.52 -0.00    +0.000 C 
DOCKED: ENDROOT
DOCKED: BRANCH   1   2
DOCKED: ATOM      2  C   UNL     1      36.397  11.840 121.467 -0.48 -0.00    +0.000 C 
DOCKED: BRANCH   2   3
DOCKED: ATOM      3  C   UNL     1      37.062  11.078 122.618 -0.59 -0.00    +0.000 C 
DOCKED: BRANCH   3   6
DOCKED: ATOM      4  O   UNL     1      37.063   7.342 123.200 -2.36 -0.00    +0.000 OA
DOCKED: ATOM      5  N   UNL     1      37.061   8.675 123.437 -0.65 -0.00    +0.000 N 
DOCKED: ATOM      6  C   UNL     1      37.045   9.604 122.351 -0.61 -0.00    +0.000 C 
DOCKED: ATOM      7  O   UNL     1      37.055   9.184 121.164 -2.73 -0.00    +0.000 OA
DOCKED: ATOM      8  H   UNL     1      37.070   9.006 124.363 -0.52 -0.00    +0.000 HD
DOCKED: ENDBRANCH   3   6
DOCKED: ENDBRANCH   2   3
DOCKED: ENDBRANCH   1   2
DOCKED: BRANCH   1   9
DOCKED: ATOM      9  C   UNL     1      37.269  14.099 120.624 -0.34 -0.00    +0.000 C 
DOCKED: BRANCH   9  10
DOCKED: ATOM     10  C   UNL     1      38.433  14.883 121.256 -0.33 -0.00    +0.000 C 
DOCKED: BRANCH  10  11
DOCKED: ATOM     11  C   UNL     1      38.502  14.725 122.781 -0.42 -0.00    +0.000 C 
DOCKED: BRANCH  11  12
DOCKED: ATOM     12  C   UNL     1      37.227  15.197 123.414 -0.40 -0.00    +0.000 C 
DOCKED: ATOM     13  N   UNL     1      36.173  14.272 123.686 -0.51 -0.00    +0.000 N 
DOCKED: ATOM     14  O   UNL     1      35.014  14.697 124.243 -0.64 -0.00    +0.000 OA
DOCKED: ATOM     15  O   UNL     1      37.072  16.421 123.668 -0.34 -0.00    +0.000 OA
DOCKED: ATOM     16  H   UNL     1      36.290  13.320 123.469 -0.03 -0.00    +0.000 HD
DOCKED: ENDBRANCH  11  12
DOCKED: ENDBRANCH  10  11
DOCKED: ENDBRANCH   9  10
DOCKED: ENDBRANCH   1   9
DOCKED: TORSDOF 7
DOCKED: TER
DOCKED: ENDMDL
________________________________________________________________________________


	BEGINNING GENETIC ALGORITHM DOCKING 68 of 100
Run: 68 Seed: 6617020 1263692106 [ Run 68 of 100 GA/GALS ]
Beginning LAMARCKIAN GENETIC ALGORITHM (LGA), with a maximum of 2500000 energy evaluations.

Final-Value: -12.966


	FINAL GENETIC ALGORITHM DOCKED STATE
	_______________________________________________


Detailed state:  trans 37.193 12.337 125.198 quatxyzw 0.262273 -0.471087 -0.775506 -0.328452 center 0.016 0.633 0.013 ntor 7 -98.9909 19.4362 23.2734 178.6687 83.0062 -40.2800 -148.9595
State:	 37.193  12.337 125.198   0.278 -0.499 -0.821 -141.650    -98.99   19.44   23.27  178.67   83.01  -40.28 -148.96

DOCKED: MODEL       68
DOCKED: USER    Run = 68
DOCKED: USER    DPF = ligand_dock.biased.dpf
DOCKED: USER  
DOCKED: USER    Estimated Free Energy of Binding    =  -10.03 kcal/mol  [=(1)+(2)+(3)-(4)]
DOCKED: USER    Estimated Inhibition Constant, Ki   =   44.53 nM (nanomolar)  [Temperature = 298.15 K]
DOCKED: USER    
DOCKED: USER    (1) Final Intermolecular Energy     =  -12.12 kcal/mol
DOCKED: USER        vdW + Hbond + desolv Energy     =  -12.12 kcal/mol
DOCKED: USER        Electrostatic Energy            =   +0.00 kcal/mol
DOCKED: USER    (2) Final Total Internal Energy     =   -0.85 kcal/mol
DOCKED: USER    (3) Torsional Free Energy           =   +2.09 kcal/mol
DOCKED: USER    (4) Unbound System's Energy  [=(2)] =   -0.85 kcal/mol
DOCKED: USER    
DOCKED: USER    
DOCKED: USER    NEWDPF move ligand.pdbqt
DOCKED: USER    NEWDPF about 0.016000 0.633000 0.013000
DOCKED: USER    NEWDPF tran0 37.193099 12.336634 125.198293
DOCKED: USER    NEWDPF quaternion0 0.262273 -0.471087 -0.775506 -0.328452
DOCKED: USER    NEWDPF axisangle0 0.277679 -0.498758 -0.821058 -141.650320
DOCKED: USER    NEWDPF quat0 0.277679 -0.498758 -0.821058 -141.650320
DOCKED: USER    NEWDPF dihe0 -98.99 19.44 23.27 178.67 83.01 -40.28 -148.96 
DOCKED: USER  keepresnum = 1 
DOCKED: USER  
DOCKED: REMARK  Name = 
DOCKED: REMARK  7 active torsions:
DOCKED: REMARK  status: ('A' for Active; 'I' for Inactive)
DOCKED: REMARK    1  A    between atoms: C_3  and  C_4
DOCKED: REMARK    2  A    between atoms: C_4  and  C_5
DOCKED: REMARK    3  A    between atoms: C_5  and  C_6
DOCKED: REMARK    4  A    between atoms: C_6  and  C_7
DOCKED: REMARK    5  A    between atoms: C_7  and  C_8
DOCKED: REMARK    6  A    between atoms: C_8  and  C_9
DOCKED: REMARK    7  A    between atoms: C_9  and  C_10
DOCKED: REMARK                            x       y       z     vdW  Elec       q    Type
DOCKED: REMARK                         _______ _______ _______ _____ _____    ______ ____
DOCKED: USER                              x       y       z     vdW  Elec       q    Type
DOCKED: USER                           _______ _______ _______ _____ _____    ______ ____
DOCKED: ROOT
DOCKED: ATOM      1  C   UNL     1      35.997  12.971 123.454 -0.62 -0.00    +0.000 C 
DOCKED: ENDROOT
DOCKED: BRANCH   1   2
DOCKED: ATOM      2  C   UNL     1      36.607  11.565 123.541 -0.70 -0.00    +0.000 C 
DOCKED: BRANCH   2   3
DOCKED: ATOM      3  C   UNL     1      36.893  11.004 122.144 -0.59 -0.00    +0.000 C 
DOCKED: BRANCH   3   6
DOCKED: ATOM      4  O   UNL     1      37.067   7.460 123.450 -2.51 -0.00    +0.000 OA
DOCKED: ATOM      5  N   UNL     1      37.027   8.812 123.420 -0.62 -0.00    +0.000 N 
DOCKED: ATOM      6  C   UNL     1      36.917   9.506 122.175 -0.65 -0.00    +0.000 C 
DOCKED: ATOM      7  O   UNL     1      36.880   8.858 121.095 -2.66 -0.00    +0.000 OA
DOCKED: ATOM      8  H   UNL     1      37.073   9.321 124.260 -0.56 -0.00    +0.000 HD
DOCKED: ENDBRANCH   3   6
DOCKED: ENDBRANCH   2   3
DOCKED: ENDBRANCH   1   2
DOCKED: BRANCH   1   9
DOCKED: ATOM      9  C   UNL     1      37.058  14.088 123.448 -0.51 -0.00    +0.000 C 
DOCKED: BRANCH   9  10
DOCKED: ATOM     10  C   UNL     1      36.664  15.356 122.671 -0.37 -0.00    +0.000 C 
DOCKED: BRANCH  10  11
DOCKED: ATOM     11  C   UNL     1      37.319  15.436 121.285 -0.26 -0.00    +0.000 C 
DOCKED: BRANCH  11  12
DOCKED: ATOM     12  C   UNL     1      38.065  14.171 120.986 -0.38 -0.00    +0.000 C 
DOCKED: ATOM     13  N   UNL     1      37.525  13.216 120.070 -0.42 -0.00    +0.000 N 
DOCKED: ATOM     14  O   UNL     1      38.187  12.065 119.809 -0.52 -0.00    +0.000 OA
DOCKED: ATOM     15  O   UNL     1      39.152  13.932 121.576 -0.72 -0.00    +0.000 OA
DOCKED: ATOM     16  H   UNL     1      36.666  13.397 119.625 -0.03 -0.00    +0.000 HD
DOCKED: ENDBRANCH  11  12
DOCKED: ENDBRANCH  10  11
DOCKED: ENDBRANCH   9  10
DOCKED: ENDBRANCH   1   9
DOCKED: TORSDOF 7
DOCKED: TER
DOCKED: ENDMDL
________________________________________________________________________________


	BEGINNING GENETIC ALGORITHM DOCKING 69 of 100
Run: 69 Seed: 801951287 1701623142 [ Run 69 of 100 GA/GALS ]
Beginning LAMARCKIAN GENETIC ALGORITHM (LGA), with a maximum of 2500000 energy evaluations.

Final-Value: -11.518


	FINAL GENETIC ALGORITHM DOCKED STATE
	_______________________________________________


Detailed state:  trans 34.658 13.590 123.104 quatxyzw -0.665973 0.694071 0.182061 -0.203960 center 0.016 0.633 0.013 ntor 7 123.5765 153.6248 68.3872 -108.1243 72.9157 143.5848 -59.5606
State:	 34.658  13.590 123.104  -0.680  0.709  0.186 -156.463    123.58  153.62   68.39 -108.12   72.92  143.58  -59.56

DOCKED: MODEL       69
DOCKED: USER    Run = 69
DOCKED: USER    DPF = ligand_dock.biased.dpf
DOCKED: USER  
DOCKED: USER    Estimated Free Energy of Binding    =   -8.90 kcal/mol  [=(1)+(2)+(3)-(4)]
DOCKED: USER    Estimated Inhibition Constant, Ki   =  299.06 nM (nanomolar)  [Temperature = 298.15 K]
DOCKED: USER    
DOCKED: USER    (1) Final Intermolecular Energy     =  -10.99 kcal/mol
DOCKED: USER        vdW + Hbond + desolv Energy     =  -10.99 kcal/mol
DOCKED: USER        Electrostatic Energy            =   +0.00 kcal/mol
DOCKED: USER    (2) Final Total Internal Energy     =   -0.53 kcal/mol
DOCKED: USER    (3) Torsional Free Energy           =   +2.09 kcal/mol
DOCKED: USER    (4) Unbound System's Energy  [=(2)] =   -0.53 kcal/mol
DOCKED: USER    
DOCKED: USER    
DOCKED: USER    NEWDPF move ligand.pdbqt
DOCKED: USER    NEWDPF about 0.016000 0.633000 0.013000
DOCKED: USER    NEWDPF tran0 34.657774 13.589732 123.103860
DOCKED: USER    NEWDPF quaternion0 -0.665973 0.694071 0.182061 -0.203960
DOCKED: USER    NEWDPF axisangle0 -0.680273 0.708974 0.185971 -156.462754
DOCKED: USER    NEWDPF quat0 -0.680273 0.708974 0.185971 -156.462754
DOCKED: USER    NEWDPF dihe0 123.58 153.62 68.39 -108.12 72.92 143.58 -59.56 
DOCKED: USER  keepresnum = 1 
DOCKED: USER  
DOCKED: REMARK  Name = 
DOCKED: REMARK  7 active torsions:
DOCKED: REMARK  status: ('A' for Active; 'I' for Inactive)
DOCKED: REMARK    1  A    between atoms: C_3  and  C_4
DOCKED: REMARK    2  A    between atoms: C_4  and  C_5
DOCKED: REMARK    3  A    between atoms: C_5  and  C_6
DOCKED: REMARK    4  A    between atoms: C_6  and  C_7
DOCKED: REMARK    5  A    between atoms: C_7  and  C_8
DOCKED: REMARK    6  A    between atoms: C_8  and  C_9
DOCKED: REMARK    7  A    between atoms: C_9  and  C_10
DOCKED: REMARK                            x       y       z     vdW  Elec       q    Type
DOCKED: REMARK                         _______ _______ _______ _____ _____    ______ ____
DOCKED: USER                              x       y       z     vdW  Elec       q    Type
DOCKED: USER                           _______ _______ _______ _____ _____    ______ ____
DOCKED: ROOT
DOCKED: ATOM      1  C   UNL     1      36.766  13.350 122.491 -0.52 -0.00    +0.000 C 
DOCKED: ENDROOT
DOCKED: BRANCH   1   2
DOCKED: ATOM      2  C   UNL     1      35.982  12.200 123.139 -0.64 -0.00    +0.000 C 
DOCKED: BRANCH   2   3
DOCKED: ATOM      3  C   UNL     1      36.931  11.127 123.682 -0.60 -0.00    +0.000 C 
DOCKED: BRANCH   3   6
DOCKED: ATOM      4  O   UNL     1      37.049   7.471 122.722 -2.06 -0.00    +0.000 OA
DOCKED: ATOM      5  N   UNL     1      37.127   8.605 123.457 -0.65 -0.00    +0.000 N 
DOCKED: ATOM      6  C   UNL     1      36.825   9.872 122.870 -0.65 -0.00    +0.000 C 
DOCKED: ATOM      7  O   UNL     1      36.505   9.941 121.653 -1.48 -0.00    +0.000 OA
DOCKED: ATOM      8  H   UNL     1      37.393   8.556 124.403 -0.53 -0.00    +0.000 HD
DOCKED: ENDBRANCH   3   6
DOCKED: ENDBRANCH   2   3
DOCKED: ENDBRANCH   1   2
DOCKED: BRANCH   1   9
DOCKED: ATOM      9  C   UNL     1      36.913  14.573 123.416 -0.47 -0.00    +0.000 C 
DOCKED: BRANCH   9  10
DOCKED: ATOM     10  C   UNL     1      36.323  15.882 122.861 -0.36 -0.00    +0.000 C 
DOCKED: BRANCH  10  11
DOCKED: ATOM     11  C   UNL     1      34.809  15.995 123.079 -0.39 -0.00    +0.000 C 
DOCKED: BRANCH  11  12
DOCKED: ATOM     12  C   UNL     1      34.513  16.417 124.487 -0.53 -0.00    +0.000 C 
DOCKED: ATOM     13  N   UNL     1      33.714  15.588 125.334 -0.47 -0.00    +0.000 N 
DOCKED: ATOM     14  O   UNL     1      33.431  15.973 126.601 -1.10 -0.00    +0.000 OA
DOCKED: ATOM     15  O   UNL     1      34.937  17.526 124.909 -0.37 -0.00    +0.000 OA
DOCKED: ATOM     16  H   UNL     1      33.368  14.732 124.995 -0.17 -0.00    +0.000 HD
DOCKED: ENDBRANCH  11  12
DOCKED: ENDBRANCH  10  11
DOCKED: ENDBRANCH   9  10
DOCKED: ENDBRANCH   1   9
DOCKED: TORSDOF 7
DOCKED: TER
DOCKED: ENDMDL
________________________________________________________________________________


	BEGINNING GENETIC ALGORITHM DOCKING 70 of 100
Run: 70 Seed: 815519457 1430023666 [ Run 70 of 100 GA/GALS ]
Beginning LAMARCKIAN GENETIC ALGORITHM (LGA), with a maximum of 2500000 energy evaluations.

Final-Value: -12.459


	FINAL GENETIC ALGORITHM DOCKED STATE
	_______________________________________________


Detailed state:  trans 38.125 12.380 124.278 quatxyzw -0.188464 0.208869 0.828737 0.483788 center 0.016 0.633 0.013 ntor 7 -32.2797 179.3914 34.7675 -88.2217 29.3944 -40.9271 142.5444
State:	 38.125  12.380 124.278  -0.215  0.239  0.947 122.134    -32.28  179.39   34.77  -88.22   29.39  -40.93  142.54

DOCKED: MODEL       70
DOCKED: USER    Run = 70
DOCKED: USER    DPF = ligand_dock.biased.dpf
DOCKED: USER  
DOCKED: USER    Estimated Free Energy of Binding    =   -9.49 kcal/mol  [=(1)+(2)+(3)-(4)]
DOCKED: USER    Estimated Inhibition Constant, Ki   =  109.68 nM (nanomolar)  [Temperature = 298.15 K]
DOCKED: USER    
DOCKED: USER    (1) Final Intermolecular Energy     =  -11.58 kcal/mol
DOCKED: USER        vdW + Hbond + desolv Energy     =  -11.58 kcal/mol
DOCKED: USER        Electrostatic Energy            =   +0.00 kcal/mol
DOCKED: USER    (2) Final Total Internal Energy     =   -0.88 kcal/mol
DOCKED: USER    (3) Torsional Free Energy           =   +2.09 kcal/mol
DOCKED: USER    (4) Unbound System's Energy  [=(2)] =   -0.88 kcal/mol
DOCKED: USER    
DOCKED: USER    
DOCKED: USER    NEWDPF move ligand.pdbqt
DOCKED: USER    NEWDPF about 0.016000 0.633000 0.013000
DOCKED: USER    NEWDPF tran0 38.124547 12.379849 124.278119
DOCKED: USER    NEWDPF quaternion0 -0.188464 0.208869 0.828737 0.483788
DOCKED: USER    NEWDPF axisangle0 -0.215342 0.238656 0.946927 122.133809
DOCKED: USER    NEWDPF quat0 -0.215342 0.238656 0.946927 122.133809
DOCKED: USER    NEWDPF dihe0 -32.28 179.39 34.77 -88.22 29.39 -40.93 142.54 
DOCKED: USER  keepresnum = 1 
DOCKED: USER  
DOCKED: REMARK  Name = 
DOCKED: REMARK  7 active torsions:
DOCKED: REMARK  status: ('A' for Active; 'I' for Inactive)
DOCKED: REMARK    1  A    between atoms: C_3  and  C_4
DOCKED: REMARK    2  A    between atoms: C_4  and  C_5
DOCKED: REMARK    3  A    between atoms: C_5  and  C_6
DOCKED: REMARK    4  A    between atoms: C_6  and  C_7
DOCKED: REMARK    5  A    between atoms: C_7  and  C_8
DOCKED: REMARK    6  A    between atoms: C_8  and  C_9
DOCKED: REMARK    7  A    between atoms: C_9  and  C_10
DOCKED: REMARK                            x       y       z     vdW  Elec       q    Type
DOCKED: REMARK                         _______ _______ _______ _____ _____    ______ ____
DOCKED: USER                              x       y       z     vdW  Elec       q    Type
DOCKED: USER                           _______ _______ _______ _____ _____    ______ ____
DOCKED: ROOT
DOCKED: ATOM      1  C   UNL     1      36.142  12.987 123.519 -0.63 -0.00    +0.000 C 
DOCKED: ENDROOT
DOCKED: BRANCH   1   2
DOCKED: ATOM      2  C   UNL     1      36.966  11.892 122.827 -0.64 -0.00    +0.000 C 
DOCKED: BRANCH   2   3
DOCKED: ATOM      3  C   UNL     1      36.059  10.927 122.056 -0.58 -0.00    +0.000 C 
DOCKED: BRANCH   3   6
DOCKED: ATOM      4  O   UNL     1      37.440   7.698 123.457 -2.59 -0.00    +0.000 OA
DOCKED: ATOM      5  N   UNL     1      36.938   8.953 123.390 -0.60 -0.00    +0.000 N 
DOCKED: ATOM      6  C   UNL     1      36.596   9.531 122.128 -0.69 -0.00    +0.000 C 
DOCKED: ATOM      7  O   UNL     1      36.783   8.878 121.066 -2.63 -0.00    +0.000 OA
DOCKED: ATOM      8  H   UNL     1      36.807   9.471 124.215 -0.51 -0.00    +0.000 HD
DOCKED: ENDBRANCH   3   6
DOCKED: ENDBRANCH   2   3
DOCKED: ENDBRANCH   1   2
DOCKED: BRANCH   1   9
DOCKED: ATOM      9  C   UNL     1      36.841  14.359 123.515 -0.47 -0.00    +0.000 C 
DOCKED: BRANCH   9  10
DOCKED: ATOM     10  C   UNL     1      36.698  15.158 122.207 -0.32 -0.00    +0.000 C 
DOCKED: BRANCH  10  11
DOCKED: ATOM     11  C   UNL     1      37.958  15.106 121.334 -0.30 -0.00    +0.000 C 
DOCKED: BRANCH  11  12
DOCKED: ATOM     12  C   UNL     1      37.798  14.088 120.244 -0.37 -0.00    +0.000 C 
DOCKED: ATOM     13  N   UNL     1      38.299  12.761 120.419 -0.41 -0.00    +0.000 N 
DOCKED: ATOM     14  O   UNL     1      38.170  11.844 119.431 -0.49 -0.00    +0.000 OA
DOCKED: ATOM     15  O   UNL     1      37.255  14.418 119.156 -0.30 -0.00    +0.000 OA
DOCKED: ATOM     16  H   UNL     1      38.739  12.512 121.262 -0.04 -0.00    +0.000 HD
DOCKED: ENDBRANCH  11  12
DOCKED: ENDBRANCH  10  11
DOCKED: ENDBRANCH   9  10
DOCKED: ENDBRANCH   1   9
DOCKED: TORSDOF 7
DOCKED: TER
DOCKED: ENDMDL
________________________________________________________________________________


	BEGINNING GENETIC ALGORITHM DOCKING 71 of 100
Run: 71 Seed: 565960095 1535872022 [ Run 71 of 100 GA/GALS ]
Beginning LAMARCKIAN GENETIC ALGORITHM (LGA), with a maximum of 2500000 energy evaluations.

Final-Value: -13.306


	FINAL GENETIC ALGORITHM DOCKED STATE
	_______________________________________________


Detailed state:  trans 38.295 15.455 121.100 quatxyzw 0.411393 0.682812 -0.183544 0.575183 center 0.016 0.633 0.013 ntor 7 -150.5052 -11.7242 27.6955 -49.3489 -174.8959 -168.6490 162.9918
State:	 38.295  15.455 121.100   0.503  0.835 -0.224 109.775   -150.51  -11.72   27.70  -49.35 -174.90 -168.65  162.99

DOCKED: MODEL       71
DOCKED: USER    Run = 71
DOCKED: USER    DPF = ligand_dock.biased.dpf
DOCKED: USER  
DOCKED: USER    Estimated Free Energy of Binding    =  -10.71 kcal/mol  [=(1)+(2)+(3)-(4)]
DOCKED: USER    Estimated Inhibition Constant, Ki   =   14.15 nM (nanomolar)  [Temperature = 298.15 K]
DOCKED: USER    
DOCKED: USER    (1) Final Intermolecular Energy     =  -12.80 kcal/mol
DOCKED: USER        vdW + Hbond + desolv Energy     =  -12.80 kcal/mol
DOCKED: USER        Electrostatic Energy            =   +0.00 kcal/mol
DOCKED: USER    (2) Final Total Internal Energy     =   -0.51 kcal/mol
DOCKED: USER    (3) Torsional Free Energy           =   +2.09 kcal/mol
DOCKED: USER    (4) Unbound System's Energy  [=(2)] =   -0.51 kcal/mol
DOCKED: USER    
DOCKED: USER    
DOCKED: USER    NEWDPF move ligand.pdbqt
DOCKED: USER    NEWDPF about 0.016000 0.633000 0.013000
DOCKED: USER    NEWDPF tran0 38.295382 15.455435 121.100174
DOCKED: USER    NEWDPF quaternion0 0.411393 0.682812 -0.183544 0.575183
DOCKED: USER    NEWDPF axisangle0 0.502911 0.834708 -0.224374 109.775114
DOCKED: USER    NEWDPF quat0 0.502911 0.834708 -0.224374 109.775114
DOCKED: USER    NEWDPF dihe0 -150.51 -11.72 27.70 -49.35 -174.90 -168.65 162.99 
DOCKED: USER  keepresnum = 1 
DOCKED: USER  
DOCKED: REMARK  Name = 
DOCKED: REMARK  7 active torsions:
DOCKED: REMARK  status: ('A' for Active; 'I' for Inactive)
DOCKED: REMARK    1  A    between atoms: C_3  and  C_4
DOCKED: REMARK    2  A    between atoms: C_4  and  C_5
DOCKED: REMARK    3  A    between atoms: C_5  and  C_6
DOCKED: REMARK    4  A    between atoms: C_6  and  C_7
DOCKED: REMARK    5  A    between atoms: C_7  and  C_8
DOCKED: REMARK    6  A    between atoms: C_8  and  C_9
DOCKED: REMARK    7  A    between atoms: C_9  and  C_10
DOCKED: REMARK                            x       y       z     vdW  Elec       q    Type
DOCKED: REMARK                         _______ _______ _______ _____ _____    ______ ____
DOCKED: USER                              x       y       z     vdW  Elec       q    Type
DOCKED: USER                           _______ _______ _______ _____ _____    ______ ____
DOCKED: ROOT
DOCKED: ATOM      1  C   UNL     1      37.107  14.670 122.787 -0.44 -0.00    +0.000 C 
DOCKED: ENDROOT
DOCKED: BRANCH   1   2
DOCKED: ATOM      2  C   UNL     1      38.469  15.343 123.009 -0.33 -0.00    +0.000 C 
DOCKED: BRANCH   2   3
DOCKED: ATOM      3  C   UNL     1      39.531  14.754 122.075 -0.41 -0.00    +0.000 C 
DOCKED: BRANCH   3   6
DOCKED: ATOM      4  O   UNL     1      42.734  16.218 123.451 -1.09 +0.00    +0.000 OA
DOCKED: ATOM      5  N   UNL     1      41.499  16.127 122.905 -0.40 -0.00    +0.000 N 
DOCKED: ATOM      6  C   UNL     1      40.890  14.851 122.697 -0.52 -0.00    +0.000 C 
DOCKED: ATOM      7  O   UNL     1      41.514  13.799 123.003 -0.91 +0.00    +0.000 OA
DOCKED: ATOM      8  H   UNL     1      41.016  16.945 122.649 -0.00 -0.00    +0.000 HD
DOCKED: ENDBRANCH   3   6
DOCKED: ENDBRANCH   2   3
DOCKED: ENDBRANCH   1   2
DOCKED: BRANCH   1   9
DOCKED: ATOM      9  C   UNL     1      37.199  13.393 121.932 -0.48 -0.00    +0.000 C 
DOCKED: BRANCH   9  10
DOCKED: ATOM     10  C   UNL     1      37.144  12.074 122.723 -0.59 -0.00    +0.000 C 
DOCKED: BRANCH  10  11
DOCKED: ATOM     11  C   UNL     1      36.117  11.082 122.161 -0.62 -0.00    +0.000 C 
DOCKED: BRANCH  11  12
DOCKED: ATOM     12  C   UNL     1      36.680   9.692 122.156 -0.69 -0.00    +0.000 C 
DOCKED: ATOM     13  N   UNL     1      36.821   8.968 123.380 -0.60 -0.00    +0.000 N 
DOCKED: ATOM     14  O   UNL     1      37.344   7.720 123.382 -2.57 -0.00    +0.000 OA
DOCKED: ATOM     15  O   UNL     1      37.067   9.179 121.073 -2.73 -0.00    +0.000 OA
DOCKED: ATOM     16  H   UNL     1      36.536   9.380 124.227 -0.41 -0.00    +0.000 HD
DOCKED: ENDBRANCH  11  12
DOCKED: ENDBRANCH  10  11
DOCKED: ENDBRANCH   9  10
DOCKED: ENDBRANCH   1   9
DOCKED: TORSDOF 7
DOCKED: TER
DOCKED: ENDMDL
________________________________________________________________________________


	BEGINNING GENETIC ALGORITHM DOCKING 72 of 100
Run: 72 Seed: 643172411 52508024 [ Run 72 of 100 GA/GALS ]
Beginning LAMARCKIAN GENETIC ALGORITHM (LGA), with a maximum of 2500000 energy evaluations.

Final-Value: -11.297


	FINAL GENETIC ALGORITHM DOCKED STATE
	_______________________________________________


Detailed state:  trans 35.431 13.343 122.371 quatxyzw -0.479952 0.703198 0.342726 -0.397112 center 0.016 0.633 0.013 ntor 7 165.5603 167.0657 31.5337 118.2210 128.9716 -2.2019 -62.8833
State:	 35.431  13.343 122.371  -0.523  0.766  0.373 -133.204    165.56  167.07   31.53  118.22  128.97   -2.20  -62.88

DOCKED: MODEL       72
DOCKED: USER    Run = 72
DOCKED: USER    DPF = ligand_dock.biased.dpf
DOCKED: USER  
DOCKED: USER    Estimated Free Energy of Binding    =   -8.71 kcal/mol  [=(1)+(2)+(3)-(4)]
DOCKED: USER    Estimated Inhibition Constant, Ki   =  413.48 nM (nanomolar)  [Temperature = 298.15 K]
DOCKED: USER    
DOCKED: USER    (1) Final Intermolecular Energy     =  -10.80 kcal/mol
DOCKED: USER        vdW + Hbond + desolv Energy     =  -10.80 kcal/mol
DOCKED: USER        Electrostatic Energy            =   +0.00 kcal/mol
DOCKED: USER    (2) Final Total Internal Energy     =   -0.50 kcal/mol
DOCKED: USER    (3) Torsional Free Energy           =   +2.09 kcal/mol
DOCKED: USER    (4) Unbound System's Energy  [=(2)] =   -0.50 kcal/mol
DOCKED: USER    
DOCKED: USER    
DOCKED: USER    NEWDPF move ligand.pdbqt
DOCKED: USER    NEWDPF about 0.016000 0.633000 0.013000
DOCKED: USER    NEWDPF tran0 35.431368 13.343027 122.371023
DOCKED: USER    NEWDPF quaternion0 -0.479952 0.703198 0.342726 -0.397112
DOCKED: USER    NEWDPF axisangle0 -0.522954 0.766203 0.373433 -133.204488
DOCKED: USER    NEWDPF quat0 -0.522954 0.766203 0.373433 -133.204488
DOCKED: USER    NEWDPF dihe0 165.56 167.07 31.53 118.22 128.97 -2.20 -62.88 
DOCKED: USER  keepresnum = 1 
DOCKED: USER  
DOCKED: REMARK  Name = 
DOCKED: REMARK  7 active torsions:
DOCKED: REMARK  status: ('A' for Active; 'I' for Inactive)
DOCKED: REMARK    1  A    between atoms: C_3  and  C_4
DOCKED: REMARK    2  A    between atoms: C_4  and  C_5
DOCKED: REMARK    3  A    between atoms: C_5  and  C_6
DOCKED: REMARK    4  A    between atoms: C_6  and  C_7
DOCKED: REMARK    5  A    between atoms: C_7  and  C_8
DOCKED: REMARK    6  A    between atoms: C_8  and  C_9
DOCKED: REMARK    7  A    between atoms: C_9  and  C_10
DOCKED: REMARK                            x       y       z     vdW  Elec       q    Type
DOCKED: REMARK                         _______ _______ _______ _____ _____    ______ ____
DOCKED: USER                              x       y       z     vdW  Elec       q    Type
DOCKED: USER                           _______ _______ _______ _____ _____    ______ ____
DOCKED: ROOT
DOCKED: ATOM      1  C   UNL     1      37.432  12.931 121.532 -0.50 -0.00    +0.000 C 
DOCKED: ENDROOT
DOCKED: BRANCH   1   2
DOCKED: ATOM      2  C   UNL     1      36.333  11.859 121.551 -0.50 -0.00    +0.000 C 
DOCKED: BRANCH   2   3
DOCKED: ATOM      3  C   UNL     1      36.615  10.802 122.623 -0.67 -0.00    +0.000 C 
DOCKED: BRANCH   3   6
DOCKED: ATOM      4  O   UNL     1      34.538   7.647 122.467 -0.67 -0.00    +0.000 OA
DOCKED: ATOM      5  N   UNL     1      34.989   8.864 122.847 -0.60 -0.00    +0.000 N 
DOCKED: ATOM      6  C   UNL     1      36.107   9.463 122.186 -0.66 -0.00    +0.000 C 
DOCKED: ATOM      7  O   UNL     1      36.693   8.844 121.258 -2.57 -0.00    +0.000 OA
DOCKED: ATOM      8  H   UNL     1      34.545   9.342 123.583 -0.44 -0.00    +0.000 HD
DOCKED: ENDBRANCH   3   6
DOCKED: ENDBRANCH   2   3
DOCKED: ENDBRANCH   1   2
DOCKED: BRANCH   1   9
DOCKED: ATOM      9  C   UNL     1      37.844  13.395 122.941 -0.52 -0.00    +0.000 C 
DOCKED: BRANCH   9  10
DOCKED: ATOM     10  C   UNL     1      37.735  14.910 123.186 -0.40 -0.00    +0.000 C 
DOCKED: BRANCH  10  11
DOCKED: ATOM     11  C   UNL     1      38.681  15.729 122.296 -0.31 -0.00    +0.000 C 
DOCKED: BRANCH  11  12
DOCKED: ATOM     12  C   UNL     1      40.091  15.245 122.449 -0.41 -0.00    +0.000 C 
DOCKED: ATOM     13  N   UNL     1      41.050  16.033 123.158 -0.37 -0.00    +0.000 N 
DOCKED: ATOM     14  O   UNL     1      42.329  15.608 123.285 -1.13 +0.00    +0.000 OA
DOCKED: ATOM     15  O   UNL     1      40.441  14.159 121.916 -1.04 +0.00    +0.000 OA
DOCKED: ATOM     16  H   UNL     1      40.778  16.891 123.558 -0.02 -0.00    +0.000 HD
DOCKED: ENDBRANCH  11  12
DOCKED: ENDBRANCH  10  11
DOCKED: ENDBRANCH   9  10
DOCKED: ENDBRANCH   1   9
DOCKED: TORSDOF 7
DOCKED: TER
DOCKED: ENDMDL
________________________________________________________________________________


	BEGINNING GENETIC ALGORITHM DOCKING 73 of 100
Run: 73 Seed: 957096961 1770884462 [ Run 73 of 100 GA/GALS ]
Beginning LAMARCKIAN GENETIC ALGORITHM (LGA), with a maximum of 2500000 energy evaluations.

Final-Value: -12.016


	FINAL GENETIC ALGORITHM DOCKED STATE
	_______________________________________________


Detailed state:  trans 38.432 12.006 122.645 quatxyzw -0.058784 0.370535 0.917773 0.130156 center 0.016 0.633 0.013 ntor 7 74.3747 150.5998 18.4182 -68.5526 -68.6998 -143.5071 -61.6870
State:	 38.432  12.006 122.645  -0.059  0.374  0.926 165.043     74.37  150.60   18.42  -68.55  -68.70 -143.51  -61.69

DOCKED: MODEL       73
DOCKED: USER    Run = 73
DOCKED: USER    DPF = ligand_dock.biased.dpf
DOCKED: USER  
DOCKED: USER    Estimated Free Energy of Binding    =   -9.52 kcal/mol  [=(1)+(2)+(3)-(4)]
DOCKED: USER    Estimated Inhibition Constant, Ki   =  104.55 nM (nanomolar)  [Temperature = 298.15 K]
DOCKED: USER    
DOCKED: USER    (1) Final Intermolecular Energy     =  -11.61 kcal/mol
DOCKED: USER        vdW + Hbond + desolv Energy     =  -11.61 kcal/mol
DOCKED: USER        Electrostatic Energy            =   +0.00 kcal/mol
DOCKED: USER    (2) Final Total Internal Energy     =   -0.40 kcal/mol
DOCKED: USER    (3) Torsional Free Energy           =   +2.09 kcal/mol
DOCKED: USER    (4) Unbound System's Energy  [=(2)] =   -0.40 kcal/mol
DOCKED: USER    
DOCKED: USER    
DOCKED: USER    NEWDPF move ligand.pdbqt
DOCKED: USER    NEWDPF about 0.016000 0.633000 0.013000
DOCKED: USER    NEWDPF tran0 38.432279 12.005759 122.645248
DOCKED: USER    NEWDPF quaternion0 -0.058784 0.370535 0.917773 0.130156
DOCKED: USER    NEWDPF axisangle0 -0.059288 0.373714 0.925647 165.042839
DOCKED: USER    NEWDPF quat0 -0.059288 0.373714 0.925647 165.042839
DOCKED: USER    NEWDPF dihe0 74.37 150.60 18.42 -68.55 -68.70 -143.51 -61.69 
DOCKED: USER  keepresnum = 1 
DOCKED: USER  
DOCKED: REMARK  Name = 
DOCKED: REMARK  7 active torsions:
DOCKED: REMARK  status: ('A' for Active; 'I' for Inactive)
DOCKED: REMARK    1  A    between atoms: C_3  and  C_4
DOCKED: REMARK    2  A    between atoms: C_4  and  C_5
DOCKED: REMARK    3  A    between atoms: C_5  and  C_6
DOCKED: REMARK    4  A    between atoms: C_6  and  C_7
DOCKED: REMARK    5  A    between atoms: C_7  and  C_8
DOCKED: REMARK    6  A    between atoms: C_8  and  C_9
DOCKED: REMARK    7  A    between atoms: C_9  and  C_10
DOCKED: REMARK                            x       y       z     vdW  Elec       q    Type
DOCKED: REMARK                         _______ _______ _______ _____ _____    ______ ____
DOCKED: USER                              x       y       z     vdW  Elec       q    Type
DOCKED: USER                           _______ _______ _______ _____ _____    ______ ____
DOCKED: ROOT
DOCKED: ATOM      1  C   UNL     1      37.479  13.650 121.522 -0.45 -0.00    +0.000 C 
DOCKED: ENDROOT
DOCKED: BRANCH   1   2
DOCKED: ATOM      2  C   UNL     1      37.227  12.179 121.161 -0.53 -0.00    +0.000 C 
DOCKED: BRANCH   2   3
DOCKED: ATOM      3  C   UNL     1      36.689  11.403 122.366 -0.64 -0.00    +0.000 C 
DOCKED: BRANCH   3   6
DOCKED: ATOM      4  O   UNL     1      37.109   7.723 123.129 -2.51 -0.00    +0.000 OA
DOCKED: ATOM      5  N   UNL     1      36.915   9.051 123.299 -0.61 -0.00    +0.000 N 
DOCKED: ATOM      6  C   UNL     1      36.885   9.930 122.172 -0.62 -0.00    +0.000 C 
DOCKED: ATOM      7  O   UNL     1      37.062   9.471 121.012 -2.51 -0.00    +0.000 OA
DOCKED: ATOM      8  H   UNL     1      36.793   9.415 124.205 -0.51 -0.00    +0.000 HD
DOCKED: ENDBRANCH   3   6
DOCKED: ENDBRANCH   2   3
DOCKED: ENDBRANCH   1   2
DOCKED: BRANCH   1   9
DOCKED: ATOM      9  C   UNL     1      38.954  14.064 121.365 -0.37 -0.00    +0.000 C 
DOCKED: BRANCH   9  10
DOCKED: ATOM     10  C   UNL     1      39.608  14.637 122.635 -0.38 -0.00    +0.000 C 
DOCKED: BRANCH  10  11
DOCKED: ATOM     11  C   UNL     1      41.133  14.466 122.651 -0.48 -0.00    +0.000 C 
DOCKED: BRANCH  11  12
DOCKED: ATOM     12  C   UNL     1      41.808  15.804 122.707 -0.50 -0.00    +0.000 C 
DOCKED: ATOM     13  N   UNL     1      42.763  16.170 121.709 -0.31 -0.00    +0.000 N 
DOCKED: ATOM     14  O   UNL     1      43.387  17.370 121.765 -0.23 -0.00    +0.000 OA
DOCKED: ATOM     15  O   UNL     1      41.559  16.590 123.659 -0.95 -0.00    +0.000 OA
DOCKED: ATOM     16  H   UNL     1      42.969  15.546 120.977 -0.02 -0.00    +0.000 HD
DOCKED: ENDBRANCH  11  12
DOCKED: ENDBRANCH  10  11
DOCKED: ENDBRANCH   9  10
DOCKED: ENDBRANCH   1   9
DOCKED: TORSDOF 7
DOCKED: TER
DOCKED: ENDMDL
________________________________________________________________________________


	BEGINNING GENETIC ALGORITHM DOCKING 74 of 100
Run: 74 Seed: 2084365258 1383276016 [ Run 74 of 100 GA/GALS ]
Beginning LAMARCKIAN GENETIC ALGORITHM (LGA), with a maximum of 2500000 energy evaluations.

Final-Value: -12.254


	FINAL GENETIC ALGORITHM DOCKED STATE
	_______________________________________________


Detailed state:  trans 37.182 12.459 124.864 quatxyzw -0.319306 0.525984 0.767372 0.180345 center 0.016 0.633 0.013 ntor 7 -69.4563 -119.3806 1.0600 72.5721 51.0320 -81.9527 148.7559
State:	 37.182  12.459 124.864  -0.325  0.535  0.780 159.220    -69.46 -119.38    1.06   72.57   51.03  -81.95  148.76

DOCKED: MODEL       74
DOCKED: USER    Run = 74
DOCKED: USER    DPF = ligand_dock.biased.dpf
DOCKED: USER  
DOCKED: USER    Estimated Free Energy of Binding    =   -9.68 kcal/mol  [=(1)+(2)+(3)-(4)]
DOCKED: USER    Estimated Inhibition Constant, Ki   =   79.75 nM (nanomolar)  [Temperature = 298.15 K]
DOCKED: USER    
DOCKED: USER    (1) Final Intermolecular Energy     =  -11.77 kcal/mol
DOCKED: USER        vdW + Hbond + desolv Energy     =  -11.77 kcal/mol
DOCKED: USER        Electrostatic Energy            =   +0.00 kcal/mol
DOCKED: USER    (2) Final Total Internal Energy     =   -0.48 kcal/mol
DOCKED: USER    (3) Torsional Free Energy           =   +2.09 kcal/mol
DOCKED: USER    (4) Unbound System's Energy  [=(2)] =   -0.48 kcal/mol
DOCKED: USER    
DOCKED: USER    
DOCKED: USER    NEWDPF move ligand.pdbqt
DOCKED: USER    NEWDPF about 0.016000 0.633000 0.013000
DOCKED: USER    NEWDPF tran0 37.182459 12.459305 124.863920
DOCKED: USER    NEWDPF quaternion0 -0.319306 0.525984 0.767372 0.180345
DOCKED: USER    NEWDPF axisangle0 -0.324629 0.534752 0.780164 159.220274
DOCKED: USER    NEWDPF quat0 -0.324629 0.534752 0.780164 159.220274
DOCKED: USER    NEWDPF dihe0 -69.46 -119.38 1.06 72.57 51.03 -81.95 148.76 
DOCKED: USER  keepresnum = 1 
DOCKED: USER  
DOCKED: REMARK  Name = 
DOCKED: REMARK  7 active torsions:
DOCKED: REMARK  status: ('A' for Active; 'I' for Inactive)
DOCKED: REMARK    1  A    between atoms: C_3  and  C_4
DOCKED: REMARK    2  A    between atoms: C_4  and  C_5
DOCKED: REMARK    3  A    between atoms: C_5  and  C_6
DOCKED: REMARK    4  A    between atoms: C_6  and  C_7
DOCKED: REMARK    5  A    between atoms: C_7  and  C_8
DOCKED: REMARK    6  A    between atoms: C_8  and  C_9
DOCKED: REMARK    7  A    between atoms: C_9  and  C_10
DOCKED: REMARK                            x       y       z     vdW  Elec       q    Type
DOCKED: REMARK                         _______ _______ _______ _____ _____    ______ ____
DOCKED: USER                              x       y       z     vdW  Elec       q    Type
DOCKED: USER                           _______ _______ _______ _____ _____    ______ ____
DOCKED: ROOT
DOCKED: ATOM      1  C   UNL     1      36.641  13.312 122.900 -0.57 -0.00    +0.000 C 
DOCKED: ENDROOT
DOCKED: BRANCH   1   2
DOCKED: ATOM      2  C   UNL     1      36.922  11.812 123.075 -0.67 -0.00    +0.000 C 
DOCKED: BRANCH   2   3
DOCKED: ATOM      3  C   UNL     1      36.681  11.053 121.767 -0.57 -0.00    +0.000 C 
DOCKED: BRANCH   3   6
DOCKED: ATOM      4  O   UNL     1      37.234   7.716 123.458 -2.66 -0.00    +0.000 OA
DOCKED: ATOM      5  N   UNL     1      37.009   9.039 123.278 -0.63 -0.00    +0.000 N 
DOCKED: ATOM      6  C   UNL     1      36.912   9.586 121.961 -0.64 -0.00    +0.000 C 
DOCKED: ATOM      7  O   UNL     1      37.060   8.838 120.958 -2.70 -0.00    +0.000 OA
DOCKED: ATOM      8  H   UNL     1      36.910   9.628 124.060 -0.51 -0.00    +0.000 HD
DOCKED: ENDBRANCH   3   6
DOCKED: ENDBRANCH   2   3
DOCKED: ENDBRANCH   1   2
DOCKED: BRANCH   1   9
DOCKED: ATOM      9  C   UNL     1      37.861  14.194 123.227 -0.43 -0.00    +0.000 C 
DOCKED: BRANCH   9  10
DOCKED: ATOM     10  C   UNL     1      38.823  14.437 122.050 -0.42 -0.00    +0.000 C 
DOCKED: BRANCH  10  11
DOCKED: ATOM     11  C   UNL     1      40.295  14.480 122.481 -0.29 -0.00    +0.000 C 
DOCKED: BRANCH  11  12
DOCKED: ATOM     12  C   UNL     1      40.763  15.900 122.599 -0.40 -0.00    +0.000 C 
DOCKED: ATOM     13  N   UNL     1      40.254  16.902 121.717 -0.16 -0.00    +0.000 N 
DOCKED: ATOM     14  O   UNL     1      40.686  18.181 121.810 -0.10 -0.00    +0.000 OA
DOCKED: ATOM     15  O   UNL     1      41.639  16.199 123.454 -1.05 +0.00    +0.000 OA
DOCKED: ATOM     16  H   UNL     1      39.584  16.661 121.038 +0.01 -0.00    +0.000 HD
DOCKED: ENDBRANCH  11  12
DOCKED: ENDBRANCH  10  11
DOCKED: ENDBRANCH   9  10
DOCKED: ENDBRANCH   1   9
DOCKED: TORSDOF 7
DOCKED: TER
DOCKED: ENDMDL
________________________________________________________________________________


	BEGINNING GENETIC ALGORITHM DOCKING 75 of 100
Run: 75 Seed: 90219964 979845720 [ Run 75 of 100 GA/GALS ]
Beginning LAMARCKIAN GENETIC ALGORITHM (LGA), with a maximum of 2500000 energy evaluations.

Final-Value: -13.410


	FINAL GENETIC ALGORITHM DOCKED STATE
	_______________________________________________


Detailed state:  trans 37.258 12.176 121.737 quatxyzw -0.555555 0.173398 -0.665682 -0.467075 center 0.016 0.633 0.013 ntor 7 -113.4689 -179.0580 -45.0505 108.2199 -110.2525 174.7518 -115.9943
State:	 37.258  12.176 121.737  -0.628  0.196 -0.753 -124.311   -113.47 -179.06  -45.05  108.22 -110.25  174.75 -115.99

DOCKED: MODEL       75
DOCKED: USER    Run = 75
DOCKED: USER    DPF = ligand_dock.biased.dpf
DOCKED: USER  
DOCKED: USER    Estimated Free Energy of Binding    =  -10.63 kcal/mol  [=(1)+(2)+(3)-(4)]
DOCKED: USER    Estimated Inhibition Constant, Ki   =   16.24 nM (nanomolar)  [Temperature = 298.15 K]
DOCKED: USER    
DOCKED: USER    (1) Final Intermolecular Energy     =  -12.71 kcal/mol
DOCKED: USER        vdW + Hbond + desolv Energy     =  -12.71 kcal/mol
DOCKED: USER        Electrostatic Energy            =   +0.00 kcal/mol
DOCKED: USER    (2) Final Total Internal Energy     =   -0.70 kcal/mol
DOCKED: USER    (3) Torsional Free Energy           =   +2.09 kcal/mol
DOCKED: USER    (4) Unbound System's Energy  [=(2)] =   -0.70 kcal/mol
DOCKED: USER    
DOCKED: USER    
DOCKED: USER    NEWDPF move ligand.pdbqt
DOCKED: USER    NEWDPF about 0.016000 0.633000 0.013000
DOCKED: USER    NEWDPF tran0 37.257544 12.175974 121.737306
DOCKED: USER    NEWDPF quaternion0 -0.555555 0.173398 -0.665682 -0.467075
DOCKED: USER    NEWDPF axisangle0 -0.628301 0.196103 -0.752848 -124.310828
DOCKED: USER    NEWDPF quat0 -0.628301 0.196103 -0.752848 -124.310828
DOCKED: USER    NEWDPF dihe0 -113.47 -179.06 -45.05 108.22 -110.25 174.75 -115.99 
DOCKED: USER  keepresnum = 1 
DOCKED: USER  
DOCKED: REMARK  Name = 
DOCKED: REMARK  7 active torsions:
DOCKED: REMARK  status: ('A' for Active; 'I' for Inactive)
DOCKED: REMARK    1  A    between atoms: C_3  and  C_4
DOCKED: REMARK    2  A    between atoms: C_4  and  C_5
DOCKED: REMARK    3  A    between atoms: C_5  and  C_6
DOCKED: REMARK    4  A    between atoms: C_6  and  C_7
DOCKED: REMARK    5  A    between atoms: C_7  and  C_8
DOCKED: REMARK    6  A    between atoms: C_8  and  C_9
DOCKED: REMARK    7  A    between atoms: C_9  and  C_10
DOCKED: REMARK                            x       y       z     vdW  Elec       q    Type
DOCKED: REMARK                         _______ _______ _______ _____ _____    ______ ____
DOCKED: USER                              x       y       z     vdW  Elec       q    Type
DOCKED: USER                           _______ _______ _______ _____ _____    ______ ____
DOCKED: ROOT
DOCKED: ATOM      1  C   UNL     1      36.813  12.997 123.738 -0.54 -0.00    +0.000 C 
DOCKED: ENDROOT
DOCKED: BRANCH   1   2
DOCKED: ATOM      2  C   UNL     1      36.086  11.756 123.200 -0.68 -0.00    +0.000 C 
DOCKED: BRANCH   2   3
DOCKED: ATOM      3  C   UNL     1      36.815  11.179 121.982 -0.60 -0.00    +0.000 C 
DOCKED: BRANCH   3   6
DOCKED: ATOM      4  O   UNL     1      37.070   7.707 123.457 -2.69 -0.00    +0.000 OA
DOCKED: ATOM      5  N   UNL     1      36.972   9.053 123.363 -0.60 -0.00    +0.000 N 
DOCKED: ATOM      6  C   UNL     1      36.906   9.687 122.083 -0.63 -0.00    +0.000 C 
DOCKED: ATOM      7  O   UNL     1      36.963   8.992 121.034 -2.69 -0.00    +0.000 OA
DOCKED: ATOM      8  H   UNL     1      36.944   9.600 124.180 -0.55 -0.00    +0.000 HD
DOCKED: ENDBRANCH   3   6
DOCKED: ENDBRANCH   2   3
DOCKED: ENDBRANCH   1   2
DOCKED: BRANCH   1   9
DOCKED: ATOM      9  C   UNL     1      36.559  14.257 122.890 -0.47 -0.00    +0.000 C 
DOCKED: BRANCH   9  10
DOCKED: ATOM     10  C   UNL     1      37.316  15.516 123.351 -0.37 -0.00    +0.000 C 
DOCKED: BRANCH  10  11
DOCKED: ATOM     11  C   UNL     1      38.378  15.977 122.344 -0.28 -0.00    +0.000 C 
DOCKED: BRANCH  11  12
DOCKED: ATOM     12  C   UNL     1      39.454  14.942 122.207 -0.41 -0.00    +0.000 C 
DOCKED: ATOM     13  N   UNL     1      40.640  15.027 123.000 -0.40 -0.00    +0.000 N 
DOCKED: ATOM     14  O   UNL     1      41.621  14.103 122.868 -1.03 -0.00    +0.000 OA
DOCKED: ATOM     15  O   UNL     1      39.328  14.018 121.361 -0.75 -0.00    +0.000 OA
DOCKED: ATOM     16  H   UNL     1      40.744  15.761 123.647 -0.02 +0.00    +0.000 HD
DOCKED: ENDBRANCH  11  12
DOCKED: ENDBRANCH  10  11
DOCKED: ENDBRANCH   9  10
DOCKED: ENDBRANCH   1   9
DOCKED: TORSDOF 7
DOCKED: TER
DOCKED: ENDMDL
________________________________________________________________________________


	BEGINNING GENETIC ALGORITHM DOCKING 76 of 100
Run: 76 Seed: 1563778413 1603286854 [ Run 76 of 100 GA/GALS ]
Beginning LAMARCKIAN GENETIC ALGORITHM (LGA), with a maximum of 2500000 energy evaluations.

Final-Value: -13.076


	FINAL GENETIC ALGORITHM DOCKED STATE
	_______________________________________________


Detailed state:  trans 35.760 11.899 122.160 quatxyzw 0.857265 -0.302729 0.169779 0.380300 center 0.016 0.633 0.013 ntor 7 -36.3161 59.9933 -45.6703 135.5669 -109.0480 -70.8406 -104.3889
State:	 35.760  11.899 122.160   0.927 -0.327  0.184 135.296    -36.32   59.99  -45.67  135.57 -109.05  -70.84 -104.39

DOCKED: MODEL       76
DOCKED: USER    Run = 76
DOCKED: USER    DPF = ligand_dock.biased.dpf
DOCKED: USER  
DOCKED: USER    Estimated Free Energy of Binding    =  -10.60 kcal/mol  [=(1)+(2)+(3)-(4)]
DOCKED: USER    Estimated Inhibition Constant, Ki   =   17.11 nM (nanomolar)  [Temperature = 298.15 K]
DOCKED: USER    
DOCKED: USER    (1) Final Intermolecular Energy     =  -12.68 kcal/mol
DOCKED: USER        vdW + Hbond + desolv Energy     =  -12.68 kcal/mol
DOCKED: USER        Electrostatic Energy            =   +0.00 kcal/mol
DOCKED: USER    (2) Final Total Internal Energy     =   -0.39 kcal/mol
DOCKED: USER    (3) Torsional Free Energy           =   +2.09 kcal/mol
DOCKED: USER    (4) Unbound System's Energy  [=(2)] =   -0.39 kcal/mol
DOCKED: USER    
DOCKED: USER    
DOCKED: USER    NEWDPF move ligand.pdbqt
DOCKED: USER    NEWDPF about 0.016000 0.633000 0.013000
DOCKED: USER    NEWDPF tran0 35.759729 11.898826 122.159815
DOCKED: USER    NEWDPF quaternion0 0.857265 -0.302729 0.169779 0.380300
DOCKED: USER    NEWDPF axisangle0 0.926909 -0.327323 0.183572 135.295525
DOCKED: USER    NEWDPF quat0 0.926909 -0.327323 0.183572 135.295525
DOCKED: USER    NEWDPF dihe0 -36.32 59.99 -45.67 135.57 -109.05 -70.84 -104.39 
DOCKED: USER  keepresnum = 1 
DOCKED: USER  
DOCKED: REMARK  Name = 
DOCKED: REMARK  7 active torsions:
DOCKED: REMARK  status: ('A' for Active; 'I' for Inactive)
DOCKED: REMARK    1  A    between atoms: C_3  and  C_4
DOCKED: REMARK    2  A    between atoms: C_4  and  C_5
DOCKED: REMARK    3  A    between atoms: C_5  and  C_6
DOCKED: REMARK    4  A    between atoms: C_6  and  C_7
DOCKED: REMARK    5  A    between atoms: C_7  and  C_8
DOCKED: REMARK    6  A    between atoms: C_8  and  C_9
DOCKED: REMARK    7  A    between atoms: C_9  and  C_10
DOCKED: REMARK                            x       y       z     vdW  Elec       q    Type
DOCKED: REMARK                         _______ _______ _______ _____ _____    ______ ____
DOCKED: USER                              x       y       z     vdW  Elec       q    Type
DOCKED: USER                           _______ _______ _______ _____ _____    ______ ____
DOCKED: ROOT
DOCKED: ATOM      1  C   UNL     1      37.183  12.973 123.463 -0.60 -0.00    +0.000 C 
DOCKED: ENDROOT
DOCKED: BRANCH   1   2
DOCKED: ATOM      2  C   UNL     1      36.787  11.515 123.736 -0.68 -0.00    +0.000 C 
DOCKED: BRANCH   2   3
DOCKED: ATOM      3  C   UNL     1      36.126  10.886 122.506 -0.67 -0.00    +0.000 C 
DOCKED: BRANCH   3   6
DOCKED: ATOM      4  O   UNL     1      37.307   7.347 123.121 -2.20 -0.00    +0.000 OA
DOCKED: ATOM      5  N   UNL     1      36.796   8.582 123.337 -0.66 -0.00    +0.000 N 
DOCKED: ATOM      6  C   UNL     1      36.674   9.514 122.260 -0.71 -0.00    +0.000 C 
DOCKED: ATOM      7  O   UNL     1      37.065   9.194 121.105 -2.74 -0.00    +0.000 OA
DOCKED: ATOM      8  H   UNL     1      36.506   8.840 124.241 -0.38 -0.00    +0.000 HD
DOCKED: ENDBRANCH   3   6
DOCKED: ENDBRANCH   2   3
DOCKED: ENDBRANCH   1   2
DOCKED: BRANCH   1   9
DOCKED: ATOM      9  C   UNL     1      35.991  13.945 123.541 -0.56 -0.00    +0.000 C 
DOCKED: BRANCH   9  10
DOCKED: ATOM     10  C   UNL     1      36.249  15.342 122.949 -0.40 -0.00    +0.000 C 
DOCKED: BRANCH  10  11
DOCKED: ATOM     11  C   UNL     1      35.795  16.477 123.875 -0.40 -0.00    +0.000 C 
DOCKED: BRANCH  11  12
DOCKED: ATOM     12  C   UNL     1      34.531  16.098 124.587 -0.56 -0.00    +0.000 C 
DOCKED: ATOM     13  N   UNL     1      34.299  16.537 125.927 -0.38 -0.00    +0.000 N 
DOCKED: ATOM     14  O   UNL     1      33.167  16.183 126.579 -1.07 -0.00    +0.000 OA
DOCKED: ATOM     15  O   UNL     1      33.690  15.355 124.014 -0.68 -0.00    +0.000 OA
DOCKED: ATOM     16  H   UNL     1      34.967  17.102 126.379 -0.01 -0.00    +0.000 HD
DOCKED: ENDBRANCH  11  12
DOCKED: ENDBRANCH  10  11
DOCKED: ENDBRANCH   9  10
DOCKED: ENDBRANCH   1   9
DOCKED: TORSDOF 7
DOCKED: TER
DOCKED: ENDMDL
________________________________________________________________________________


	BEGINNING GENETIC ALGORITHM DOCKING 77 of 100
Run: 77 Seed: 892091064 2027291009 [ Run 77 of 100 GA/GALS ]
Beginning LAMARCKIAN GENETIC ALGORITHM (LGA), with a maximum of 2500000 energy evaluations.

Final-Value: -12.058


	FINAL GENETIC ALGORITHM DOCKED STATE
	_______________________________________________


Detailed state:  trans 36.800 14.080 120.348 quatxyzw 0.526409 -0.000459 -0.236146 0.816780 center 0.016 0.633 0.013 ntor 7 147.8394 -8.2703 57.8967 -47.6458 -85.9032 -76.9788 135.3521
State:	 36.800  14.080 120.348   0.912 -0.001 -0.409 70.473    147.84   -8.27   57.90  -47.65  -85.90  -76.98  135.35

DOCKED: MODEL       77
DOCKED: USER    Run = 77
DOCKED: USER    DPF = ligand_dock.biased.dpf
DOCKED: USER  
DOCKED: USER    Estimated Free Energy of Binding    =   -9.30 kcal/mol  [=(1)+(2)+(3)-(4)]
DOCKED: USER    Estimated Inhibition Constant, Ki   =  153.35 nM (nanomolar)  [Temperature = 298.15 K]
DOCKED: USER    
DOCKED: USER    (1) Final Intermolecular Energy     =  -11.38 kcal/mol
DOCKED: USER        vdW + Hbond + desolv Energy     =  -11.38 kcal/mol
DOCKED: USER        Electrostatic Energy            =   +0.00 kcal/mol
DOCKED: USER    (2) Final Total Internal Energy     =   -0.67 kcal/mol
DOCKED: USER    (3) Torsional Free Energy           =   +2.09 kcal/mol
DOCKED: USER    (4) Unbound System's Energy  [=(2)] =   -0.67 kcal/mol
DOCKED: USER    
DOCKED: USER    
DOCKED: USER    NEWDPF move ligand.pdbqt
DOCKED: USER    NEWDPF about 0.016000 0.633000 0.013000
DOCKED: USER    NEWDPF tran0 36.799900 14.080252 120.348246
DOCKED: USER    NEWDPF quaternion0 0.526409 -0.000459 -0.236146 0.816780
DOCKED: USER    NEWDPF axisangle0 0.912399 -0.000796 -0.409301 70.472599
DOCKED: USER    NEWDPF quat0 0.912399 -0.000796 -0.409301 70.472599
DOCKED: USER    NEWDPF dihe0 147.84 -8.27 57.90 -47.65 -85.90 -76.98 135.35 
DOCKED: USER  keepresnum = 1 
DOCKED: USER  
DOCKED: REMARK  Name = 
DOCKED: REMARK  7 active torsions:
DOCKED: REMARK  status: ('A' for Active; 'I' for Inactive)
DOCKED: REMARK    1  A    between atoms: C_3  and  C_4
DOCKED: REMARK    2  A    between atoms: C_4  and  C_5
DOCKED: REMARK    3  A    between atoms: C_5  and  C_6
DOCKED: REMARK    4  A    between atoms: C_6  and  C_7
DOCKED: REMARK    5  A    between atoms: C_7  and  C_8
DOCKED: REMARK    6  A    between atoms: C_8  and  C_9
DOCKED: REMARK    7  A    between atoms: C_9  and  C_10
DOCKED: REMARK                            x       y       z     vdW  Elec       q    Type
DOCKED: REMARK                         _______ _______ _______ _____ _____    ______ ____
DOCKED: USER                              x       y       z     vdW  Elec       q    Type
DOCKED: USER                           _______ _______ _______ _____ _____    ______ ____
DOCKED: ROOT
DOCKED: ATOM      1  C   UNL     1      37.905  13.969 122.257 -0.47 -0.00    +0.000 C 
DOCKED: ENDROOT
DOCKED: BRANCH   1   2
DOCKED: ATOM      2  C   UNL     1      38.509  13.443 120.947 -0.39 -0.00    +0.000 C 
DOCKED: BRANCH   2   3
DOCKED: ATOM      3  C   UNL     1      38.168  14.369 119.775 -0.30 -0.00    +0.000 C 
DOCKED: BRANCH   3   6
DOCKED: ATOM      4  O   UNL     1      37.170  13.011 116.390 -0.46 -0.00    +0.000 OA
DOCKED: ATOM      5  N   UNL     1      37.853  13.673 117.353 -0.35 -0.00    +0.000 N 
DOCKED: ATOM      6  C   UNL     1      37.421  13.620 118.715 -0.41 -0.00    +0.000 C 
DOCKED: ATOM      7  O   UNL     1      36.384  12.972 119.020 -0.46 -0.00    +0.000 OA
DOCKED: ATOM      8  H   UNL     1      38.653  14.193 117.115 -0.09 -0.00    +0.000 HD
DOCKED: ENDBRANCH   3   6
DOCKED: ENDBRANCH   2   3
DOCKED: ENDBRANCH   1   2
DOCKED: BRANCH   1   9
DOCKED: ATOM      9  C   UNL     1      36.621  13.224 122.668 -0.54 -0.00    +0.000 C 
DOCKED: BRANCH   9  10
DOCKED: ATOM     10  C   UNL     1      36.842  11.805 123.222 -0.68 -0.00    +0.000 C 
DOCKED: BRANCH  10  11
DOCKED: ATOM     11  C   UNL     1      35.808  10.795 122.706 -0.67 -0.00    +0.000 C 
DOCKED: BRANCH  11  12
DOCKED: ATOM     12  C   UNL     1      36.467   9.483 122.399 -0.71 -0.00    +0.000 C 
DOCKED: ATOM     13  N   UNL     1      36.821   8.591 123.458 -0.64 -0.00    +0.000 N 
DOCKED: ATOM     14  O   UNL     1      37.431   7.413 123.187 -2.20 -0.00    +0.000 OA
DOCKED: ATOM     15  O   UNL     1      36.744   9.187 121.207 -2.64 -0.00    +0.000 OA
DOCKED: ATOM     16  H   UNL     1      36.621   8.834 124.390 -0.37 -0.00    +0.000 HD
DOCKED: ENDBRANCH  11  12
DOCKED: ENDBRANCH  10  11
DOCKED: ENDBRANCH   9  10
DOCKED: ENDBRANCH   1   9
DOCKED: TORSDOF 7
DOCKED: TER
DOCKED: ENDMDL
________________________________________________________________________________


	BEGINNING GENETIC ALGORITHM DOCKING 78 of 100
Run: 78 Seed: 1269134554 249710912 [ Run 78 of 100 GA/GALS ]
Beginning LAMARCKIAN GENETIC ALGORITHM (LGA), with a maximum of 2500000 energy evaluations.

Final-Value: -11.520


	FINAL GENETIC ALGORITHM DOCKED STATE
	_______________________________________________


Detailed state:  trans 36.583 12.050 121.659 quatxyzw -0.764410 -0.120856 0.532976 -0.342064 center 0.016 0.633 0.013 ntor 7 6.3631 -30.6092 -99.6762 25.2236 19.7835 158.0486 6.1226
State:	 36.583  12.050 121.659  -0.813 -0.129  0.567 -139.995      6.36  -30.61  -99.68   25.22   19.78  158.05    6.12

DOCKED: MODEL       78
DOCKED: USER    Run = 78
DOCKED: USER    DPF = ligand_dock.biased.dpf
DOCKED: USER  
DOCKED: USER    Estimated Free Energy of Binding    =   -8.73 kcal/mol  [=(1)+(2)+(3)-(4)]
DOCKED: USER    Estimated Inhibition Constant, Ki   =  396.81 nM (nanomolar)  [Temperature = 298.15 K]
DOCKED: USER    
DOCKED: USER    (1) Final Intermolecular Energy     =  -10.82 kcal/mol
DOCKED: USER        vdW + Hbond + desolv Energy     =  -10.82 kcal/mol
DOCKED: USER        Electrostatic Energy            =   +0.00 kcal/mol
DOCKED: USER    (2) Final Total Internal Energy     =   -0.70 kcal/mol
DOCKED: USER    (3) Torsional Free Energy           =   +2.09 kcal/mol
DOCKED: USER    (4) Unbound System's Energy  [=(2)] =   -0.70 kcal/mol
DOCKED: USER    
DOCKED: USER    
DOCKED: USER    NEWDPF move ligand.pdbqt
DOCKED: USER    NEWDPF about 0.016000 0.633000 0.013000
DOCKED: USER    NEWDPF tran0 36.582887 12.049912 121.659195
DOCKED: USER    NEWDPF quaternion0 -0.764410 -0.120856 0.532976 -0.342064
DOCKED: USER    NEWDPF axisangle0 -0.813482 -0.128614 0.567191 -139.994656
DOCKED: USER    NEWDPF quat0 -0.813482 -0.128614 0.567191 -139.994656
DOCKED: USER    NEWDPF dihe0 6.36 -30.61 -99.68 25.22 19.78 158.05 6.12 
DOCKED: USER  keepresnum = 1 
DOCKED: USER  
DOCKED: REMARK  Name = 
DOCKED: REMARK  7 active torsions:
DOCKED: REMARK  status: ('A' for Active; 'I' for Inactive)
DOCKED: REMARK    1  A    between atoms: C_3  and  C_4
DOCKED: REMARK    2  A    between atoms: C_4  and  C_5
DOCKED: REMARK    3  A    between atoms: C_5  and  C_6
DOCKED: REMARK    4  A    between atoms: C_6  and  C_7
DOCKED: REMARK    5  A    between atoms: C_7  and  C_8
DOCKED: REMARK    6  A    between atoms: C_8  and  C_9
DOCKED: REMARK    7  A    between atoms: C_9  and  C_10
DOCKED: REMARK                            x       y       z     vdW  Elec       q    Type
DOCKED: REMARK                         _______ _______ _______ _____ _____    ______ ____
DOCKED: USER                              x       y       z     vdW  Elec       q    Type
DOCKED: USER                           _______ _______ _______ _____ _____    ______ ____
DOCKED: ROOT
DOCKED: ATOM      1  C   UNL     1      36.716  14.045 122.597 -0.46 -0.00    +0.000 C 
DOCKED: ENDROOT
DOCKED: BRANCH   1   2
DOCKED: ATOM      2  C   UNL     1      37.918  13.412 121.880 -0.46 -0.00    +0.000 C 
DOCKED: BRANCH   2   3
DOCKED: ATOM      3  C   UNL     1      38.755  14.479 121.168 -0.36 -0.00    +0.000 C 
DOCKED: BRANCH   3   6
DOCKED: ATOM      4  O   UNL     1      41.814  15.240 123.258 -1.06 +0.00    +0.000 OA
DOCKED: ATOM      5  N   UNL     1      40.986  14.639 122.371 -0.49 -0.00    +0.000 N 
DOCKED: ATOM      6  C   UNL     1      39.675  15.158 122.136 -0.39 -0.00    +0.000 C 
DOCKED: ATOM      7  O   UNL     1      39.275  16.168 122.775 -0.29 -0.00    +0.000 OA
DOCKED: ATOM      8  H   UNL     1      41.289  13.840 121.884 -0.03 +0.00    +0.000 HD
DOCKED: ENDBRANCH   3   6
DOCKED: ENDBRANCH   2   3
DOCKED: ENDBRANCH   1   2
DOCKED: BRANCH   1   9
DOCKED: ATOM      9  C   UNL     1      36.244  13.228 123.814 -0.59 -0.00    +0.000 C 
DOCKED: BRANCH   9  10
DOCKED: ATOM     10  C   UNL     1      35.904  11.757 123.519 -0.67 -0.00    +0.000 C 
DOCKED: BRANCH  10  11
DOCKED: ATOM     11  C   UNL     1      37.063  10.801 123.831 -0.32 -0.00    +0.000 C 
DOCKED: BRANCH  11  12
DOCKED: ATOM     12  C   UNL     1      37.056   9.642 122.880 -0.59 -0.00    +0.000 C 
DOCKED: ATOM     13  N   UNL     1      37.071   9.869 121.469 -0.56 -0.00    +0.000 N 
DOCKED: ATOM     14  O   UNL     1      37.048   8.826 120.606 -2.49 -0.00    +0.000 OA
DOCKED: ATOM     15  O   UNL     1      36.995   8.466 123.328 -2.02 -0.00    +0.000 OA
DOCKED: ATOM     16  H   UNL     1      37.099  10.789 121.122 -0.02 -0.00    +0.000 HD
DOCKED: ENDBRANCH  11  12
DOCKED: ENDBRANCH  10  11
DOCKED: ENDBRANCH   9  10
DOCKED: ENDBRANCH   1   9
DOCKED: TORSDOF 7
DOCKED: TER
DOCKED: ENDMDL
________________________________________________________________________________


	BEGINNING GENETIC ALGORITHM DOCKING 79 of 100
Run: 79 Seed: 112698712 1216329835 [ Run 79 of 100 GA/GALS ]
Beginning LAMARCKIAN GENETIC ALGORITHM (LGA), with a maximum of 2500000 energy evaluations.

Final-Value: -12.529


	FINAL GENETIC ALGORITHM DOCKED STATE
	_______________________________________________


Detailed state:  trans 36.643 11.200 121.860 quatxyzw -0.530958 0.346318 -0.736294 -0.236682 center 0.016 0.633 0.013 ntor 7 -60.3250 92.6883 -107.8434 13.1441 -120.2876 -165.4317 -16.7460
State:	 36.643  11.200 121.860  -0.546  0.356 -0.758 -152.618    -60.33   92.69 -107.84   13.14 -120.29 -165.43  -16.75

DOCKED: MODEL       79
DOCKED: USER    Run = 79
DOCKED: USER    DPF = ligand_dock.biased.dpf
DOCKED: USER  
DOCKED: USER    Estimated Free Energy of Binding    =   -9.64 kcal/mol  [=(1)+(2)+(3)-(4)]
DOCKED: USER    Estimated Inhibition Constant, Ki   =   86.47 nM (nanomolar)  [Temperature = 298.15 K]
DOCKED: USER    
DOCKED: USER    (1) Final Intermolecular Energy     =  -11.72 kcal/mol
DOCKED: USER        vdW + Hbond + desolv Energy     =  -11.72 kcal/mol
DOCKED: USER        Electrostatic Energy            =   +0.00 kcal/mol
DOCKED: USER    (2) Final Total Internal Energy     =   -0.81 kcal/mol
DOCKED: USER    (3) Torsional Free Energy           =   +2.09 kcal/mol
DOCKED: USER    (4) Unbound System's Energy  [=(2)] =   -0.81 kcal/mol
DOCKED: USER    
DOCKED: USER    
DOCKED: USER    NEWDPF move ligand.pdbqt
DOCKED: USER    NEWDPF about 0.016000 0.633000 0.013000
DOCKED: USER    NEWDPF tran0 36.643134 11.200062 121.860430
DOCKED: USER    NEWDPF quaternion0 -0.530958 0.346318 -0.736294 -0.236682
DOCKED: USER    NEWDPF axisangle0 -0.546485 0.356445 -0.757827 -152.618363
DOCKED: USER    NEWDPF quat0 -0.546485 0.356445 -0.757827 -152.618363
DOCKED: USER    NEWDPF dihe0 -60.33 92.69 -107.84 13.14 -120.29 -165.43 -16.75 
DOCKED: USER  keepresnum = 1 
DOCKED: USER  
DOCKED: REMARK  Name = 
DOCKED: REMARK  7 active torsions:
DOCKED: REMARK  status: ('A' for Active; 'I' for Inactive)
DOCKED: REMARK    1  A    between atoms: C_3  and  C_4
DOCKED: REMARK    2  A    between atoms: C_4  and  C_5
DOCKED: REMARK    3  A    between atoms: C_5  and  C_6
DOCKED: REMARK    4  A    between atoms: C_6  and  C_7
DOCKED: REMARK    5  A    between atoms: C_7  and  C_8
DOCKED: REMARK    6  A    between atoms: C_8  and  C_9
DOCKED: REMARK    7  A    between atoms: C_9  and  C_10
DOCKED: REMARK                            x       y       z     vdW  Elec       q    Type
DOCKED: REMARK                         _______ _______ _______ _____ _____    ______ ____
DOCKED: USER                              x       y       z     vdW  Elec       q    Type
DOCKED: USER                           _______ _______ _______ _____ _____    ______ ____
DOCKED: ROOT
DOCKED: ATOM      1  C   UNL     1      36.988  12.108 123.844 -0.63 -0.00    +0.000 C 
DOCKED: ENDROOT
DOCKED: BRANCH   1   2
DOCKED: ATOM      2  C   UNL     1      35.639  11.477 123.473 -0.59 -0.00    +0.000 C 
DOCKED: BRANCH   2   3
DOCKED: ATOM      3  C   UNL     1      35.703  10.815 122.093 -0.52 -0.00    +0.000 C 
DOCKED: BRANCH   3   6
DOCKED: ATOM      4  O   UNL     1      37.389   7.718 123.458 -2.62 -0.00    +0.000 OA
DOCKED: ATOM      5  N   UNL     1      36.656   8.854 123.395 -0.60 -0.00    +0.000 N 
DOCKED: ATOM      6  C   UNL     1      36.499   9.548 122.155 -0.68 -0.00    +0.000 C 
DOCKED: ATOM      7  O   UNL     1      37.065   9.114 121.116 -2.73 -0.00    +0.000 OA
DOCKED: ATOM      8  H   UNL     1      36.228   9.205 124.208 -0.32 -0.00    +0.000 HD
DOCKED: ENDBRANCH   3   6
DOCKED: ENDBRANCH   2   3
DOCKED: ENDBRANCH   1   2
DOCKED: BRANCH   1   9
DOCKED: ATOM      9  C   UNL     1      37.355  13.309 122.952 -0.56 -0.00    +0.000 C 
DOCKED: BRANCH   9  10
DOCKED: ATOM     10  C   UNL     1      37.896  12.945 121.559 -0.43 -0.00    +0.000 C 
DOCKED: BRANCH  10  11
DOCKED: ATOM     11  C   UNL     1      37.240  13.754 120.432 -0.39 -0.00    +0.000 C 
DOCKED: BRANCH  11  12
DOCKED: ATOM     12  C   UNL     1      37.405  13.050 119.118 -0.44 -0.00    +0.000 C 
DOCKED: ATOM     13  N   UNL     1      36.835  13.602 117.929 -0.39 -0.00    +0.000 N 
DOCKED: ATOM     14  O   UNL     1      36.968  12.962 116.744 -0.46 -0.00    +0.000 OA
DOCKED: ATOM     15  O   UNL     1      38.015  11.949 119.071 -0.37 -0.00    +0.000 OA
DOCKED: ATOM     16  H   UNL     1      36.342  14.452 117.973 -0.01 -0.00    +0.000 HD
DOCKED: ENDBRANCH  11  12
DOCKED: ENDBRANCH  10  11
DOCKED: ENDBRANCH   9  10
DOCKED: ENDBRANCH   1   9
DOCKED: TORSDOF 7
DOCKED: TER
DOCKED: ENDMDL
________________________________________________________________________________


	BEGINNING GENETIC ALGORITHM DOCKING 80 of 100
Run: 80 Seed: 1658975331 1226527030 [ Run 80 of 100 GA/GALS ]
Beginning LAMARCKIAN GENETIC ALGORITHM (LGA), with a maximum of 2500000 energy evaluations.

Final-Value: -12.436


	FINAL GENETIC ALGORITHM DOCKED STATE
	_______________________________________________


Detailed state:  trans 37.624 11.571 123.567 quatxyzw 0.128176 -0.112883 -0.934045 -0.313669 center 0.016 0.633 0.013 ntor 7 146.7040 169.4182 -38.8242 175.0101 -119.3566 -73.3870 165.1308
State:	 37.624  11.571 123.567   0.135 -0.119 -0.984 -143.439    146.70  169.42  -38.82  175.01 -119.36  -73.39  165.13

DOCKED: MODEL       80
DOCKED: USER    Run = 80
DOCKED: USER    DPF = ligand_dock.biased.dpf
DOCKED: USER  
DOCKED: USER    Estimated Free Energy of Binding    =   -9.64 kcal/mol  [=(1)+(2)+(3)-(4)]
DOCKED: USER    Estimated Inhibition Constant, Ki   =   85.85 nM (nanomolar)  [Temperature = 298.15 K]
DOCKED: USER    
DOCKED: USER    (1) Final Intermolecular Energy     =  -11.73 kcal/mol
DOCKED: USER        vdW + Hbond + desolv Energy     =  -11.73 kcal/mol
DOCKED: USER        Electrostatic Energy            =   +0.00 kcal/mol
DOCKED: USER    (2) Final Total Internal Energy     =   -0.71 kcal/mol
DOCKED: USER    (3) Torsional Free Energy           =   +2.09 kcal/mol
DOCKED: USER    (4) Unbound System's Energy  [=(2)] =   -0.71 kcal/mol
DOCKED: USER    
DOCKED: USER    
DOCKED: USER    NEWDPF move ligand.pdbqt
DOCKED: USER    NEWDPF about 0.016000 0.633000 0.013000
DOCKED: USER    NEWDPF tran0 37.624491 11.571464 123.567295
DOCKED: USER    NEWDPF quaternion0 0.128176 -0.112883 -0.934045 -0.313669
DOCKED: USER    NEWDPF axisangle0 0.134988 -0.118883 -0.983689 -143.439096
DOCKED: USER    NEWDPF quat0 0.134988 -0.118883 -0.983689 -143.439096
DOCKED: USER    NEWDPF dihe0 146.70 169.42 -38.82 175.01 -119.36 -73.39 165.13 
DOCKED: USER  keepresnum = 1 
DOCKED: USER  
DOCKED: REMARK  Name = 
DOCKED: REMARK  7 active torsions:
DOCKED: REMARK  status: ('A' for Active; 'I' for Inactive)
DOCKED: REMARK    1  A    between atoms: C_3  and  C_4
DOCKED: REMARK    2  A    between atoms: C_4  and  C_5
DOCKED: REMARK    3  A    between atoms: C_5  and  C_6
DOCKED: REMARK    4  A    between atoms: C_6  and  C_7
DOCKED: REMARK    5  A    between atoms: C_7  and  C_8
DOCKED: REMARK    6  A    between atoms: C_8  and  C_9
DOCKED: REMARK    7  A    between atoms: C_9  and  C_10
DOCKED: REMARK                            x       y       z     vdW  Elec       q    Type
DOCKED: REMARK                         _______ _______ _______ _____ _____    ______ ____
DOCKED: USER                              x       y       z     vdW  Elec       q    Type
DOCKED: USER                           _______ _______ _______ _____ _____    ______ ____
DOCKED: ROOT
DOCKED: ATOM      1  C   UNL     1      35.946  12.987 123.329 -0.59 -0.00    +0.000 C 
DOCKED: ENDROOT
DOCKED: BRANCH   1   2
DOCKED: ATOM      2  C   UNL     1      36.204  11.868 122.310 -0.58 -0.00    +0.000 C 
DOCKED: BRANCH   2   3
DOCKED: ATOM      3  C   UNL     1      37.332  10.945 122.782 -0.26 -0.00    +0.000 C 
DOCKED: BRANCH   3   6
DOCKED: ATOM      4  O   UNL     1      36.870   7.206 123.098 -2.10 -0.00    +0.000 OA
DOCKED: ATOM      5  N   UNL     1      37.127   8.495 123.418 -0.67 -0.00    +0.000 N 
DOCKED: ATOM      6  C   UNL     1      37.029   9.521 122.428 -0.62 -0.00    +0.000 C 
DOCKED: ATOM      7  O   UNL     1      36.724   9.224 121.242 -2.60 -0.00    +0.000 OA
DOCKED: ATOM      8  H   UNL     1      37.382   8.729 124.339 -0.57 -0.00    +0.000 HD
DOCKED: ENDBRANCH   3   6
DOCKED: ENDBRANCH   2   3
DOCKED: ENDBRANCH   1   2
DOCKED: BRANCH   1   9
DOCKED: ATOM      9  C   UNL     1      37.108  13.993 123.425 -0.51 -0.00    +0.000 C 
DOCKED: BRANCH   9  10
DOCKED: ATOM     10  C   UNL     1      36.861  15.341 122.725 -0.38 -0.00    +0.000 C 
DOCKED: BRANCH  10  11
DOCKED: ATOM     11  C   UNL     1      38.059  15.808 121.888 -0.26 -0.00    +0.000 C 
DOCKED: BRANCH  11  12
DOCKED: ATOM     12  C   UNL     1      39.153  14.783 121.922 -0.40 -0.00    +0.000 C 
DOCKED: ATOM     13  N   UNL     1      40.326  15.007 122.708 -0.44 -0.00    +0.000 N 
DOCKED: ATOM     14  O   UNL     1      41.322  14.091 122.728 -1.07 +0.00    +0.000 OA
DOCKED: ATOM     15  O   UNL     1      39.053  13.739 121.223 -0.65 -0.00    +0.000 OA
DOCKED: ATOM     16  H   UNL     1      40.409  15.832 123.237 -0.02 -0.00    +0.000 HD
DOCKED: ENDBRANCH  11  12
DOCKED: ENDBRANCH  10  11
DOCKED: ENDBRANCH   9  10
DOCKED: ENDBRANCH   1   9
DOCKED: TORSDOF 7
DOCKED: TER
DOCKED: ENDMDL
________________________________________________________________________________


	BEGINNING GENETIC ALGORITHM DOCKING 81 of 100
Run: 81 Seed: 816333951 335832605 [ Run 81 of 100 GA/GALS ]
Beginning LAMARCKIAN GENETIC ALGORITHM (LGA), with a maximum of 2500000 energy evaluations.

Final-Value: -12.087


	FINAL GENETIC ALGORITHM DOCKED STATE
	_______________________________________________


Detailed state:  trans 36.272 13.286 123.049 quatxyzw -0.612736 -0.216805 -0.574367 0.497648 center 0.016 0.633 0.013 ntor 7 -29.8136 27.1691 10.6541 -24.1307 -33.2033 160.6700 -49.3868
State:	 36.272  13.286 123.049  -0.706 -0.250 -0.662 120.311    -29.81   27.17   10.65  -24.13  -33.20  160.67  -49.39

DOCKED: MODEL       81
DOCKED: USER    Run = 81
DOCKED: USER    DPF = ligand_dock.biased.dpf
DOCKED: USER  
DOCKED: USER    Estimated Free Energy of Binding    =   -9.54 kcal/mol  [=(1)+(2)+(3)-(4)]
DOCKED: USER    Estimated Inhibition Constant, Ki   =  102.04 nM (nanomolar)  [Temperature = 298.15 K]
DOCKED: USER    
DOCKED: USER    (1) Final Intermolecular Energy     =  -11.63 kcal/mol
DOCKED: USER        vdW + Hbond + desolv Energy     =  -11.63 kcal/mol
DOCKED: USER        Electrostatic Energy            =   +0.00 kcal/mol
DOCKED: USER    (2) Final Total Internal Energy     =   -0.46 kcal/mol
DOCKED: USER    (3) Torsional Free Energy           =   +2.09 kcal/mol
DOCKED: USER    (4) Unbound System's Energy  [=(2)] =   -0.46 kcal/mol
DOCKED: USER    
DOCKED: USER    
DOCKED: USER    NEWDPF move ligand.pdbqt
DOCKED: USER    NEWDPF about 0.016000 0.633000 0.013000
DOCKED: USER    NEWDPF tran0 36.272272 13.286145 123.049239
DOCKED: USER    NEWDPF quaternion0 -0.612736 -0.216805 -0.574367 0.497648
DOCKED: USER    NEWDPF axisangle0 -0.706422 -0.249954 -0.662186 120.310973
DOCKED: USER    NEWDPF quat0 -0.706422 -0.249954 -0.662186 120.310973
DOCKED: USER    NEWDPF dihe0 -29.81 27.17 10.65 -24.13 -33.20 160.67 -49.39 
DOCKED: USER  keepresnum = 1 
DOCKED: USER  
DOCKED: REMARK  Name = 
DOCKED: REMARK  7 active torsions:
DOCKED: REMARK  status: ('A' for Active; 'I' for Inactive)
DOCKED: REMARK    1  A    between atoms: C_3  and  C_4
DOCKED: REMARK    2  A    between atoms: C_4  and  C_5
DOCKED: REMARK    3  A    between atoms: C_5  and  C_6
DOCKED: REMARK    4  A    between atoms: C_6  and  C_7
DOCKED: REMARK    5  A    between atoms: C_7  and  C_8
DOCKED: REMARK    6  A    between atoms: C_8  and  C_9
DOCKED: REMARK    7  A    between atoms: C_9  and  C_10
DOCKED: REMARK                            x       y       z     vdW  Elec       q    Type
DOCKED: REMARK                         _______ _______ _______ _____ _____    ______ ____
DOCKED: USER                              x       y       z     vdW  Elec       q    Type
DOCKED: USER                           _______ _______ _______ _____ _____    ______ ____
DOCKED: ROOT
DOCKED: ATOM      1  C   UNL     1      37.473  14.365 121.542 -0.38 -0.00    +0.000 C 
DOCKED: ENDROOT
DOCKED: BRANCH   1   2
DOCKED: ATOM      2  C   UNL     1      36.325  15.052 122.296 -0.23 -0.00    +0.000 C 
DOCKED: BRANCH   2   3
DOCKED: ATOM      3  C   UNL     1      36.839  15.747 123.561 -0.36 -0.00    +0.000 C 
DOCKED: BRANCH   3   6
DOCKED: ATOM      4  O   UNL     1      33.657  15.602 125.599 -0.81 -0.00    +0.000 OA
DOCKED: ATOM      5  N   UNL     1      34.702  15.220 124.828 -0.54 -0.00    +0.000 N 
DOCKED: ATOM      6  C   UNL     1      35.694  16.169 124.430 -0.34 -0.00    +0.000 C 
DOCKED: ATOM      7  O   UNL     1      35.585  17.376 124.778 -0.33 -0.00    +0.000 OA
DOCKED: ATOM      8  H   UNL     1      34.780  14.283 124.541 -0.05 -0.00    +0.000 HD
DOCKED: ENDBRANCH   3   6
DOCKED: ENDBRANCH   2   3
DOCKED: ENDBRANCH   1   2
DOCKED: BRANCH   1   9
DOCKED: ATOM      9  C   UNL     1      37.001  13.178 120.682 -0.41 -0.00    +0.000 C 
DOCKED: BRANCH   9  10
DOCKED: ATOM     10  C   UNL     1      37.449  11.793 121.181 -0.46 -0.00    +0.000 C 
DOCKED: BRANCH  10  11
DOCKED: ATOM     11  C   UNL     1      36.358  11.061 121.973 -0.61 -0.00    +0.000 C 
DOCKED: BRANCH  11  12
DOCKED: ATOM     12  C   UNL     1      36.682   9.601 122.084 -0.69 -0.00    +0.000 C 
DOCKED: ATOM     13  N   UNL     1      37.009   9.031 123.353 -0.61 -0.00    +0.000 N 
DOCKED: ATOM     14  O   UNL     1      37.318   7.717 123.455 -2.63 -0.00    +0.000 OA
DOCKED: ATOM     15  O   UNL     1      36.705   8.886 121.048 -2.62 -0.00    +0.000 OA
DOCKED: ATOM     16  H   UNL     1      37.009   9.596 124.158 -0.56 -0.00    +0.000 HD
DOCKED: ENDBRANCH  11  12
DOCKED: ENDBRANCH  10  11
DOCKED: ENDBRANCH   9  10
DOCKED: ENDBRANCH   1   9
DOCKED: TORSDOF 7
DOCKED: TER
DOCKED: ENDMDL
________________________________________________________________________________


	BEGINNING GENETIC ALGORITHM DOCKING 82 of 100
Run: 82 Seed: 1462108000 232231730 [ Run 82 of 100 GA/GALS ]
Beginning LAMARCKIAN GENETIC ALGORITHM (LGA), with a maximum of 2500000 energy evaluations.

Final-Value: -12.137


	FINAL GENETIC ALGORITHM DOCKED STATE
	_______________________________________________


Detailed state:  trans 36.910 12.904 122.443 quatxyzw 0.527507 -0.587533 -0.540999 -0.289588 center 0.016 0.633 0.013 ntor 7 45.7815 -176.4740 -45.1521 179.4265 -77.1380 -164.0395 -34.8696
State:	 36.910  12.904 122.443   0.551 -0.614 -0.565 -146.333     45.78 -176.47  -45.15  179.43  -77.14 -164.04  -34.87

DOCKED: MODEL       82
DOCKED: USER    Run = 82
DOCKED: USER    DPF = ligand_dock.biased.dpf
DOCKED: USER  
DOCKED: USER    Estimated Free Energy of Binding    =   -9.35 kcal/mol  [=(1)+(2)+(3)-(4)]
DOCKED: USER    Estimated Inhibition Constant, Ki   =  141.11 nM (nanomolar)  [Temperature = 298.15 K]
DOCKED: USER    
DOCKED: USER    (1) Final Intermolecular Energy     =  -11.43 kcal/mol
DOCKED: USER        vdW + Hbond + desolv Energy     =  -11.43 kcal/mol
DOCKED: USER        Electrostatic Energy            =   +0.00 kcal/mol
DOCKED: USER    (2) Final Total Internal Energy     =   -0.70 kcal/mol
DOCKED: USER    (3) Torsional Free Energy           =   +2.09 kcal/mol
DOCKED: USER    (4) Unbound System's Energy  [=(2)] =   -0.70 kcal/mol
DOCKED: USER    
DOCKED: USER    
DOCKED: USER    NEWDPF move ligand.pdbqt
DOCKED: USER    NEWDPF about 0.016000 0.633000 0.013000
DOCKED: USER    NEWDPF tran0 36.909877 12.903578 122.443018
DOCKED: USER    NEWDPF quaternion0 0.527507 -0.587533 -0.540999 -0.289588
DOCKED: USER    NEWDPF axisangle0 0.551122 -0.613835 -0.565218 -146.333456
DOCKED: USER    NEWDPF quat0 0.551122 -0.613835 -0.565218 -146.333456
DOCKED: USER    NEWDPF dihe0 45.78 -176.47 -45.15 179.43 -77.14 -164.04 -34.87 
DOCKED: USER  keepresnum = 1 
DOCKED: USER  
DOCKED: REMARK  Name = 
DOCKED: REMARK  7 active torsions:
DOCKED: REMARK  status: ('A' for Active; 'I' for Inactive)
DOCKED: REMARK    1  A    between atoms: C_3  and  C_4
DOCKED: REMARK    2  A    between atoms: C_4  and  C_5
DOCKED: REMARK    3  A    between atoms: C_5  and  C_6
DOCKED: REMARK    4  A    between atoms: C_6  and  C_7
DOCKED: REMARK    5  A    between atoms: C_7  and  C_8
DOCKED: REMARK    6  A    between atoms: C_8  and  C_9
DOCKED: REMARK    7  A    between atoms: C_9  and  C_10
DOCKED: REMARK                            x       y       z     vdW  Elec       q    Type
DOCKED: REMARK                         _______ _______ _______ _____ _____    ______ ____
DOCKED: USER                              x       y       z     vdW  Elec       q    Type
DOCKED: USER                           _______ _______ _______ _____ _____    ______ ____
DOCKED: ROOT
DOCKED: ATOM      1  C   UNL     1      36.989  12.929 120.236 -0.45 -0.00    +0.000 C 
DOCKED: ENDROOT
DOCKED: BRANCH   1   2
DOCKED: ATOM      2  C   UNL     1      37.668  11.819 121.052 -0.29 -0.00    +0.000 C 
DOCKED: BRANCH   2   3
DOCKED: ATOM      3  C   UNL     1      36.716  11.258 122.113 -0.62 -0.00    +0.000 C 
DOCKED: BRANCH   3   6
DOCKED: ATOM      4  O   UNL     1      37.065   7.721 123.403 -2.67 -0.00    +0.000 OA
DOCKED: ATOM      5  N   UNL     1      36.987   9.072 123.376 -0.59 -0.00    +0.000 N 
DOCKED: ATOM      6  C   UNL     1      36.783   9.762 122.141 -0.66 -0.00    +0.000 C 
DOCKED: ATOM      7  O   UNL     1      36.698   9.113 121.064 -2.61 +0.00    +0.000 OA
DOCKED: ATOM      8  H   UNL     1      37.070   9.582 124.213 -0.58 -0.00    +0.000 HD
DOCKED: ENDBRANCH   3   6
DOCKED: ENDBRANCH   2   3
DOCKED: ENDBRANCH   1   2
DOCKED: BRANCH   1   9
DOCKED: ATOM      9  C   UNL     1      37.571  14.326 120.522 -0.34 -0.00    +0.000 C 
DOCKED: BRANCH   9  10
DOCKED: ATOM     10  C   UNL     1      36.791  15.155 121.559 -0.22 -0.00    +0.000 C 
DOCKED: BRANCH  10  11
DOCKED: ATOM     11  C   UNL     1      37.704  15.831 122.591 -0.31 -0.00    +0.000 C 
DOCKED: BRANCH  11  12
DOCKED: ATOM     12  C   UNL     1      39.144  15.642 122.220 -0.33 -0.00    +0.000 C 
DOCKED: ATOM     13  N   UNL     1      39.874  14.519 122.717 -0.43 -0.00    +0.000 N 
DOCKED: ATOM     14  O   UNL     1      41.179  14.353 122.398 -1.09 +0.00    +0.000 OA
DOCKED: ATOM     15  O   UNL     1      39.721  16.499 121.500 -0.18 -0.00    +0.000 OA
DOCKED: ATOM     16  H   UNL     1      39.425  13.861 123.295 -0.05 -0.00    +0.000 HD
DOCKED: ENDBRANCH  11  12
DOCKED: ENDBRANCH  10  11
DOCKED: ENDBRANCH   9  10
DOCKED: ENDBRANCH   1   9
DOCKED: TORSDOF 7
DOCKED: TER
DOCKED: ENDMDL
________________________________________________________________________________


	BEGINNING GENETIC ALGORITHM DOCKING 83 of 100
Run: 83 Seed: 1599332766 385497936 [ Run 83 of 100 GA/GALS ]
Beginning LAMARCKIAN GENETIC ALGORITHM (LGA), with a maximum of 2500000 energy evaluations.

Final-Value: -11.873


	FINAL GENETIC ALGORITHM DOCKED STATE
	_______________________________________________


Detailed state:  trans 38.297 11.191 122.062 quatxyzw -0.211442 -0.214776 -0.943081 -0.140578 center 0.016 0.633 0.013 ntor 7 83.7258 -171.5429 43.7633 -128.2498 -58.0693 150.0059 179.9634
State:	 38.297  11.191 122.062  -0.214 -0.217 -0.953 -163.837     83.73 -171.54   43.76 -128.25  -58.07  150.01  179.96

DOCKED: MODEL       83
DOCKED: USER    Run = 83
DOCKED: USER    DPF = ligand_dock.biased.dpf
DOCKED: USER  
DOCKED: USER    Estimated Free Energy of Binding    =   -9.27 kcal/mol  [=(1)+(2)+(3)-(4)]
DOCKED: USER    Estimated Inhibition Constant, Ki   =  160.91 nM (nanomolar)  [Temperature = 298.15 K]
DOCKED: USER    
DOCKED: USER    (1) Final Intermolecular Energy     =  -11.36 kcal/mol
DOCKED: USER        vdW + Hbond + desolv Energy     =  -11.36 kcal/mol
DOCKED: USER        Electrostatic Energy            =   +0.00 kcal/mol
DOCKED: USER    (2) Final Total Internal Energy     =   -0.52 kcal/mol
DOCKED: USER    (3) Torsional Free Energy           =   +2.09 kcal/mol
DOCKED: USER    (4) Unbound System's Energy  [=(2)] =   -0.52 kcal/mol
DOCKED: USER    
DOCKED: USER    
DOCKED: USER    NEWDPF move ligand.pdbqt
DOCKED: USER    NEWDPF about 0.016000 0.633000 0.013000
DOCKED: USER    NEWDPF tran0 38.296530 11.190520 122.062159
DOCKED: USER    NEWDPF quaternion0 -0.211442 -0.214776 -0.943081 -0.140578
DOCKED: USER    NEWDPF axisangle0 -0.213562 -0.216930 -0.952540 -163.837433
DOCKED: USER    NEWDPF quat0 -0.213562 -0.216930 -0.952540 -163.837433
DOCKED: USER    NEWDPF dihe0 83.73 -171.54 43.76 -128.25 -58.07 150.01 179.96 
DOCKED: USER  keepresnum = 1 
DOCKED: USER  
DOCKED: REMARK  Name = 
DOCKED: REMARK  7 active torsions:
DOCKED: REMARK  status: ('A' for Active; 'I' for Inactive)
DOCKED: REMARK    1  A    between atoms: C_3  and  C_4
DOCKED: REMARK    2  A    between atoms: C_4  and  C_5
DOCKED: REMARK    3  A    between atoms: C_5  and  C_6
DOCKED: REMARK    4  A    between atoms: C_6  and  C_7
DOCKED: REMARK    5  A    between atoms: C_7  and  C_8
DOCKED: REMARK    6  A    between atoms: C_8  and  C_9
DOCKED: REMARK    7  A    between atoms: C_9  and  C_10
DOCKED: REMARK                            x       y       z     vdW  Elec       q    Type
DOCKED: REMARK                         _______ _______ _______ _____ _____    ______ ____
DOCKED: USER                              x       y       z     vdW  Elec       q    Type
DOCKED: USER                           _______ _______ _______ _____ _____    ______ ____
DOCKED: ROOT
DOCKED: ATOM      1  C   UNL     1      37.307  13.161 121.941 -0.50 -0.00    +0.000 C 
DOCKED: ENDROOT
DOCKED: BRANCH   1   2
DOCKED: ATOM      2  C   UNL     1      36.585  11.872 121.522 -0.54 -0.00    +0.000 C 
DOCKED: BRANCH   2   3
DOCKED: ATOM      3  C   UNL     1      36.332  10.967 122.731 -0.69 -0.00    +0.000 C 
DOCKED: BRANCH   3   6
DOCKED: ATOM      4  O   UNL     1      37.113   7.292 123.156 -2.26 -0.00    +0.000 OA
DOCKED: ATOM      5  N   UNL     1      36.785   8.572 123.446 -0.65 -0.00    +0.000 N 
DOCKED: ATOM      6  C   UNL     1      36.676   9.546 122.405 -0.71 -0.00    +0.000 C 
DOCKED: ATOM      7  O   UNL     1      36.908   9.218 121.210 -2.69 -0.00    +0.000 OA
DOCKED: ATOM      8  H   UNL     1      36.620   8.836 124.379 -0.38 -0.00    +0.000 HD
DOCKED: ENDBRANCH   3   6
DOCKED: ENDBRANCH   2   3
DOCKED: ENDBRANCH   1   2
DOCKED: BRANCH   1   9
DOCKED: ATOM      9  C   UNL     1      38.554  13.456 121.087 -0.37 -0.00    +0.000 C 
DOCKED: BRANCH   9  10
DOCKED: ATOM     10  C   UNL     1      38.505  14.776 120.297 -0.28 -0.00    +0.000 C 
DOCKED: BRANCH  10  11
DOCKED: ATOM     11  C   UNL     1      39.039  15.971 121.097 -0.21 -0.00    +0.000 C 
DOCKED: BRANCH  11  12
DOCKED: ATOM     12  C   UNL     1      40.463  15.734 121.504 -0.30 -0.00    +0.000 C 
DOCKED: ATOM     13  N   UNL     1      40.758  15.021 122.707 -0.48 -0.00    +0.000 N 
DOCKED: ATOM     14  O   UNL     1      42.042  14.819 123.086 -1.04 +0.00    +0.000 OA
DOCKED: ATOM     15  O   UNL     1      41.399  16.201 120.802 -0.22 -0.00    +0.000 OA
DOCKED: ATOM     16  H   UNL     1      40.024  14.675 123.262 -0.03 -0.00    +0.000 HD
DOCKED: ENDBRANCH  11  12
DOCKED: ENDBRANCH  10  11
DOCKED: ENDBRANCH   9  10
DOCKED: ENDBRANCH   1   9
DOCKED: TORSDOF 7
DOCKED: TER
DOCKED: ENDMDL
________________________________________________________________________________


	BEGINNING GENETIC ALGORITHM DOCKING 84 of 100
Run: 84 Seed: 1642730304 1630313650 [ Run 84 of 100 GA/GALS ]
Beginning LAMARCKIAN GENETIC ALGORITHM (LGA), with a maximum of 2500000 energy evaluations.

Final-Value: -12.855


	FINAL GENETIC ALGORITHM DOCKED STATE
	_______________________________________________


Detailed state:  trans 35.105 11.694 123.270 quatxyzw 0.838447 -0.314592 -0.395805 0.203414 center 0.016 0.633 0.013 ntor 7 -45.5525 18.0557 -0.9287 -71.9360 -66.1228 168.1060 -138.0743
State:	 35.105  11.694 123.270   0.856 -0.321 -0.404 156.527    -45.55   18.06   -0.93  -71.94  -66.12  168.11 -138.07

DOCKED: MODEL       84
DOCKED: USER    Run = 84
DOCKED: USER    DPF = ligand_dock.biased.dpf
DOCKED: USER  
DOCKED: USER    Estimated Free Energy of Binding    =  -10.38 kcal/mol  [=(1)+(2)+(3)-(4)]
DOCKED: USER    Estimated Inhibition Constant, Ki   =   24.45 nM (nanomolar)  [Temperature = 298.15 K]
DOCKED: USER    
DOCKED: USER    (1) Final Intermolecular Energy     =  -12.47 kcal/mol
DOCKED: USER        vdW + Hbond + desolv Energy     =  -12.47 kcal/mol
DOCKED: USER        Electrostatic Energy            =   +0.00 kcal/mol
DOCKED: USER    (2) Final Total Internal Energy     =   -0.38 kcal/mol
DOCKED: USER    (3) Torsional Free Energy           =   +2.09 kcal/mol
DOCKED: USER    (4) Unbound System's Energy  [=(2)] =   -0.38 kcal/mol
DOCKED: USER    
DOCKED: USER    
DOCKED: USER    NEWDPF move ligand.pdbqt
DOCKED: USER    NEWDPF about 0.016000 0.633000 0.013000
DOCKED: USER    NEWDPF tran0 35.105291 11.693908 123.270307
DOCKED: USER    NEWDPF quaternion0 0.838447 -0.314592 -0.395805 0.203414
DOCKED: USER    NEWDPF axisangle0 0.856350 -0.321310 -0.404257 156.526684
DOCKED: USER    NEWDPF quat0 0.856350 -0.321310 -0.404257 156.526684
DOCKED: USER    NEWDPF dihe0 -45.55 18.06 -0.93 -71.94 -66.12 168.11 -138.07 
DOCKED: USER  keepresnum = 1 
DOCKED: USER  
DOCKED: REMARK  Name = 
DOCKED: REMARK  7 active torsions:
DOCKED: REMARK  status: ('A' for Active; 'I' for Inactive)
DOCKED: REMARK    1  A    between atoms: C_3  and  C_4
DOCKED: REMARK    2  A    between atoms: C_4  and  C_5
DOCKED: REMARK    3  A    between atoms: C_5  and  C_6
DOCKED: REMARK    4  A    between atoms: C_6  and  C_7
DOCKED: REMARK    5  A    between atoms: C_7  and  C_8
DOCKED: REMARK    6  A    between atoms: C_8  and  C_9
DOCKED: REMARK    7  A    between atoms: C_9  and  C_10
DOCKED: REMARK                            x       y       z     vdW  Elec       q    Type
DOCKED: REMARK                         _______ _______ _______ _____ _____    ______ ____
DOCKED: USER                              x       y       z     vdW  Elec       q    Type
DOCKED: USER                           _______ _______ _______ _____ _____    ______ ____
DOCKED: ROOT
DOCKED: ATOM      1  C   UNL     1      36.523  13.322 122.807 -0.54 -0.00    +0.000 C 
DOCKED: ENDROOT
DOCKED: BRANCH   1   2
DOCKED: ATOM      2  C   UNL     1      36.988  11.864 122.934 -0.65 -0.00    +0.000 C 
DOCKED: BRANCH   2   3
DOCKED: ATOM      3  C   UNL     1      36.265  10.968 121.924 -0.56 -0.00    +0.000 C 
DOCKED: BRANCH   3   6
DOCKED: ATOM      4  O   UNL     1      37.441   7.723 123.468 -2.60 -0.00    +0.000 OA
DOCKED: ATOM      5  N   UNL     1      37.007   8.999 123.345 -0.61 -0.00    +0.000 N 
DOCKED: ATOM      6  C   UNL     1      36.727   9.549 122.056 -0.68 -0.00    +0.000 C 
DOCKED: ATOM      7  O   UNL     1      36.905   8.851 121.022 -2.66 -0.00    +0.000 OA
DOCKED: ATOM      8  H   UNL     1      36.883   9.552 124.149 -0.53 -0.00    +0.000 HD
DOCKED: ENDBRANCH   3   6
DOCKED: ENDBRANCH   2   3
DOCKED: ENDBRANCH   1   2
DOCKED: BRANCH   1   9
DOCKED: ATOM      9  C   UNL     1      35.924  13.878 124.112 -0.48 -0.00    +0.000 C 
DOCKED: BRANCH   9  10
DOCKED: ATOM     10  C   UNL     1      35.876  15.413 124.204 -0.44 -0.00    +0.000 C 
DOCKED: BRANCH  10  11
DOCKED: ATOM     11  C   UNL     1      34.458  15.978 124.042 -0.57 -0.00    +0.000 C 
DOCKED: BRANCH  11  12
DOCKED: ATOM     12  C   UNL     1      34.016  16.653 125.306 -0.45 -0.00    +0.000 C 
DOCKED: ATOM     13  N   UNL     1      34.012  18.079 125.397 -0.35 -0.00    +0.000 N 
DOCKED: ATOM     14  O   UNL     1      33.629  18.692 126.542 -0.30 -0.00    +0.000 OA
DOCKED: ATOM     15  O   UNL     1      33.687  15.957 126.304 -1.02 -0.00    +0.000 OA
DOCKED: ATOM     16  H   UNL     1      34.288  18.619 124.623 -0.02 -0.00    +0.000 HD
DOCKED: ENDBRANCH  11  12
DOCKED: ENDBRANCH  10  11
DOCKED: ENDBRANCH   9  10
DOCKED: ENDBRANCH   1   9
DOCKED: TORSDOF 7
DOCKED: TER
DOCKED: ENDMDL
________________________________________________________________________________


	BEGINNING GENETIC ALGORITHM DOCKING 85 of 100
Run: 85 Seed: 1668356917 1940233116 [ Run 85 of 100 GA/GALS ]
Beginning LAMARCKIAN GENETIC ALGORITHM (LGA), with a maximum of 2500000 energy evaluations.

Final-Value: -10.874


	FINAL GENETIC ALGORITHM DOCKED STATE
	_______________________________________________


Detailed state:  trans 36.848 12.902 121.001 quatxyzw 0.692357 0.370737 -0.302045 0.540337 center 0.016 0.633 0.013 ntor 7 162.5079 -119.6067 -103.5225 109.1157 -139.3104 -34.8295 113.4264
State:	 36.848  12.902 121.001   0.823  0.441 -0.359 114.587    162.51 -119.61 -103.52  109.12 -139.31  -34.83  113.43

DOCKED: MODEL       85
DOCKED: USER    Run = 85
DOCKED: USER    DPF = ligand_dock.biased.dpf
DOCKED: USER  
DOCKED: USER    Estimated Free Energy of Binding    =   -7.93 kcal/mol  [=(1)+(2)+(3)-(4)]
DOCKED: USER    Estimated Inhibition Constant, Ki   =    1.54 uM (micromolar)  [Temperature = 298.15 K]
DOCKED: USER    
DOCKED: USER    (1) Final Intermolecular Energy     =  -10.02 kcal/mol
DOCKED: USER        vdW + Hbond + desolv Energy     =  -10.02 kcal/mol
DOCKED: USER        Electrostatic Energy            =   +0.00 kcal/mol
DOCKED: USER    (2) Final Total Internal Energy     =   -0.86 kcal/mol
DOCKED: USER    (3) Torsional Free Energy           =   +2.09 kcal/mol
DOCKED: USER    (4) Unbound System's Energy  [=(2)] =   -0.86 kcal/mol
DOCKED: USER    
DOCKED: USER    
DOCKED: USER    NEWDPF move ligand.pdbqt
DOCKED: USER    NEWDPF about 0.016000 0.633000 0.013000
DOCKED: USER    NEWDPF tran0 36.847577 12.902347 121.001379
DOCKED: USER    NEWDPF quaternion0 0.692357 0.370737 -0.302045 0.540337
DOCKED: USER    NEWDPF axisangle0 0.822816 0.440594 -0.358958 114.586859
DOCKED: USER    NEWDPF quat0 0.822816 0.440594 -0.358958 114.586859
DOCKED: USER    NEWDPF dihe0 162.51 -119.61 -103.52 109.12 -139.31 -34.83 113.43 
DOCKED: USER  keepresnum = 1 
DOCKED: USER  
DOCKED: REMARK  Name = 
DOCKED: REMARK  7 active torsions:
DOCKED: REMARK  status: ('A' for Active; 'I' for Inactive)
DOCKED: REMARK    1  A    between atoms: C_3  and  C_4
DOCKED: REMARK    2  A    between atoms: C_4  and  C_5
DOCKED: REMARK    3  A    between atoms: C_5  and  C_6
DOCKED: REMARK    4  A    between atoms: C_6  and  C_7
DOCKED: REMARK    5  A    between atoms: C_7  and  C_8
DOCKED: REMARK    6  A    between atoms: C_8  and  C_9
DOCKED: REMARK    7  A    between atoms: C_9  and  C_10
DOCKED: REMARK                            x       y       z     vdW  Elec       q    Type
DOCKED: REMARK                         _______ _______ _______ _____ _____    ______ ____
DOCKED: USER                              x       y       z     vdW  Elec       q    Type
DOCKED: USER                           _______ _______ _______ _____ _____    ______ ____
DOCKED: ROOT
DOCKED: ATOM      1  C   UNL     1      36.311  13.841 122.927 -0.49 -0.00    +0.000 C 
DOCKED: ENDROOT
DOCKED: BRANCH   1   2
DOCKED: ATOM      2  C   UNL     1      37.775  13.673 122.496 -0.50 -0.00    +0.000 C 
DOCKED: BRANCH   2   3
DOCKED: ATOM      3  C   UNL     1      37.892  12.702 121.316 -0.41 -0.00    +0.000 C 
DOCKED: BRANCH   3   6
DOCKED: ATOM      4  O   UNL     1      35.966  13.543 118.173 -0.45 -0.00    +0.000 OA
DOCKED: ATOM      5  N   UNL     1      36.322  12.948 119.335 -0.34 -0.00    +0.000 N 
DOCKED: ATOM      6  C   UNL     1      37.490  13.376 120.040 -0.45 -0.00    +0.000 C 
DOCKED: ATOM      7  O   UNL     1      38.206  14.299 119.568 -0.30 -0.00    +0.000 OA
DOCKED: ATOM      8  H   UNL     1      35.775  12.215 119.697 -0.59 -0.00    +0.000 HD
DOCKED: ENDBRANCH   3   6
DOCKED: ENDBRANCH   2   3
DOCKED: ENDBRANCH   1   2
DOCKED: BRANCH   1   9
DOCKED: ATOM      9  C   UNL     1      35.575  12.498 123.091 -0.35 -0.00    +0.000 C 
DOCKED: BRANCH   9  10
DOCKED: ATOM     10  C   UNL     1      36.285  11.472 123.992 -0.61 -0.00    +0.000 C 
DOCKED: BRANCH  10  11
DOCKED: ATOM     11  C   UNL     1      37.126  10.462 123.201 -0.48 -0.00    +0.000 C 
DOCKED: BRANCH  11  12
DOCKED: ATOM     12  C   UNL     1      36.248   9.636 122.308 -0.69 -0.00    +0.000 C 
DOCKED: ATOM     13  N   UNL     1      34.928   9.281 122.725 -0.60 -0.00    +0.000 N 
DOCKED: ATOM     14  O   UNL     1      34.138   8.522 121.930 -0.66 -0.00    +0.000 OA
DOCKED: ATOM     15  O   UNL     1      36.693   9.220 121.206 -2.63 -0.00    +0.000 OA
DOCKED: ATOM     16  H   UNL     1      34.591   9.591 123.596 -0.48 -0.00    +0.000 HD
DOCKED: ENDBRANCH  11  12
DOCKED: ENDBRANCH  10  11
DOCKED: ENDBRANCH   9  10
DOCKED: ENDBRANCH   1   9
DOCKED: TORSDOF 7
DOCKED: TER
DOCKED: ENDMDL
________________________________________________________________________________


	BEGINNING GENETIC ALGORITHM DOCKING 86 of 100
Run: 86 Seed: 27325110 760004653 [ Run 86 of 100 GA/GALS ]
Beginning LAMARCKIAN GENETIC ALGORITHM (LGA), with a maximum of 2500000 energy evaluations.

Final-Value: -12.391


	FINAL GENETIC ALGORITHM DOCKED STATE
	_______________________________________________


Detailed state:  trans 39.519 13.553 122.304 quatxyzw 0.667922 0.694700 0.132158 -0.231961 center 0.016 0.633 0.013 ntor 7 9.6032 -9.8851 -90.6747 -106.3882 -131.7829 -165.3087 95.2283
State:	 39.519  13.553 122.304   0.687  0.714  0.136 -153.175      9.60   -9.89  -90.67 -106.39 -131.78 -165.31   95.23

DOCKED: MODEL       86
DOCKED: USER    Run = 86
DOCKED: USER    DPF = ligand_dock.biased.dpf
DOCKED: USER  
DOCKED: USER    Estimated Free Energy of Binding    =   -9.75 kcal/mol  [=(1)+(2)+(3)-(4)]
DOCKED: USER    Estimated Inhibition Constant, Ki   =   70.81 nM (nanomolar)  [Temperature = 298.15 K]
DOCKED: USER    
DOCKED: USER    (1) Final Intermolecular Energy     =  -11.84 kcal/mol
DOCKED: USER        vdW + Hbond + desolv Energy     =  -11.84 kcal/mol
DOCKED: USER        Electrostatic Energy            =   +0.00 kcal/mol
DOCKED: USER    (2) Final Total Internal Energy     =   -0.55 kcal/mol
DOCKED: USER    (3) Torsional Free Energy           =   +2.09 kcal/mol
DOCKED: USER    (4) Unbound System's Energy  [=(2)] =   -0.55 kcal/mol
DOCKED: USER    
DOCKED: USER    
DOCKED: USER    NEWDPF move ligand.pdbqt
DOCKED: USER    NEWDPF about 0.016000 0.633000 0.013000
DOCKED: USER    NEWDPF tran0 39.519373 13.552604 122.303727
DOCKED: USER    NEWDPF quaternion0 0.667922 0.694700 0.132158 -0.231961
DOCKED: USER    NEWDPF axisangle0 0.686651 0.714179 0.135864 -153.174948
DOCKED: USER    NEWDPF quat0 0.686651 0.714179 0.135864 -153.174948
DOCKED: USER    NEWDPF dihe0 9.60 -9.89 -90.67 -106.39 -131.78 -165.31 95.23 
DOCKED: USER  keepresnum = 1 
DOCKED: USER  
DOCKED: REMARK  Name = 
DOCKED: REMARK  7 active torsions:
DOCKED: REMARK  status: ('A' for Active; 'I' for Inactive)
DOCKED: REMARK    1  A    between atoms: C_3  and  C_4
DOCKED: REMARK    2  A    between atoms: C_4  and  C_5
DOCKED: REMARK    3  A    between atoms: C_5  and  C_6
DOCKED: REMARK    4  A    between atoms: C_6  and  C_7
DOCKED: REMARK    5  A    between atoms: C_7  and  C_8
DOCKED: REMARK    6  A    between atoms: C_8  and  C_9
DOCKED: REMARK    7  A    between atoms: C_9  and  C_10
DOCKED: REMARK                            x       y       z     vdW  Elec       q    Type
DOCKED: REMARK                         _______ _______ _______ _____ _____    ______ ____
DOCKED: USER                              x       y       z     vdW  Elec       q    Type
DOCKED: USER                           _______ _______ _______ _____ _____    ______ ____
DOCKED: ROOT
DOCKED: ATOM      1  C   UNL     1      37.935  13.797 120.785 -0.41 -0.00    +0.000 C 
DOCKED: ENDROOT
DOCKED: BRANCH   1   2
DOCKED: ATOM      2  C   UNL     1      37.965  14.653 122.059 -0.40 -0.00    +0.000 C 
DOCKED: BRANCH   2   3
DOCKED: ATOM      3  C   UNL     1      39.063  14.176 123.015 -0.21 -0.00    +0.000 C 
DOCKED: BRANCH   3   6
DOCKED: ATOM      4  O   UNL     1      41.832  16.746 123.190 -0.75 -0.00    +0.000 OA
DOCKED: ATOM      5  N   UNL     1      40.679  16.086 123.451 -0.21 -0.00    +0.000 N 
DOCKED: ATOM      6  C   UNL     1      40.349  14.893 122.736 -0.40 -0.00    +0.000 C 
DOCKED: ATOM      7  O   UNL     1      41.123  14.462 121.839 -0.92 -0.00    +0.000 OA
DOCKED: ATOM      8  H   UNL     1      40.065  16.429 124.138 -0.01 -0.00    +0.000 HD
DOCKED: ENDBRANCH   3   6
DOCKED: ENDBRANCH   2   3
DOCKED: ENDBRANCH   1   2
DOCKED: BRANCH   1   9
DOCKED: ATOM      9  C   UNL     1      37.773  12.293 121.074 -0.43 -0.00    +0.000 C 
DOCKED: BRANCH   9  10
DOCKED: ATOM     10  C   UNL     1      36.905  11.955 122.299 -0.60 -0.00    +0.000 C 
DOCKED: BRANCH  10  11
DOCKED: ATOM     11  C   UNL     1      35.873  10.856 122.016 -0.53 -0.00    +0.000 C 
DOCKED: BRANCH  11  12
DOCKED: ATOM     12  C   UNL     1      36.513   9.503 122.103 -0.68 -0.00    +0.000 C 
DOCKED: ATOM     13  N   UNL     1      36.827   8.935 123.376 -0.60 -0.00    +0.000 N 
DOCKED: ATOM     14  O   UNL     1      37.420   7.721 123.458 -2.61 -0.00    +0.000 OA
DOCKED: ATOM     15  O   UNL     1      36.811   8.884 121.047 -2.64 -0.00    +0.000 OA
DOCKED: ATOM     16  H   UNL     1      36.610   9.429 124.198 -0.46 -0.00    +0.000 HD
DOCKED: ENDBRANCH  11  12
DOCKED: ENDBRANCH  10  11
DOCKED: ENDBRANCH   9  10
DOCKED: ENDBRANCH   1   9
DOCKED: TORSDOF 7
DOCKED: TER
DOCKED: ENDMDL
________________________________________________________________________________


	BEGINNING GENETIC ALGORITHM DOCKING 87 of 100
Run: 87 Seed: 836902460 452056664 [ Run 87 of 100 GA/GALS ]
Beginning LAMARCKIAN GENETIC ALGORITHM (LGA), with a maximum of 2500000 energy evaluations.

Final-Value: -12.725


	FINAL GENETIC ALGORITHM DOCKED STATE
	_______________________________________________


Detailed state:  trans 37.234 11.943 122.074 quatxyzw 0.385833 -0.134005 0.773429 0.484751 center 0.016 0.633 0.013 ntor 7 -137.7047 165.8598 -56.1211 176.6682 -114.5433 173.9594 -74.5506
State:	 37.234  11.943 122.074   0.441 -0.153  0.884 122.008   -137.70  165.86  -56.12  176.67 -114.54  173.96  -74.55

DOCKED: MODEL       87
DOCKED: USER    Run = 87
DOCKED: USER    DPF = ligand_dock.biased.dpf
DOCKED: USER  
DOCKED: USER    Estimated Free Energy of Binding    =   -9.73 kcal/mol  [=(1)+(2)+(3)-(4)]
DOCKED: USER    Estimated Inhibition Constant, Ki   =   73.66 nM (nanomolar)  [Temperature = 298.15 K]
DOCKED: USER    
DOCKED: USER    (1) Final Intermolecular Energy     =  -11.82 kcal/mol
DOCKED: USER        vdW + Hbond + desolv Energy     =  -11.82 kcal/mol
DOCKED: USER        Electrostatic Energy            =   +0.00 kcal/mol
DOCKED: USER    (2) Final Total Internal Energy     =   -0.91 kcal/mol
DOCKED: USER    (3) Torsional Free Energy           =   +2.09 kcal/mol
DOCKED: USER    (4) Unbound System's Energy  [=(2)] =   -0.91 kcal/mol
DOCKED: USER    
DOCKED: USER    
DOCKED: USER    NEWDPF move ligand.pdbqt
DOCKED: USER    NEWDPF about 0.016000 0.633000 0.013000
DOCKED: USER    NEWDPF tran0 37.233694 11.942772 122.073511
DOCKED: USER    NEWDPF quaternion0 0.385833 -0.134005 0.773429 0.484751
DOCKED: USER    NEWDPF axisangle0 0.441127 -0.153210 0.884270 122.007619
DOCKED: USER    NEWDPF quat0 0.441127 -0.153210 0.884270 122.007619
DOCKED: USER    NEWDPF dihe0 -137.70 165.86 -56.12 176.67 -114.54 173.96 -74.55 
DOCKED: USER  keepresnum = 1 
DOCKED: USER  
DOCKED: REMARK  Name = 
DOCKED: REMARK  7 active torsions:
DOCKED: REMARK  status: ('A' for Active; 'I' for Inactive)
DOCKED: REMARK    1  A    between atoms: C_3  and  C_4
DOCKED: REMARK    2  A    between atoms: C_4  and  C_5
DOCKED: REMARK    3  A    between atoms: C_5  and  C_6
DOCKED: REMARK    4  A    between atoms: C_6  and  C_7
DOCKED: REMARK    5  A    between atoms: C_7  and  C_8
DOCKED: REMARK    6  A    between atoms: C_8  and  C_9
DOCKED: REMARK    7  A    between atoms: C_9  and  C_10
DOCKED: REMARK                            x       y       z     vdW  Elec       q    Type
DOCKED: REMARK                         _______ _______ _______ _____ _____    ______ ____
DOCKED: USER                              x       y       z     vdW  Elec       q    Type
DOCKED: USER                           _______ _______ _______ _____ _____    ______ ____
DOCKED: ROOT
DOCKED: ATOM      1  C   UNL     1      36.115  12.668 123.834 -0.63 -0.00    +0.000 C 
DOCKED: ENDROOT
DOCKED: BRANCH   1   2
DOCKED: ATOM      2  C   UNL     1      35.563  11.552 122.935 -0.56 -0.00    +0.000 C 
DOCKED: BRANCH   2   3
DOCKED: ATOM      3  C   UNL     1      36.632  11.058 121.955 -0.62 -0.00    +0.000 C 
DOCKED: BRANCH   3   6
DOCKED: ATOM      4  O   UNL     1      37.295   7.658 123.472 -2.59 -0.00    +0.000 OA
DOCKED: ATOM      5  N   UNL     1      37.110   8.993 123.355 -0.60 -0.00    +0.000 N 
DOCKED: ATOM      6  C   UNL     1      36.816   9.577 122.084 -0.66 -0.00    +0.000 C 
DOCKED: ATOM      7  O   UNL     1      36.751   8.847 121.058 -2.63 -0.00    +0.000 OA
DOCKED: ATOM      8  H   UNL     1      37.178   9.567 124.151 -0.58 -0.00    +0.000 HD
DOCKED: ENDBRANCH   3   6
DOCKED: ENDBRANCH   2   3
DOCKED: ENDBRANCH   1   2
DOCKED: BRANCH   1   9
DOCKED: ATOM      9  C   UNL     1      36.300  14.003 123.089 -0.51 -0.00    +0.000 C 
DOCKED: BRANCH   9  10
DOCKED: ATOM     10  C   UNL     1      37.624  14.733 123.380 -0.38 -0.00    +0.000 C 
DOCKED: BRANCH  10  11
DOCKED: ATOM     11  C   UNL     1      38.560  14.780 122.165 -0.41 -0.00    +0.000 C 
DOCKED: BRANCH  11  12
DOCKED: ATOM     12  C   UNL     1      37.889  14.183 120.965 -0.38 -0.00    +0.000 C 
DOCKED: ATOM     13  N   UNL     1      38.317  12.917 120.457 -0.41 -0.00    +0.000 N 
DOCKED: ATOM     14  O   UNL     1      37.725  12.381 119.364 -0.52 -0.00    +0.000 OA
DOCKED: ATOM     15  O   UNL     1      36.973  14.818 120.379 -0.28 -0.00    +0.000 OA
DOCKED: ATOM     16  H   UNL     1      39.046  12.432 120.905 -0.08 -0.00    +0.000 HD
DOCKED: ENDBRANCH  11  12
DOCKED: ENDBRANCH  10  11
DOCKED: ENDBRANCH   9  10
DOCKED: ENDBRANCH   1   9
DOCKED: TORSDOF 7
DOCKED: TER
DOCKED: ENDMDL
________________________________________________________________________________


	BEGINNING GENETIC ALGORITHM DOCKING 88 of 100
Run: 88 Seed: 1707206901 736078473 [ Run 88 of 100 GA/GALS ]
Beginning LAMARCKIAN GENETIC ALGORITHM (LGA), with a maximum of 2500000 energy evaluations.

Final-Value: -13.249


	FINAL GENETIC ALGORITHM DOCKED STATE
	_______________________________________________


Detailed state:  trans 38.691 14.998 121.550 quatxyzw 0.391114 0.767564 0.144475 0.486828 center 0.016 0.633 0.013 ntor 7 136.3987 35.4897 57.6526 -15.5786 -84.0921 114.2613 119.2753
State:	 38.691  14.998 121.550   0.448  0.879  0.165 121.735    136.40   35.49   57.65  -15.58  -84.09  114.26  119.28

DOCKED: MODEL       88
DOCKED: USER    Run = 88
DOCKED: USER    DPF = ligand_dock.biased.dpf
DOCKED: USER  
DOCKED: USER    Estimated Free Energy of Binding    =  -10.59 kcal/mol  [=(1)+(2)+(3)-(4)]
DOCKED: USER    Estimated Inhibition Constant, Ki   =   17.39 nM (nanomolar)  [Temperature = 298.15 K]
DOCKED: USER    
DOCKED: USER    (1) Final Intermolecular Energy     =  -12.67 kcal/mol
DOCKED: USER        vdW + Hbond + desolv Energy     =  -12.67 kcal/mol
DOCKED: USER        Electrostatic Energy            =   +0.00 kcal/mol
DOCKED: USER    (2) Final Total Internal Energy     =   -0.57 kcal/mol
DOCKED: USER    (3) Torsional Free Energy           =   +2.09 kcal/mol
DOCKED: USER    (4) Unbound System's Energy  [=(2)] =   -0.57 kcal/mol
DOCKED: USER    
DOCKED: USER    
DOCKED: USER    NEWDPF move ligand.pdbqt
DOCKED: USER    NEWDPF about 0.016000 0.633000 0.013000
DOCKED: USER    NEWDPF tran0 38.690872 14.997677 121.549609
DOCKED: USER    NEWDPF quaternion0 0.391114 0.767564 0.144475 0.486828
DOCKED: USER    NEWDPF axisangle0 0.447756 0.878725 0.165399 121.735387
DOCKED: USER    NEWDPF quat0 0.447756 0.878725 0.165399 121.735387
DOCKED: USER    NEWDPF dihe0 136.40 35.49 57.65 -15.58 -84.09 114.26 119.28 
DOCKED: USER  keepresnum = 1 
DOCKED: USER  
DOCKED: REMARK  Name = 
DOCKED: REMARK  7 active torsions:
DOCKED: REMARK  status: ('A' for Active; 'I' for Inactive)
DOCKED: REMARK    1  A    between atoms: C_3  and  C_4
DOCKED: REMARK    2  A    between atoms: C_4  and  C_5
DOCKED: REMARK    3  A    between atoms: C_5  and  C_6
DOCKED: REMARK    4  A    between atoms: C_6  and  C_7
DOCKED: REMARK    5  A    between atoms: C_7  and  C_8
DOCKED: REMARK    6  A    between atoms: C_8  and  C_9
DOCKED: REMARK    7  A    between atoms: C_9  and  C_10
DOCKED: REMARK                            x       y       z     vdW  Elec       q    Type
DOCKED: REMARK                         _______ _______ _______ _____ _____    ______ ____
DOCKED: USER                              x       y       z     vdW  Elec       q    Type
DOCKED: USER                           _______ _______ _______ _____ _____    ______ ____
DOCKED: ROOT
DOCKED: ATOM      1  C   UNL     1      36.724  14.127 122.050 -0.33 -0.00    +0.000 C 
DOCKED: ENDROOT
DOCKED: BRANCH   1   2
DOCKED: ATOM      2  C   UNL     1      37.862  14.184 123.079 -0.49 -0.00    +0.000 C 
DOCKED: BRANCH   2   3
DOCKED: ATOM      3  C   UNL     1      38.604  15.522 123.003 -0.31 -0.00    +0.000 C 
DOCKED: BRANCH   3   6
DOCKED: ATOM      4  O   UNL     1      42.365  15.908 123.085 -1.12 +0.00    +0.000 OA
DOCKED: ATOM      5  N   UNL     1      41.053  16.093 123.360 -0.33 -0.00    +0.000 N 
DOCKED: ATOM      6  C   UNL     1      40.056  15.301 122.709 -0.38 -0.00    +0.000 C 
DOCKED: ATOM      7  O   UNL     1      40.397  14.440 121.855 -1.04 -0.00    +0.000 OA
DOCKED: ATOM      8  H   UNL     1      40.782  16.777 124.014 -0.03 -0.00    +0.000 HD
DOCKED: ENDBRANCH   3   6
DOCKED: ENDBRANCH   2   3
DOCKED: ENDBRANCH   1   2
DOCKED: BRANCH   1   9
DOCKED: ATOM      9  C   UNL     1      37.069  13.270 120.818 -0.44 -0.00    +0.000 C 
DOCKED: BRANCH   9  10
DOCKED: ATOM     10  C   UNL     1      37.442  11.809 121.125 -0.48 -0.00    +0.000 C 
DOCKED: BRANCH  10  11
DOCKED: ATOM     11  C   UNL     1      36.391  11.092 121.982 -0.61 -0.00    +0.000 C 
DOCKED: BRANCH  11  12
DOCKED: ATOM     12  C   UNL     1      36.708   9.630 122.084 -0.68 -0.00    +0.000 C 
DOCKED: ATOM     13  N   UNL     1      36.928   9.028 123.362 -0.60 -0.00    +0.000 N 
DOCKED: ATOM     14  O   UNL     1      37.230   7.712 123.457 -2.66 -0.00    +0.000 OA
DOCKED: ATOM     15  O   UNL     1      36.820   8.940 121.036 -2.64 -0.00    +0.000 OA
DOCKED: ATOM     16  H   UNL     1      36.858   9.574 124.177 -0.52 -0.00    +0.000 HD
DOCKED: ENDBRANCH  11  12
DOCKED: ENDBRANCH  10  11
DOCKED: ENDBRANCH   9  10
DOCKED: ENDBRANCH   1   9
DOCKED: TORSDOF 7
DOCKED: TER
DOCKED: ENDMDL
________________________________________________________________________________


	BEGINNING GENETIC ALGORITHM DOCKING 89 of 100
Run: 89 Seed: 390598838 1987045575 [ Run 89 of 100 GA/GALS ]
Beginning LAMARCKIAN GENETIC ALGORITHM (LGA), with a maximum of 2500000 energy evaluations.

Final-Value: -12.026


	FINAL GENETIC ALGORITHM DOCKED STATE
	_______________________________________________


Detailed state:  trans 39.788 13.494 122.597 quatxyzw -0.819481 -0.442289 0.158736 0.328077 center 0.016 0.633 0.013 ntor 7 139.3733 80.7855 -11.5367 1.9399 -90.9943 -147.1455 -76.4139
State:	 39.788  13.494 122.597  -0.867 -0.468  0.168 141.696    139.37   80.79  -11.54    1.94  -90.99 -147.15  -76.41

DOCKED: MODEL       89
DOCKED: USER    Run = 89
DOCKED: USER    DPF = ligand_dock.biased.dpf
DOCKED: USER  
DOCKED: USER    Estimated Free Energy of Binding    =   -9.56 kcal/mol  [=(1)+(2)+(3)-(4)]
DOCKED: USER    Estimated Inhibition Constant, Ki   =   98.54 nM (nanomolar)  [Temperature = 298.15 K]
DOCKED: USER    
DOCKED: USER    (1) Final Intermolecular Energy     =  -11.65 kcal/mol
DOCKED: USER        vdW + Hbond + desolv Energy     =  -11.65 kcal/mol
DOCKED: USER        Electrostatic Energy            =   +0.00 kcal/mol
DOCKED: USER    (2) Final Total Internal Energy     =   -0.38 kcal/mol
DOCKED: USER    (3) Torsional Free Energy           =   +2.09 kcal/mol
DOCKED: USER    (4) Unbound System's Energy  [=(2)] =   -0.38 kcal/mol
DOCKED: USER    
DOCKED: USER    
DOCKED: USER    NEWDPF move ligand.pdbqt
DOCKED: USER    NEWDPF about 0.016000 0.633000 0.013000
DOCKED: USER    NEWDPF tran0 39.788319 13.494227 122.596738
DOCKED: USER    NEWDPF quaternion0 -0.819481 -0.442289 0.158736 0.328077
DOCKED: USER    NEWDPF axisangle0 -0.867496 -0.468204 0.168037 141.695802
DOCKED: USER    NEWDPF quat0 -0.867496 -0.468204 0.168037 141.695802
DOCKED: USER    NEWDPF dihe0 139.37 80.79 -11.54 1.94 -90.99 -147.15 -76.41 
DOCKED: USER  keepresnum = 1 
DOCKED: USER  
DOCKED: REMARK  Name = 
DOCKED: REMARK  7 active torsions:
DOCKED: REMARK  status: ('A' for Active; 'I' for Inactive)
DOCKED: REMARK    1  A    between atoms: C_3  and  C_4
DOCKED: REMARK    2  A    between atoms: C_4  and  C_5
DOCKED: REMARK    3  A    between atoms: C_5  and  C_6
DOCKED: REMARK    4  A    between atoms: C_6  and  C_7
DOCKED: REMARK    5  A    between atoms: C_7  and  C_8
DOCKED: REMARK    6  A    between atoms: C_8  and  C_9
DOCKED: REMARK    7  A    between atoms: C_9  and  C_10
DOCKED: REMARK                            x       y       z     vdW  Elec       q    Type
DOCKED: REMARK                         _______ _______ _______ _____ _____    ______ ____
DOCKED: USER                              x       y       z     vdW  Elec       q    Type
DOCKED: USER                           _______ _______ _______ _____ _____    ______ ____
DOCKED: ROOT
DOCKED: ATOM      1  C   UNL     1      38.316  14.284 121.152 -0.38 -0.00    +0.000 C 
DOCKED: ENDROOT
DOCKED: BRANCH   1   2
DOCKED: ATOM      2  C   UNL     1      39.244  15.216 121.944 -0.36 -0.00    +0.000 C 
DOCKED: BRANCH   2   3
DOCKED: ATOM      3  C   UNL     1      40.611  14.564 122.175 -0.32 -0.00    +0.000 C 
DOCKED: BRANCH   3   6
DOCKED: ATOM      4  O   UNL     1      43.814  16.499 122.714 -0.47 -0.00    +0.000 OA
DOCKED: ATOM      5  N   UNL     1      42.926  15.608 122.217 -0.37 -0.00    +0.000 N 
DOCKED: ATOM      6  C   UNL     1      41.586  15.565 122.714 -0.52 -0.00    +0.000 C 
DOCKED: ATOM      7  O   UNL     1      41.233  16.346 123.638 -0.88 -0.00    +0.000 OA
DOCKED: ATOM      8  H   UNL     1      43.203  14.985 121.508 -0.02 -0.00    +0.000 HD
DOCKED: ENDBRANCH   3   6
DOCKED: ENDBRANCH   2   3
DOCKED: ENDBRANCH   1   2
DOCKED: BRANCH   1   9
DOCKED: ATOM      9  C   UNL     1      37.369  13.470 122.054 -0.49 -0.00    +0.000 C 
DOCKED: BRANCH   9  10
DOCKED: ATOM     10  C   UNL     1      37.199  11.994 121.655 -0.53 -0.00    +0.000 C 
DOCKED: BRANCH  10  11
DOCKED: ATOM     11  C   UNL     1      36.878  11.085 122.850 -0.65 -0.00    +0.000 C 
DOCKED: BRANCH  11  12
DOCKED: ATOM     12  C   UNL     1      36.951   9.643 122.444 -0.63 -0.00    +0.000 C 
DOCKED: ATOM     13  N   UNL     1      36.984   8.617 123.438 -0.65 -0.00    +0.000 N 
DOCKED: ATOM     14  O   UNL     1      37.066   7.315 123.077 -2.29 -0.00    +0.000 OA
DOCKED: ATOM     15  O   UNL     1      37.025   9.340 121.224 -2.60 -0.00    +0.000 OA
DOCKED: ATOM     16  H   UNL     1      36.945   8.858 124.391 -0.49 -0.00    +0.000 HD
DOCKED: ENDBRANCH  11  12
DOCKED: ENDBRANCH  10  11
DOCKED: ENDBRANCH   9  10
DOCKED: ENDBRANCH   1   9
DOCKED: TORSDOF 7
DOCKED: TER
DOCKED: ENDMDL
________________________________________________________________________________


	BEGINNING GENETIC ALGORITHM DOCKING 90 of 100
Run: 90 Seed: 2092783299 1622559480 [ Run 90 of 100 GA/GALS ]
Beginning LAMARCKIAN GENETIC ALGORITHM (LGA), with a maximum of 2500000 energy evaluations.

Final-Value: -12.425


	FINAL GENETIC ALGORITHM DOCKED STATE
	_______________________________________________


Detailed state:  trans 37.854 12.256 124.208 quatxyzw 0.153256 0.428043 0.801307 0.388843 center 0.016 0.633 0.013 ntor 7 -143.6567 -173.6690 18.8753 -124.6042 166.4869 169.1938 -119.4643
State:	 37.854  12.256 124.208   0.166  0.465  0.870 134.235   -143.66 -173.67   18.88 -124.60  166.49  169.19 -119.46

DOCKED: MODEL       90
DOCKED: USER    Run = 90
DOCKED: USER    DPF = ligand_dock.biased.dpf
DOCKED: USER  
DOCKED: USER    Estimated Free Energy of Binding    =   -9.72 kcal/mol  [=(1)+(2)+(3)-(4)]
DOCKED: USER    Estimated Inhibition Constant, Ki   =   75.14 nM (nanomolar)  [Temperature = 298.15 K]
DOCKED: USER    
DOCKED: USER    (1) Final Intermolecular Energy     =  -11.81 kcal/mol
DOCKED: USER        vdW + Hbond + desolv Energy     =  -11.81 kcal/mol
DOCKED: USER        Electrostatic Energy            =   +0.00 kcal/mol
DOCKED: USER    (2) Final Total Internal Energy     =   -0.62 kcal/mol
DOCKED: USER    (3) Torsional Free Energy           =   +2.09 kcal/mol
DOCKED: USER    (4) Unbound System's Energy  [=(2)] =   -0.62 kcal/mol
DOCKED: USER    
DOCKED: USER    
DOCKED: USER    NEWDPF move ligand.pdbqt
DOCKED: USER    NEWDPF about 0.016000 0.633000 0.013000
DOCKED: USER    NEWDPF tran0 37.853773 12.256475 124.208336
DOCKED: USER    NEWDPF quaternion0 0.153256 0.428043 0.801307 0.388843
DOCKED: USER    NEWDPF axisangle0 0.166347 0.464605 0.869753 134.234886
DOCKED: USER    NEWDPF quat0 0.166347 0.464605 0.869753 134.234886
DOCKED: USER    NEWDPF dihe0 -143.66 -173.67 18.88 -124.60 166.49 169.19 -119.46 
DOCKED: USER  keepresnum = 1 
DOCKED: USER  
DOCKED: REMARK  Name = 
DOCKED: REMARK  7 active torsions:
DOCKED: REMARK  status: ('A' for Active; 'I' for Inactive)
DOCKED: REMARK    1  A    between atoms: C_3  and  C_4
DOCKED: REMARK    2  A    between atoms: C_4  and  C_5
DOCKED: REMARK    3  A    between atoms: C_5  and  C_6
DOCKED: REMARK    4  A    between atoms: C_6  and  C_7
DOCKED: REMARK    5  A    between atoms: C_7  and  C_8
DOCKED: REMARK    6  A    between atoms: C_8  and  C_9
DOCKED: REMARK    7  A    between atoms: C_9  and  C_10
DOCKED: REMARK                            x       y       z     vdW  Elec       q    Type
DOCKED: REMARK                         _______ _______ _______ _____ _____    ______ ____
DOCKED: USER                              x       y       z     vdW  Elec       q    Type
DOCKED: USER                           _______ _______ _______ _____ _____    ______ ____
DOCKED: ROOT
DOCKED: ATOM      1  C   UNL     1      35.923  13.113 123.565 -0.60 -0.00    +0.000 C 
DOCKED: ENDROOT
DOCKED: BRANCH   1   2
DOCKED: ATOM      2  C   UNL     1      36.137  11.596 123.658 -0.69 -0.00    +0.000 C 
DOCKED: BRANCH   2   3
DOCKED: ATOM      3  C   UNL     1      37.123  11.114 122.589 -0.52 -0.00    +0.000 C 
DOCKED: BRANCH   3   6
DOCKED: ATOM      4  O   UNL     1      37.068   7.387 123.226 -2.39 -0.00    +0.000 OA
DOCKED: ATOM      5  N   UNL     1      37.187   8.719 123.432 -0.61 -0.00    +0.000 N 
DOCKED: ATOM      6  C   UNL     1      36.972   9.641 122.361 -0.62 -0.00    +0.000 C 
DOCKED: ATOM      7  O   UNL     1      36.692   9.213 121.209 -2.63 -0.00    +0.000 OA
DOCKED: ATOM      8  H   UNL     1      37.422   9.056 124.326 -0.62 -0.00    +0.000 HD
DOCKED: ENDBRANCH   3   6
DOCKED: ENDBRANCH   2   3
DOCKED: ENDBRANCH   1   2
DOCKED: BRANCH   1   9
DOCKED: ATOM      9  C   UNL     1      36.849  13.789 122.538 -0.49 -0.00    +0.000 C 
DOCKED: BRANCH   9  10
DOCKED: ATOM     10  C   UNL     1      36.660  15.310 122.392 -0.34 -0.00    +0.000 C 
DOCKED: BRANCH  10  11
DOCKED: ATOM     11  C   UNL     1      37.813  16.117 123.002 -0.30 -0.00    +0.000 C 
DOCKED: BRANCH  11  12
DOCKED: ATOM     12  C   UNL     1      39.097  15.818 122.287 -0.31 -0.00    +0.000 C 
DOCKED: ATOM     13  N   UNL     1      39.921  14.731 122.713 -0.43 -0.00    +0.000 N 
DOCKED: ATOM     14  O   UNL     1      41.089  14.467 122.080 -1.06 -0.00    +0.000 OA
DOCKED: ATOM     15  O   UNL     1      39.467  16.554 121.334 -0.16 -0.00    +0.000 OA
DOCKED: ATOM     16  H   UNL     1      39.639  14.170 123.470 -0.04 -0.00    +0.000 HD
DOCKED: ENDBRANCH  11  12
DOCKED: ENDBRANCH  10  11
DOCKED: ENDBRANCH   9  10
DOCKED: ENDBRANCH   1   9
DOCKED: TORSDOF 7
DOCKED: TER
DOCKED: ENDMDL
________________________________________________________________________________


	BEGINNING GENETIC ALGORITHM DOCKING 91 of 100
Run: 91 Seed: 2023209194 1401145593 [ Run 91 of 100 GA/GALS ]
Beginning LAMARCKIAN GENETIC ALGORITHM (LGA), with a maximum of 2500000 energy evaluations.

Final-Value: -12.566


	FINAL GENETIC ALGORITHM DOCKED STATE
	_______________________________________________


Detailed state:  trans 35.198 15.299 121.977 quatxyzw -0.094621 0.649268 -0.446995 0.608024 center 0.016 0.633 0.013 ntor 7 -159.7624 118.1520 -79.2951 9.6621 -81.2076 -1.7268 -111.1860
State:	 35.198  15.299 121.977  -0.119  0.818 -0.563 105.107   -159.76  118.15  -79.30    9.66  -81.21   -1.73 -111.19

DOCKED: MODEL       91
DOCKED: USER    Run = 91
DOCKED: USER    DPF = ligand_dock.biased.dpf
DOCKED: USER  
DOCKED: USER    Estimated Free Energy of Binding    =  -10.05 kcal/mol  [=(1)+(2)+(3)-(4)]
DOCKED: USER    Estimated Inhibition Constant, Ki   =   43.05 nM (nanomolar)  [Temperature = 298.15 K]
DOCKED: USER    
DOCKED: USER    (1) Final Intermolecular Energy     =  -12.14 kcal/mol
DOCKED: USER        vdW + Hbond + desolv Energy     =  -12.14 kcal/mol
DOCKED: USER        Electrostatic Energy            =   +0.00 kcal/mol
DOCKED: USER    (2) Final Total Internal Energy     =   -0.43 kcal/mol
DOCKED: USER    (3) Torsional Free Energy           =   +2.09 kcal/mol
DOCKED: USER    (4) Unbound System's Energy  [=(2)] =   -0.43 kcal/mol
DOCKED: USER    
DOCKED: USER    
DOCKED: USER    NEWDPF move ligand.pdbqt
DOCKED: USER    NEWDPF about 0.016000 0.633000 0.013000
DOCKED: USER    NEWDPF tran0 35.197789 15.298932 121.977138
DOCKED: USER    NEWDPF quaternion0 -0.094621 0.649268 -0.446995 0.608024
DOCKED: USER    NEWDPF axisangle0 -0.119182 0.817802 -0.563023 105.106510
DOCKED: USER    NEWDPF quat0 -0.119182 0.817802 -0.563023 105.106510
DOCKED: USER    NEWDPF dihe0 -159.76 118.15 -79.30 9.66 -81.21 -1.73 -111.19 
DOCKED: USER  keepresnum = 1 
DOCKED: USER  
DOCKED: REMARK  Name = 
DOCKED: REMARK  7 active torsions:
DOCKED: REMARK  status: ('A' for Active; 'I' for Inactive)
DOCKED: REMARK    1  A    between atoms: C_3  and  C_4
DOCKED: REMARK    2  A    between atoms: C_4  and  C_5
DOCKED: REMARK    3  A    between atoms: C_5  and  C_6
DOCKED: REMARK    4  A    between atoms: C_6  and  C_7
DOCKED: REMARK    5  A    between atoms: C_7  and  C_8
DOCKED: REMARK    6  A    between atoms: C_8  and  C_9
DOCKED: REMARK    7  A    between atoms: C_9  and  C_10
DOCKED: REMARK                            x       y       z     vdW  Elec       q    Type
DOCKED: REMARK                         _______ _______ _______ _____ _____    ______ ____
DOCKED: USER                              x       y       z     vdW  Elec       q    Type
DOCKED: USER                           _______ _______ _______ _____ _____    ______ ____
DOCKED: ROOT
DOCKED: ATOM      1  C   UNL     1      36.149  13.933 123.428 -0.55 -0.00    +0.000 C 
DOCKED: ENDROOT
DOCKED: BRANCH   1   2
DOCKED: ATOM      2  C   UNL     1      36.347  15.454 123.508 -0.43 -0.00    +0.000 C 
DOCKED: BRANCH   2   3
DOCKED: ATOM      3  C   UNL     1      35.020  16.191 123.300 -0.45 -0.00    +0.000 C 
DOCKED: BRANCH   3   6
DOCKED: ATOM      4  O   UNL     1      33.312  16.135 126.673 -1.12 -0.00    +0.000 OA
DOCKED: ATOM      5  N   UNL     1      33.830  15.720 125.494 -0.49 -0.00    +0.000 N 
DOCKED: ATOM      6  C   UNL     1      34.464  16.651 124.613 -0.51 -0.00    +0.000 C 
DOCKED: ATOM      7  O   UNL     1      34.522  17.871 124.924 -0.39 -0.00    +0.000 OA
DOCKED: ATOM      8  H   UNL     1      33.772  14.771 125.241 -0.05 -0.00    +0.000 HD
DOCKED: ENDBRANCH   3   6
DOCKED: ENDBRANCH   2   3
DOCKED: ENDBRANCH   1   2
DOCKED: BRANCH   1   9
DOCKED: ATOM      9  C   UNL     1      36.690  13.324 122.121 -0.45 -0.00    +0.000 C 
DOCKED: BRANCH   9  10
DOCKED: ATOM     10  C   UNL     1      36.358  11.836 121.911 -0.56 -0.00    +0.000 C 
DOCKED: BRANCH  10  11
DOCKED: ATOM     11  C   UNL     1      36.986  10.927 122.976 -0.63 -0.00    +0.000 C 
DOCKED: BRANCH  11  12
DOCKED: ATOM     12  C   UNL     1      36.992   9.502 122.510 -0.63 -0.00    +0.000 C 
DOCKED: ATOM     13  N   UNL     1      37.044   8.434 123.458 -0.69 -0.00    +0.000 N 
DOCKED: ATOM     14  O   UNL     1      37.066   7.146 123.041 -2.08 -0.00    +0.000 OA
DOCKED: ATOM     15  O   UNL     1      36.992   9.248 121.276 -2.62 -0.00    +0.000 OA
DOCKED: ATOM     16  H   UNL     1      37.063   8.636 124.421 -0.50 -0.00    +0.000 HD
DOCKED: ENDBRANCH  11  12
DOCKED: ENDBRANCH  10  11
DOCKED: ENDBRANCH   9  10
DOCKED: ENDBRANCH   1   9
DOCKED: TORSDOF 7
DOCKED: TER
DOCKED: ENDMDL
________________________________________________________________________________


	BEGINNING GENETIC ALGORITHM DOCKING 92 of 100
Run: 92 Seed: 784869601 1559651344 [ Run 92 of 100 GA/GALS ]
Beginning LAMARCKIAN GENETIC ALGORITHM (LGA), with a maximum of 2500000 energy evaluations.

Final-Value: -13.250


	FINAL GENETIC ALGORITHM DOCKED STATE
	_______________________________________________


Detailed state:  trans 39.321 14.857 122.834 quatxyzw 0.532800 0.830463 -0.144321 -0.075014 center 0.016 0.633 0.013 ntor 7 159.7858 -84.7365 114.9734 -59.5666 -82.3573 143.4501 -161.7478
State:	 39.321  14.857 122.834   0.534  0.833 -0.145 -171.396    159.79  -84.74  114.97  -59.57  -82.36  143.45 -161.75

DOCKED: MODEL       92
DOCKED: USER    Run = 92
DOCKED: USER    DPF = ligand_dock.biased.dpf
DOCKED: USER  
DOCKED: USER    Estimated Free Energy of Binding    =  -10.70 kcal/mol  [=(1)+(2)+(3)-(4)]
DOCKED: USER    Estimated Inhibition Constant, Ki   =   14.46 nM (nanomolar)  [Temperature = 298.15 K]
DOCKED: USER    
DOCKED: USER    (1) Final Intermolecular Energy     =  -12.78 kcal/mol
DOCKED: USER        vdW + Hbond + desolv Energy     =  -12.78 kcal/mol
DOCKED: USER        Electrostatic Energy            =   +0.00 kcal/mol
DOCKED: USER    (2) Final Total Internal Energy     =   -0.47 kcal/mol
DOCKED: USER    (3) Torsional Free Energy           =   +2.09 kcal/mol
DOCKED: USER    (4) Unbound System's Energy  [=(2)] =   -0.47 kcal/mol
DOCKED: USER    
DOCKED: USER    
DOCKED: USER    NEWDPF move ligand.pdbqt
DOCKED: USER    NEWDPF about 0.016000 0.633000 0.013000
DOCKED: USER    NEWDPF tran0 39.321337 14.856686 122.833681
DOCKED: USER    NEWDPF quaternion0 0.532800 0.830463 -0.144321 -0.075014
DOCKED: USER    NEWDPF axisangle0 0.534306 0.832809 -0.144729 -171.395893
DOCKED: USER    NEWDPF quat0 0.534306 0.832809 -0.144729 -171.395893
DOCKED: USER    NEWDPF dihe0 159.79 -84.74 114.97 -59.57 -82.36 143.45 -161.75 
DOCKED: USER  keepresnum = 1 
DOCKED: USER  
DOCKED: REMARK  Name = 
DOCKED: REMARK  7 active torsions:
DOCKED: REMARK  status: ('A' for Active; 'I' for Inactive)
DOCKED: REMARK    1  A    between atoms: C_3  and  C_4
DOCKED: REMARK    2  A    between atoms: C_4  and  C_5
DOCKED: REMARK    3  A    between atoms: C_5  and  C_6
DOCKED: REMARK    4  A    between atoms: C_6  and  C_7
DOCKED: REMARK    5  A    between atoms: C_7  and  C_8
DOCKED: REMARK    6  A    between atoms: C_8  and  C_9
DOCKED: REMARK    7  A    between atoms: C_9  and  C_10
DOCKED: REMARK                            x       y       z     vdW  Elec       q    Type
DOCKED: REMARK                         _______ _______ _______ _____ _____    ______ ____
DOCKED: USER                              x       y       z     vdW  Elec       q    Type
DOCKED: USER                           _______ _______ _______ _____ _____    ______ ____
DOCKED: ROOT
DOCKED: ATOM      1  C   UNL     1      37.204  14.280 122.586 -0.46 -0.00    +0.000 C 
DOCKED: ENDROOT
DOCKED: BRANCH   1   2
DOCKED: ATOM      2  C   UNL     1      37.610  15.510 123.410 -0.34 -0.00    +0.000 C 
DOCKED: BRANCH   2   3
DOCKED: ATOM      3  C   UNL     1      38.708  16.309 122.700 -0.27 -0.00    +0.000 C 
DOCKED: BRANCH   3   6
DOCKED: ATOM      4  O   UNL     1      42.295  15.191 123.123 -1.09 +0.00    +0.000 OA
DOCKED: ATOM      5  N   UNL     1      41.158  15.916 123.239 -0.37 -0.00    +0.000 N 
DOCKED: ATOM      6  C   UNL     1      39.959  15.494 122.585 -0.38 -0.00    +0.000 C 
DOCKED: ATOM      7  O   UNL     1      39.964  14.452 121.875 -0.98 -0.00    +0.000 OA
DOCKED: ATOM      8  H   UNL     1      41.156  16.739 123.778 -0.03 -0.00    +0.000 HD
DOCKED: ENDBRANCH   3   6
DOCKED: ENDBRANCH   2   3
DOCKED: ENDBRANCH   1   2
DOCKED: BRANCH   1   9
DOCKED: ATOM      9  C   UNL     1      37.755  12.962 123.160 -0.49 -0.00    +0.000 C 
DOCKED: BRANCH   9  10
DOCKED: ATOM     10  C   UNL     1      36.756  11.792 123.179 -0.68 -0.00    +0.000 C 
DOCKED: BRANCH  10  11
DOCKED: ATOM     11  C   UNL     1      36.650  11.074 121.828 -0.58 -0.00    +0.000 C 
DOCKED: BRANCH  11  12
DOCKED: ATOM     12  C   UNL     1      36.843   9.597 122.004 -0.65 -0.00    +0.000 C 
DOCKED: ATOM     13  N   UNL     1      37.071   9.051 123.305 -0.62 -0.00    +0.000 N 
DOCKED: ATOM     14  O   UNL     1      37.262   7.721 123.466 -2.64 -0.00    +0.000 OA
DOCKED: ATOM     15  O   UNL     1      36.843   8.842 120.995 -2.65 -0.00    +0.000 OA
DOCKED: ATOM     16  H   UNL     1      37.090   9.646 124.088 -0.55 -0.00    +0.000 HD
DOCKED: ENDBRANCH  11  12
DOCKED: ENDBRANCH  10  11
DOCKED: ENDBRANCH   9  10
DOCKED: ENDBRANCH   1   9
DOCKED: TORSDOF 7
DOCKED: TER
DOCKED: ENDMDL
________________________________________________________________________________


	BEGINNING GENETIC ALGORITHM DOCKING 93 of 100
Run: 93 Seed: 1595605315 1118624031 [ Run 93 of 100 GA/GALS ]
Beginning LAMARCKIAN GENETIC ALGORITHM (LGA), with a maximum of 2500000 energy evaluations.

Final-Value: -12.555


	FINAL GENETIC ALGORITHM DOCKED STATE
	_______________________________________________


Detailed state:  trans 36.571 13.335 121.155 quatxyzw 0.655438 0.257159 -0.429543 0.565476 center 0.016 0.633 0.013 ntor 7 95.0011 -59.8649 47.2936 20.2184 85.9827 -36.5851 66.7449
State:	 36.571  13.335 121.155   0.795  0.312 -0.521 111.129     95.00  -59.86   47.29   20.22   85.98  -36.59   66.74

DOCKED: MODEL       93
DOCKED: USER    Run = 93
DOCKED: USER    DPF = ligand_dock.biased.dpf
DOCKED: USER  
DOCKED: USER    Estimated Free Energy of Binding    =   -9.96 kcal/mol  [=(1)+(2)+(3)-(4)]
DOCKED: USER    Estimated Inhibition Constant, Ki   =   50.24 nM (nanomolar)  [Temperature = 298.15 K]
DOCKED: USER    
DOCKED: USER    (1) Final Intermolecular Energy     =  -12.05 kcal/mol
DOCKED: USER        vdW + Hbond + desolv Energy     =  -12.05 kcal/mol
DOCKED: USER        Electrostatic Energy            =   +0.00 kcal/mol
DOCKED: USER    (2) Final Total Internal Energy     =   -0.51 kcal/mol
DOCKED: USER    (3) Torsional Free Energy           =   +2.09 kcal/mol
DOCKED: USER    (4) Unbound System's Energy  [=(2)] =   -0.51 kcal/mol
DOCKED: USER    
DOCKED: USER    
DOCKED: USER    NEWDPF move ligand.pdbqt
DOCKED: USER    NEWDPF about 0.016000 0.633000 0.013000
DOCKED: USER    NEWDPF tran0 36.571327 13.334532 121.154880
DOCKED: USER    NEWDPF quaternion0 0.655438 0.257159 -0.429543 0.565476
DOCKED: USER    NEWDPF axisangle0 0.794697 0.311796 -0.520807 111.129360
DOCKED: USER    NEWDPF quat0 0.794697 0.311796 -0.520807 111.129360
DOCKED: USER    NEWDPF dihe0 95.00 -59.86 47.29 20.22 85.98 -36.59 66.74 
DOCKED: USER  keepresnum = 1 
DOCKED: USER  
DOCKED: REMARK  Name = 
DOCKED: REMARK  7 active torsions:
DOCKED: REMARK  status: ('A' for Active; 'I' for Inactive)
DOCKED: REMARK    1  A    between atoms: C_3  and  C_4
DOCKED: REMARK    2  A    between atoms: C_4  and  C_5
DOCKED: REMARK    3  A    between atoms: C_5  and  C_6
DOCKED: REMARK    4  A    between atoms: C_6  and  C_7
DOCKED: REMARK    5  A    between atoms: C_7  and  C_8
DOCKED: REMARK    6  A    between atoms: C_8  and  C_9
DOCKED: REMARK    7  A    between atoms: C_9  and  C_10
DOCKED: REMARK                            x       y       z     vdW  Elec       q    Type
DOCKED: REMARK                         _______ _______ _______ _____ _____    ______ ____
DOCKED: USER                              x       y       z     vdW  Elec       q    Type
DOCKED: USER                           _______ _______ _______ _____ _____    ______ ____
DOCKED: ROOT
DOCKED: ATOM      1  C   UNL     1      36.704  14.446 123.058 -0.49 -0.00    +0.000 C 
DOCKED: ENDROOT
DOCKED: BRANCH   1   2
DOCKED: ATOM      2  C   UNL     1      37.940  14.209 122.178 -0.45 -0.00    +0.000 C 
DOCKED: BRANCH   2   3
DOCKED: ATOM      3  C   UNL     1      39.208  14.099 123.031 -0.08 -0.00    +0.000 C 
DOCKED: BRANCH   3   6
DOCKED: ATOM      4  O   UNL     1      42.540  15.843 122.635 -0.71 -0.00    +0.000 OA
DOCKED: ATOM      5  N   UNL     1      41.562  15.048 123.128 -0.54 +0.00    +0.000 N 
DOCKED: ATOM      6  C   UNL     1      40.294  14.965 122.472 -0.45 -0.00    +0.000 C 
DOCKED: ATOM      7  O   UNL     1      40.075  15.654 121.439 -0.29 -0.00    +0.000 OA
DOCKED: ATOM      8  H   UNL     1      41.724  14.523 123.944 -0.08 +0.00    +0.000 HD
DOCKED: ENDBRANCH   3   6
DOCKED: ENDBRANCH   2   3
DOCKED: ENDBRANCH   1   2
DOCKED: BRANCH   1   9
DOCKED: ATOM      9  C   UNL     1      36.076  13.139 123.577 -0.61 -0.00    +0.000 C 
DOCKED: BRANCH   9  10
DOCKED: ATOM     10  C   UNL     1      36.860  11.860 123.235 -0.68 -0.00    +0.000 C 
DOCKED: BRANCH  10  11
DOCKED: ATOM     11  C   UNL     1      36.306  11.129 122.006 -0.61 -0.00    +0.000 C 
DOCKED: BRANCH  11  12
DOCKED: ATOM     12  C   UNL     1      36.597   9.660 122.095 -0.67 -0.00    +0.000 C 
DOCKED: ATOM     13  N   UNL     1      36.787   9.040 123.369 -0.59 -0.00    +0.000 N 
DOCKED: ATOM     14  O   UNL     1      37.067   7.718 123.453 -2.70 -0.00    +0.000 OA
DOCKED: ATOM     15  O   UNL     1      36.715   8.982 121.040 -2.62 -0.00    +0.000 OA
DOCKED: ATOM     16  H   UNL     1      36.713   9.577 124.190 -0.49 -0.00    +0.000 HD
DOCKED: ENDBRANCH  11  12
DOCKED: ENDBRANCH  10  11
DOCKED: ENDBRANCH   9  10
DOCKED: ENDBRANCH   1   9
DOCKED: TORSDOF 7
DOCKED: TER
DOCKED: ENDMDL
________________________________________________________________________________


	BEGINNING GENETIC ALGORITHM DOCKING 94 of 100
Run: 94 Seed: 248444247 1776574101 [ Run 94 of 100 GA/GALS ]
Beginning LAMARCKIAN GENETIC ALGORITHM (LGA), with a maximum of 2500000 energy evaluations.

Final-Value: -13.348


	FINAL GENETIC ALGORITHM DOCKED STATE
	_______________________________________________


Detailed state:  trans 35.342 13.979 122.030 quatxyzw 0.068678 0.427806 -0.747658 0.503262 center 0.016 0.633 0.013 ntor 7 177.6636 -71.4358 -128.0433 -47.7255 -41.3122 179.9384 -60.5440
State:	 35.342  13.979 122.030   0.079  0.495 -0.865 119.568    177.66  -71.44 -128.04  -47.73  -41.31  179.94  -60.54

DOCKED: MODEL       94
DOCKED: USER    Run = 94
DOCKED: USER    DPF = ligand_dock.biased.dpf
DOCKED: USER  
DOCKED: USER    Estimated Free Energy of Binding    =  -10.75 kcal/mol  [=(1)+(2)+(3)-(4)]
DOCKED: USER    Estimated Inhibition Constant, Ki   =   13.26 nM (nanomolar)  [Temperature = 298.15 K]
DOCKED: USER    
DOCKED: USER    (1) Final Intermolecular Energy     =  -12.83 kcal/mol
DOCKED: USER        vdW + Hbond + desolv Energy     =  -12.83 kcal/mol
DOCKED: USER        Electrostatic Energy            =   +0.00 kcal/mol
DOCKED: USER    (2) Final Total Internal Energy     =   -0.51 kcal/mol
DOCKED: USER    (3) Torsional Free Energy           =   +2.09 kcal/mol
DOCKED: USER    (4) Unbound System's Energy  [=(2)] =   -0.51 kcal/mol
DOCKED: USER    
DOCKED: USER    
DOCKED: USER    NEWDPF move ligand.pdbqt
DOCKED: USER    NEWDPF about 0.016000 0.633000 0.013000
DOCKED: USER    NEWDPF tran0 35.341856 13.978990 122.029972
DOCKED: USER    NEWDPF quaternion0 0.068678 0.427806 -0.747658 0.503262
DOCKED: USER    NEWDPF axisangle0 0.079476 0.495069 -0.865211 119.567848
DOCKED: USER    NEWDPF quat0 0.079476 0.495069 -0.865211 119.567848
DOCKED: USER    NEWDPF dihe0 177.66 -71.44 -128.04 -47.73 -41.31 179.94 -60.54 
DOCKED: USER  keepresnum = 1 
DOCKED: USER  
DOCKED: REMARK  Name = 
DOCKED: REMARK  7 active torsions:
DOCKED: REMARK  status: ('A' for Active; 'I' for Inactive)
DOCKED: REMARK    1  A    between atoms: C_3  and  C_4
DOCKED: REMARK    2  A    between atoms: C_4  and  C_5
DOCKED: REMARK    3  A    between atoms: C_5  and  C_6
DOCKED: REMARK    4  A    between atoms: C_6  and  C_7
DOCKED: REMARK    5  A    between atoms: C_7  and  C_8
DOCKED: REMARK    6  A    between atoms: C_8  and  C_9
DOCKED: REMARK    7  A    between atoms: C_9  and  C_10
DOCKED: REMARK                            x       y       z     vdW  Elec       q    Type
DOCKED: REMARK                         _______ _______ _______ _____ _____    ______ ____
DOCKED: USER                              x       y       z     vdW  Elec       q    Type
DOCKED: USER                           _______ _______ _______ _____ _____    ______ ____
DOCKED: ROOT
DOCKED: ATOM      1  C   UNL     1      36.322  14.348 123.974 -0.45 -0.00    +0.000 C 
DOCKED: ENDROOT
DOCKED: BRANCH   1   2
DOCKED: ATOM      2  C   UNL     1      36.137  15.470 122.942 -0.39 -0.00    +0.000 C 
DOCKED: BRANCH   2   3
DOCKED: ATOM      3  C   UNL     1      34.742  16.093 123.053 -0.38 -0.00    +0.000 C 
DOCKED: BRANCH   3   6
DOCKED: ATOM      4  O   UNL     1      33.427  16.081 126.599 -1.08 -0.00    +0.000 OA
DOCKED: ATOM      5  N   UNL     1      33.690  15.691 125.330 -0.47 -0.00    +0.000 N 
DOCKED: ATOM      6  C   UNL     1      34.468  16.520 124.463 -0.52 -0.00    +0.000 C 
DOCKED: ATOM      7  O   UNL     1      34.894  17.633 124.873 -0.37 -0.00    +0.000 OA
DOCKED: ATOM      8  H   UNL     1      33.345  14.831 125.001 -0.20 -0.00    +0.000 HD
DOCKED: ENDBRANCH   3   6
DOCKED: ENDBRANCH   2   3
DOCKED: ENDBRANCH   1   2
DOCKED: BRANCH   1   9
DOCKED: ATOM      9  C   UNL     1      37.211  13.200 123.462 -0.57 -0.00    +0.000 C 
DOCKED: BRANCH   9  10
DOCKED: ATOM     10  C   UNL     1      36.545  11.812 123.461 -0.70 -0.00    +0.000 C 
DOCKED: BRANCH  10  11
DOCKED: ATOM     11  C   UNL     1      36.440  11.201 122.057 -0.62 -0.00    +0.000 C 
DOCKED: BRANCH  11  12
DOCKED: ATOM     12  C   UNL     1      36.743   9.733 122.102 -0.67 -0.00    +0.000 C 
DOCKED: ATOM     13  N   UNL     1      36.779   9.044 123.353 -0.59 -0.00    +0.000 N 
DOCKED: ATOM     14  O   UNL     1      37.069   7.722 123.400 -2.67 -0.00    +0.000 OA
DOCKED: ATOM     15  O   UNL     1      37.006   9.117 121.035 -2.71 -0.00    +0.000 OA
DOCKED: ATOM     16  H   UNL     1      36.592   9.532 124.186 -0.45 -0.00    +0.000 HD
DOCKED: ENDBRANCH  11  12
DOCKED: ENDBRANCH  10  11
DOCKED: ENDBRANCH   9  10
DOCKED: ENDBRANCH   1   9
DOCKED: TORSDOF 7
DOCKED: TER
DOCKED: ENDMDL
________________________________________________________________________________


	BEGINNING GENETIC ALGORITHM DOCKING 95 of 100
Run: 95 Seed: 1450442115 2016322705 [ Run 95 of 100 GA/GALS ]
Beginning LAMARCKIAN GENETIC ALGORITHM (LGA), with a maximum of 2500000 energy evaluations.

Final-Value: -12.183


	FINAL GENETIC ALGORITHM DOCKED STATE
	_______________________________________________


Detailed state:  trans 37.955 12.344 119.745 quatxyzw 0.505519 -0.312136 0.686095 0.419875 center 0.016 0.633 0.013 ntor 7 61.9703 52.2742 78.0985 4.7252 31.2005 63.7841 165.4326
State:	 37.955  12.344 119.745   0.557 -0.344  0.756 130.347     61.97   52.27   78.10    4.73   31.20   63.78  165.43

DOCKED: MODEL       95
DOCKED: USER    Run = 95
DOCKED: USER    DPF = ligand_dock.biased.dpf
DOCKED: USER  
DOCKED: USER    Estimated Free Energy of Binding    =   -9.56 kcal/mol  [=(1)+(2)+(3)-(4)]
DOCKED: USER    Estimated Inhibition Constant, Ki   =   98.82 nM (nanomolar)  [Temperature = 298.15 K]
DOCKED: USER    
DOCKED: USER    (1) Final Intermolecular Energy     =  -11.64 kcal/mol
DOCKED: USER        vdW + Hbond + desolv Energy     =  -11.64 kcal/mol
DOCKED: USER        Electrostatic Energy            =   +0.00 kcal/mol
DOCKED: USER    (2) Final Total Internal Energy     =   -0.54 kcal/mol
DOCKED: USER    (3) Torsional Free Energy           =   +2.09 kcal/mol
DOCKED: USER    (4) Unbound System's Energy  [=(2)] =   -0.54 kcal/mol
DOCKED: USER    
DOCKED: USER    
DOCKED: USER    NEWDPF move ligand.pdbqt
DOCKED: USER    NEWDPF about 0.016000 0.633000 0.013000
DOCKED: USER    NEWDPF tran0 37.954556 12.343742 119.745299
DOCKED: USER    NEWDPF quaternion0 0.505519 -0.312136 0.686095 0.419875
DOCKED: USER    NEWDPF axisangle0 0.556996 -0.343920 0.755959 130.346554
DOCKED: USER    NEWDPF quat0 0.556996 -0.343920 0.755959 130.346554
DOCKED: USER    NEWDPF dihe0 61.97 52.27 78.10 4.73 31.20 63.78 165.43 
DOCKED: USER  keepresnum = 1 
DOCKED: USER  
DOCKED: REMARK  Name = 
DOCKED: REMARK  7 active torsions:
DOCKED: REMARK  status: ('A' for Active; 'I' for Inactive)
DOCKED: REMARK    1  A    between atoms: C_3  and  C_4
DOCKED: REMARK    2  A    between atoms: C_4  and  C_5
DOCKED: REMARK    3  A    between atoms: C_5  and  C_6
DOCKED: REMARK    4  A    between atoms: C_6  and  C_7
DOCKED: REMARK    5  A    between atoms: C_7  and  C_8
DOCKED: REMARK    6  A    between atoms: C_8  and  C_9
DOCKED: REMARK    7  A    between atoms: C_9  and  C_10
DOCKED: REMARK                            x       y       z     vdW  Elec       q    Type
DOCKED: REMARK                         _______ _______ _______ _____ _____    ______ ____
DOCKED: USER                              x       y       z     vdW  Elec       q    Type
DOCKED: USER                           _______ _______ _______ _____ _____    ______ ____
DOCKED: ROOT
DOCKED: ATOM      1  C   UNL     1      37.803  12.882 121.882 -0.45 -0.00    +0.000 C 
DOCKED: ENDROOT
DOCKED: BRANCH   1   2
DOCKED: ATOM      2  C   UNL     1      36.766  11.972 121.207 -0.52 -0.00    +0.000 C 
DOCKED: BRANCH   2   3
DOCKED: ATOM      3  C   UNL     1      36.059  11.086 122.238 -0.63 -0.00    +0.000 C 
DOCKED: BRANCH   3   6
DOCKED: ATOM      4  O   UNL     1      37.270   7.707 123.427 -2.62 -0.00    +0.000 OA
DOCKED: ATOM      5  N   UNL     1      36.736   8.951 123.434 -0.58 -0.00    +0.000 N 
DOCKED: ATOM      6  C   UNL     1      36.634   9.703 122.222 -0.69 -0.00    +0.000 C 
DOCKED: ATOM      7  O   UNL     1      37.064   9.217 121.142 -2.74 -0.00    +0.000 OA
DOCKED: ATOM      8  H   UNL     1      36.415   9.340 124.278 -0.32 -0.00    +0.000 HD
DOCKED: ENDBRANCH   3   6
DOCKED: ENDBRANCH   2   3
DOCKED: ENDBRANCH   1   2
DOCKED: BRANCH   1   9
DOCKED: ATOM      9  C   UNL     1      37.851  14.295 121.272 -0.38 -0.00    +0.000 C 
DOCKED: BRANCH   9  10
DOCKED: ATOM     10  C   UNL     1      37.177  15.391 122.116 -0.32 -0.00    +0.000 C 
DOCKED: BRANCH  10  11
DOCKED: ATOM     11  C   UNL     1      36.628  14.866 123.449 -0.46 -0.00    +0.000 C 
DOCKED: BRANCH  11  12
DOCKED: ATOM     12  C   UNL     1      35.736  15.889 124.086 -0.44 -0.00    +0.000 C 
DOCKED: ATOM     13  N   UNL     1      34.505  15.492 124.696 -0.57 -0.00    +0.000 N 
DOCKED: ATOM     14  O   UNL     1      33.689  16.414 125.258 -0.57 -0.00    +0.000 OA
DOCKED: ATOM     15  O   UNL     1      36.054  17.107 124.048 -0.32 -0.00    +0.000 OA
DOCKED: ATOM     16  H   UNL     1      34.250  14.541 124.708 -0.05 -0.00    +0.000 HD
DOCKED: ENDBRANCH  11  12
DOCKED: ENDBRANCH  10  11
DOCKED: ENDBRANCH   9  10
DOCKED: ENDBRANCH   1   9
DOCKED: TORSDOF 7
DOCKED: TER
DOCKED: ENDMDL
________________________________________________________________________________


	BEGINNING GENETIC ALGORITHM DOCKING 96 of 100
Run: 96 Seed: 1476588252 613507571 [ Run 96 of 100 GA/GALS ]
Beginning LAMARCKIAN GENETIC ALGORITHM (LGA), with a maximum of 2500000 energy evaluations.

Final-Value: -13.073


	FINAL GENETIC ALGORITHM DOCKED STATE
	_______________________________________________


Detailed state:  trans 37.562 11.737 124.511 quatxyzw 0.071942 0.343970 0.887585 0.297828 center 0.016 0.633 0.013 ntor 7 -139.9374 179.4644 -1.8539 -178.5638 166.5356 -107.2907 179.3761
State:	 37.562  11.737 124.511   0.075  0.360  0.930 145.346   -139.94  179.46   -1.85 -178.56  166.54 -107.29  179.38

DOCKED: MODEL       96
DOCKED: USER    Run = 96
DOCKED: USER    DPF = ligand_dock.biased.dpf
DOCKED: USER  
DOCKED: USER    Estimated Free Energy of Binding    =  -10.22 kcal/mol  [=(1)+(2)+(3)-(4)]
DOCKED: USER    Estimated Inhibition Constant, Ki   =   32.50 nM (nanomolar)  [Temperature = 298.15 K]
DOCKED: USER    
DOCKED: USER    (1) Final Intermolecular Energy     =  -12.30 kcal/mol
DOCKED: USER        vdW + Hbond + desolv Energy     =  -12.30 kcal/mol
DOCKED: USER        Electrostatic Energy            =   +0.00 kcal/mol
DOCKED: USER    (2) Final Total Internal Energy     =   -0.77 kcal/mol
DOCKED: USER    (3) Torsional Free Energy           =   +2.09 kcal/mol
DOCKED: USER    (4) Unbound System's Energy  [=(2)] =   -0.77 kcal/mol
DOCKED: USER    
DOCKED: USER    
DOCKED: USER    NEWDPF move ligand.pdbqt
DOCKED: USER    NEWDPF about 0.016000 0.633000 0.013000
DOCKED: USER    NEWDPF tran0 37.562435 11.737300 124.511480
DOCKED: USER    NEWDPF quaternion0 0.071942 0.343970 0.887585 0.297828
DOCKED: USER    NEWDPF axisangle0 0.075362 0.360322 0.929779 145.345618
DOCKED: USER    NEWDPF quat0 0.075362 0.360322 0.929779 145.345618
DOCKED: USER    NEWDPF dihe0 -139.94 179.46 -1.85 -178.56 166.54 -107.29 179.38 
DOCKED: USER  keepresnum = 1 
DOCKED: USER  
DOCKED: REMARK  Name = 
DOCKED: REMARK  7 active torsions:
DOCKED: REMARK  status: ('A' for Active; 'I' for Inactive)
DOCKED: REMARK    1  A    between atoms: C_3  and  C_4
DOCKED: REMARK    2  A    between atoms: C_4  and  C_5
DOCKED: REMARK    3  A    between atoms: C_5  and  C_6
DOCKED: REMARK    4  A    between atoms: C_6  and  C_7
DOCKED: REMARK    5  A    between atoms: C_7  and  C_8
DOCKED: REMARK    6  A    between atoms: C_8  and  C_9
DOCKED: REMARK    7  A    between atoms: C_9  and  C_10
DOCKED: REMARK                            x       y       z     vdW  Elec       q    Type
DOCKED: REMARK                         _______ _______ _______ _____ _____    ______ ____
DOCKED: USER                              x       y       z     vdW  Elec       q    Type
DOCKED: USER                           _______ _______ _______ _____ _____    ______ ____
DOCKED: ROOT
DOCKED: ATOM      1  C   UNL     1      35.932  13.063 123.833 -0.59 -0.00    +0.000 C 
DOCKED: ENDROOT
DOCKED: BRANCH   1   2
DOCKED: ATOM      2  C   UNL     1      35.901  11.551 123.566 -0.66 -0.00    +0.000 C 
DOCKED: BRANCH   2   3
DOCKED: ATOM      3  C   UNL     1      36.990  11.148 122.567 -0.60 -0.00    +0.000 C 
DOCKED: BRANCH   3   6
DOCKED: ATOM      4  O   UNL     1      37.093   7.425 123.220 -2.40 -0.00    +0.000 OA
DOCKED: ATOM      5  N   UNL     1      37.098   8.762 123.430 -0.62 -0.00    +0.000 N 
DOCKED: ATOM      6  C   UNL     1      36.965   9.668 122.333 -0.62 -0.00    +0.000 C 
DOCKED: ATOM      7  O   UNL     1      36.867   9.223 121.158 -2.67 -0.00    +0.000 OA
DOCKED: ATOM      8  H   UNL     1      37.192   9.113 124.344 -0.55 -0.00    +0.000 HD
DOCKED: ENDBRANCH   3   6
DOCKED: ENDBRANCH   2   3
DOCKED: ENDBRANCH   1   2
DOCKED: BRANCH   1   9
DOCKED: ATOM      9  C   UNL     1      37.124  13.768 123.158 -0.54 -0.00    +0.000 C 
DOCKED: BRANCH   9  10
DOCKED: ATOM     10  C   UNL     1      36.744  14.831 122.112 -0.32 -0.00    +0.000 C 
DOCKED: BRANCH  10  11
DOCKED: ATOM     11  C   UNL     1      37.943  15.305 121.279 -0.28 -0.00    +0.000 C 
DOCKED: BRANCH  11  12
DOCKED: ATOM     12  C   UNL     1      39.143  14.450 121.556 -0.38 -0.00    +0.000 C 
DOCKED: ATOM     13  N   UNL     1      40.110  14.859 122.526 -0.43 -0.00    +0.000 N 
DOCKED: ATOM     14  O   UNL     1      41.203  14.098 122.768 -1.07 +0.00    +0.000 OA
DOCKED: ATOM     15  O   UNL     1      39.318  13.388 120.901 -0.54 -0.00    +0.000 OA
DOCKED: ATOM     16  H   UNL     1      39.980  15.698 123.022 -0.02 -0.00    +0.000 HD
DOCKED: ENDBRANCH  11  12
DOCKED: ENDBRANCH  10  11
DOCKED: ENDBRANCH   9  10
DOCKED: ENDBRANCH   1   9
DOCKED: TORSDOF 7
DOCKED: TER
DOCKED: ENDMDL
________________________________________________________________________________


	BEGINNING GENETIC ALGORITHM DOCKING 97 of 100
Run: 97 Seed: 177792333 1333791732 [ Run 97 of 100 GA/GALS ]
Beginning LAMARCKIAN GENETIC ALGORITHM (LGA), with a maximum of 2500000 energy evaluations.

Final-Value: -13.465


	FINAL GENETIC ALGORITHM DOCKED STATE
	_______________________________________________


Detailed state:  trans 37.004 15.629 123.889 quatxyzw 0.220996 0.350711 0.081138 -0.906410 center 0.016 0.633 0.013 ntor 7 -174.4194 -79.5702 139.5207 -35.6191 -2.1876 20.9744 -168.9607
State:	 37.004  15.629 123.889   0.523  0.830  0.192 -49.972   -174.42  -79.57  139.52  -35.62   -2.19   20.97 -168.96

DOCKED: MODEL       97
DOCKED: USER    Run = 97
DOCKED: USER    DPF = ligand_dock.biased.dpf
DOCKED: USER  
DOCKED: USER    Estimated Free Energy of Binding    =  -10.80 kcal/mol  [=(1)+(2)+(3)-(4)]
DOCKED: USER    Estimated Inhibition Constant, Ki   =   12.17 nM (nanomolar)  [Temperature = 298.15 K]
DOCKED: USER    
DOCKED: USER    (1) Final Intermolecular Energy     =  -12.89 kcal/mol
DOCKED: USER        vdW + Hbond + desolv Energy     =  -12.89 kcal/mol
DOCKED: USER        Electrostatic Energy            =   +0.00 kcal/mol
DOCKED: USER    (2) Final Total Internal Energy     =   -0.58 kcal/mol
DOCKED: USER    (3) Torsional Free Energy           =   +2.09 kcal/mol
DOCKED: USER    (4) Unbound System's Energy  [=(2)] =   -0.58 kcal/mol
DOCKED: USER    
DOCKED: USER    
DOCKED: USER    NEWDPF move ligand.pdbqt
DOCKED: USER    NEWDPF about 0.016000 0.633000 0.013000
DOCKED: USER    NEWDPF tran0 37.003651 15.628800 123.888601
DOCKED: USER    NEWDPF quaternion0 0.220996 0.350711 0.081138 -0.906410
DOCKED: USER    NEWDPF axisangle0 0.523193 0.830284 0.192089 -49.972225
DOCKED: USER    NEWDPF quat0 0.523193 0.830284 0.192089 -49.972225
DOCKED: USER    NEWDPF dihe0 -174.42 -79.57 139.52 -35.62 -2.19 20.97 -168.96 
DOCKED: USER  keepresnum = 1 
DOCKED: USER  
DOCKED: REMARK  Name = 
DOCKED: REMARK  7 active torsions:
DOCKED: REMARK  status: ('A' for Active; 'I' for Inactive)
DOCKED: REMARK    1  A    between atoms: C_3  and  C_4
DOCKED: REMARK    2  A    between atoms: C_4  and  C_5
DOCKED: REMARK    3  A    between atoms: C_5  and  C_6
DOCKED: REMARK    4  A    between atoms: C_6  and  C_7
DOCKED: REMARK    5  A    between atoms: C_7  and  C_8
DOCKED: REMARK    6  A    between atoms: C_8  and  C_9
DOCKED: REMARK    7  A    between atoms: C_9  and  C_10
DOCKED: REMARK                            x       y       z     vdW  Elec       q    Type
DOCKED: REMARK                         _______ _______ _______ _____ _____    ______ ____
DOCKED: USER                              x       y       z     vdW  Elec       q    Type
DOCKED: USER                           _______ _______ _______ _____ _____    ______ ____
DOCKED: ROOT
DOCKED: ATOM      1  C   UNL     1      37.653  13.732 122.963 -0.53 -0.00    +0.000 C 
DOCKED: ENDROOT
DOCKED: BRANCH   1   2
DOCKED: ATOM      2  C   UNL     1      37.352  14.977 122.117 -0.36 -0.00    +0.000 C 
DOCKED: BRANCH   2   3
DOCKED: ATOM      3  C   UNL     1      38.564  15.367 121.265 -0.28 -0.00    +0.000 C 
DOCKED: BRANCH   3   6
DOCKED: ATOM      4  O   UNL     1      41.520  16.123 123.500 -1.01 +0.00    +0.000 OA
DOCKED: ATOM      5  N   UNL     1      40.366  16.274 122.808 -0.30 -0.00    +0.000 N 
DOCKED: ATOM      6  C   UNL     1      39.831  15.191 122.044 -0.39 -0.00    +0.000 C 
DOCKED: ATOM      7  O   UNL     1      40.448  14.093 121.993 -1.05 +0.00    +0.000 OA
DOCKED: ATOM      8  H   UNL     1      39.891  17.135 122.832 -0.00 -0.00    +0.000 HD
DOCKED: ENDBRANCH   3   6
DOCKED: ENDBRANCH   2   3
DOCKED: ENDBRANCH   1   2
DOCKED: BRANCH   1   9
DOCKED: ATOM      9  C   UNL     1      36.425  13.222 123.741 -0.58 -0.00    +0.000 C 
DOCKED: BRANCH   9  10
DOCKED: ATOM     10  C   UNL     1      36.133  11.719 123.583 -0.69 -0.00    +0.000 C 
DOCKED: BRANCH  10  11
DOCKED: ATOM     11  C   UNL     1      36.334  11.219 122.147 -0.63 -0.00    +0.000 C 
DOCKED: BRANCH  11  12
DOCKED: ATOM     12  C   UNL     1      36.711   9.768 122.147 -0.68 -0.00    +0.000 C 
DOCKED: ATOM     13  N   UNL     1      36.714   9.025 123.368 -0.58 -0.00    +0.000 N 
DOCKED: ATOM     14  O   UNL     1      37.070   7.718 123.375 -2.66 -0.00    +0.000 OA
DOCKED: ATOM     15  O   UNL     1      37.064   9.214 121.072 -2.74 -0.00    +0.000 OA
DOCKED: ATOM     16  H   UNL     1      36.456   9.465 124.209 -0.40 -0.00    +0.000 HD
DOCKED: ENDBRANCH  11  12
DOCKED: ENDBRANCH  10  11
DOCKED: ENDBRANCH   9  10
DOCKED: ENDBRANCH   1   9
DOCKED: TORSDOF 7
DOCKED: TER
DOCKED: ENDMDL
________________________________________________________________________________


	BEGINNING GENETIC ALGORITHM DOCKING 98 of 100
Run: 98 Seed: 1104722385 180779149 [ Run 98 of 100 GA/GALS ]
Beginning LAMARCKIAN GENETIC ALGORITHM (LGA), with a maximum of 2500000 energy evaluations.

Final-Value: -12.466


	FINAL GENETIC ALGORITHM DOCKED STATE
	_______________________________________________


Detailed state:  trans 35.918 13.312 122.850 quatxyzw 0.578371 -0.772274 -0.250626 -0.079159 center 0.016 0.633 0.013 ntor 7 -7.4315 177.9817 -75.7747 93.2712 -30.6387 175.8818 -44.1445
State:	 35.918  13.312 122.850   0.580 -0.775 -0.251 -170.920     -7.43  177.98  -75.77   93.27  -30.64  175.88  -44.14

DOCKED: MODEL       98
DOCKED: USER    Run = 98
DOCKED: USER    DPF = ligand_dock.biased.dpf
DOCKED: USER  
DOCKED: USER    Estimated Free Energy of Binding    =   -9.67 kcal/mol  [=(1)+(2)+(3)-(4)]
DOCKED: USER    Estimated Inhibition Constant, Ki   =   82.13 nM (nanomolar)  [Temperature = 298.15 K]
DOCKED: USER    
DOCKED: USER    (1) Final Intermolecular Energy     =  -11.75 kcal/mol
DOCKED: USER        vdW + Hbond + desolv Energy     =  -11.75 kcal/mol
DOCKED: USER        Electrostatic Energy            =   +0.00 kcal/mol
DOCKED: USER    (2) Final Total Internal Energy     =   -0.71 kcal/mol
DOCKED: USER    (3) Torsional Free Energy           =   +2.09 kcal/mol
DOCKED: USER    (4) Unbound System's Energy  [=(2)] =   -0.71 kcal/mol
DOCKED: USER    
DOCKED: USER    
DOCKED: USER    NEWDPF move ligand.pdbqt
DOCKED: USER    NEWDPF about 0.016000 0.633000 0.013000
DOCKED: USER    NEWDPF tran0 35.918463 13.312449 122.850307
DOCKED: USER    NEWDPF quaternion0 0.578371 -0.772274 -0.250626 -0.079159
DOCKED: USER    NEWDPF axisangle0 0.580192 -0.774705 -0.251414 -170.919571
DOCKED: USER    NEWDPF quat0 0.580192 -0.774705 -0.251414 -170.919571
DOCKED: USER    NEWDPF dihe0 -7.43 177.98 -75.77 93.27 -30.64 175.88 -44.14 
DOCKED: USER  keepresnum = 1 
DOCKED: USER  
DOCKED: REMARK  Name = 
DOCKED: REMARK  7 active torsions:
DOCKED: REMARK  status: ('A' for Active; 'I' for Inactive)
DOCKED: REMARK    1  A    between atoms: C_3  and  C_4
DOCKED: REMARK    2  A    between atoms: C_4  and  C_5
DOCKED: REMARK    3  A    between atoms: C_5  and  C_6
DOCKED: REMARK    4  A    between atoms: C_6  and  C_7
DOCKED: REMARK    5  A    between atoms: C_7  and  C_8
DOCKED: REMARK    6  A    between atoms: C_8  and  C_9
DOCKED: REMARK    7  A    between atoms: C_9  and  C_10
DOCKED: REMARK                            x       y       z     vdW  Elec       q    Type
DOCKED: REMARK                         _______ _______ _______ _____ _____    ______ ____
DOCKED: USER                              x       y       z     vdW  Elec       q    Type
DOCKED: USER                           _______ _______ _______ _____ _____    ______ ____
DOCKED: ROOT
DOCKED: ATOM      1  C   UNL     1      37.370  12.590 121.351 -0.52 -0.00    +0.000 C 
DOCKED: ENDROOT
DOCKED: BRANCH   1   2
DOCKED: ATOM      2  C   UNL     1      37.036  11.770 122.605 -0.62 -0.00    +0.000 C 
DOCKED: BRANCH   2   3
DOCKED: ATOM      3  C   UNL     1      35.936  10.745 122.314 -0.65 -0.00    +0.000 C 
DOCKED: BRANCH   3   6
DOCKED: ATOM      4  O   UNL     1      37.440   7.422 123.311 -2.29 -0.00    +0.000 OA
DOCKED: ATOM      5  N   UNL     1      36.901   8.660 123.397 -0.65 -0.00    +0.000 N 
DOCKED: ATOM      6  C   UNL     1      36.515   9.367 122.215 -0.70 -0.00    +0.000 C 
DOCKED: ATOM      7  O   UNL     1      36.698   8.846 121.083 -2.62 -0.00    +0.000 OA
DOCKED: ATOM      8  H   UNL     1      36.772   9.077 124.278 -0.44 -0.00    +0.000 HD
DOCKED: ENDBRANCH   3   6
DOCKED: ENDBRANCH   2   3
DOCKED: ENDBRANCH   1   2
DOCKED: BRANCH   1   9
DOCKED: ATOM      9  C   UNL     1      38.006  13.955 121.676 -0.44 -0.00    +0.000 C 
DOCKED: BRANCH   9  10
DOCKED: ATOM     10  C   UNL     1      37.076  15.167 121.489 -0.29 -0.00    +0.000 C 
DOCKED: BRANCH  10  11
DOCKED: ATOM     11  C   UNL     1      36.756  15.883 122.808 -0.34 -0.00    +0.000 C 
DOCKED: BRANCH  11  12
DOCKED: ATOM     12  C   UNL     1      35.697  15.138 123.565 -0.50 -0.00    +0.000 C 
DOCKED: ATOM     13  N   UNL     1      34.328  15.535 123.465 -0.52 -0.00    +0.000 N 
DOCKED: ATOM     14  O   UNL     1      33.371  14.876 124.159 -0.57 -0.00    +0.000 OA
DOCKED: ATOM     15  O   UNL     1      36.023  14.185 124.321 -0.58 -0.00    +0.000 OA
DOCKED: ATOM     16  H   UNL     1      34.079  16.293 122.889 -0.03 -0.00    +0.000 HD
DOCKED: ENDBRANCH  11  12
DOCKED: ENDBRANCH  10  11
DOCKED: ENDBRANCH   9  10
DOCKED: ENDBRANCH   1   9
DOCKED: TORSDOF 7
DOCKED: TER
DOCKED: ENDMDL
________________________________________________________________________________


	BEGINNING GENETIC ALGORITHM DOCKING 99 of 100
Run: 99 Seed: 865494200 811193843 [ Run 99 of 100 GA/GALS ]
Beginning LAMARCKIAN GENETIC ALGORITHM (LGA), with a maximum of 2500000 energy evaluations.

Final-Value: -12.010


	FINAL GENETIC ALGORITHM DOCKED STATE
	_______________________________________________


Detailed state:  trans 36.249 13.611 122.050 quatxyzw -0.320696 -0.029402 -0.611099 0.723082 center 0.016 0.633 0.013 ntor 7 4.4183 70.8819 66.5853 86.2283 -36.0801 -18.8718 8.4400
State:	 36.249  13.611 122.050  -0.464 -0.043 -0.885 87.381      4.42   70.88   66.59   86.23  -36.08  -18.87    8.44

DOCKED: MODEL       99
DOCKED: USER    Run = 99
DOCKED: USER    DPF = ligand_dock.biased.dpf
DOCKED: USER  
DOCKED: USER    Estimated Free Energy of Binding    =   -9.21 kcal/mol  [=(1)+(2)+(3)-(4)]
DOCKED: USER    Estimated Inhibition Constant, Ki   =  177.14 nM (nanomolar)  [Temperature = 298.15 K]
DOCKED: USER    
DOCKED: USER    (1) Final Intermolecular Energy     =  -11.30 kcal/mol
DOCKED: USER        vdW + Hbond + desolv Energy     =  -11.30 kcal/mol
DOCKED: USER        Electrostatic Energy            =   +0.00 kcal/mol
DOCKED: USER    (2) Final Total Internal Energy     =   -0.71 kcal/mol
DOCKED: USER    (3) Torsional Free Energy           =   +2.09 kcal/mol
DOCKED: USER    (4) Unbound System's Energy  [=(2)] =   -0.71 kcal/mol
DOCKED: USER    
DOCKED: USER    
DOCKED: USER    NEWDPF move ligand.pdbqt
DOCKED: USER    NEWDPF about 0.016000 0.633000 0.013000
DOCKED: USER    NEWDPF tran0 36.249146 13.610778 122.050188
DOCKED: USER    NEWDPF quaternion0 -0.320696 -0.029402 -0.611099 0.723082
DOCKED: USER    NEWDPF axisangle0 -0.464265 -0.042564 -0.884673 87.380940
DOCKED: USER    NEWDPF quat0 -0.464265 -0.042564 -0.884673 87.380940
DOCKED: USER    NEWDPF dihe0 4.42 70.88 66.59 86.23 -36.08 -18.87 8.44 
DOCKED: USER  keepresnum = 1 
DOCKED: USER  
DOCKED: REMARK  Name = 
DOCKED: REMARK  7 active torsions:
DOCKED: REMARK  status: ('A' for Active; 'I' for Inactive)
DOCKED: REMARK    1  A    between atoms: C_3  and  C_4
DOCKED: REMARK    2  A    between atoms: C_4  and  C_5
DOCKED: REMARK    3  A    between atoms: C_5  and  C_6
DOCKED: REMARK    4  A    between atoms: C_6  and  C_7
DOCKED: REMARK    5  A    between atoms: C_7  and  C_8
DOCKED: REMARK    6  A    between atoms: C_8  and  C_9
DOCKED: REMARK    7  A    between atoms: C_9  and  C_10
DOCKED: REMARK                            x       y       z     vdW  Elec       q    Type
DOCKED: REMARK                         _______ _______ _______ _____ _____    ______ ____
DOCKED: USER                              x       y       z     vdW  Elec       q    Type
DOCKED: USER                           _______ _______ _______ _____ _____    ______ ____
DOCKED: ROOT
DOCKED: ATOM      1  C   UNL     1      38.395  13.723 121.541 -0.41 -0.00    +0.000 C 
DOCKED: ENDROOT
DOCKED: BRANCH   1   2
DOCKED: ATOM      2  C   UNL     1      37.426  14.861 121.191 -0.31 -0.00    +0.000 C 
DOCKED: BRANCH   2   3
DOCKED: ATOM      3  C   UNL     1      37.330  15.873 122.337 -0.30 -0.00    +0.000 C 
DOCKED: BRANCH   3   6
DOCKED: ATOM      4  O   UNL     1      34.450  14.871 124.572 -0.61 -0.00    +0.000 OA
DOCKED: ATOM      5  N   UNL     1      35.684  14.920 124.019 -0.50 -0.00    +0.000 N 
DOCKED: ATOM      6  C   UNL     1      35.968  15.835 122.958 -0.38 -0.00    +0.000 C 
DOCKED: ATOM      7  O   UNL     1      35.058  16.586 122.516 -0.37 -0.00    +0.000 OA
DOCKED: ATOM      8  H   UNL     1      36.392  14.323 124.351 -0.05 -0.00    +0.000 HD
DOCKED: ENDBRANCH   3   6
DOCKED: ENDBRANCH   2   3
DOCKED: ENDBRANCH   1   2
DOCKED: BRANCH   1   9
DOCKED: ATOM      9  C   UNL     1      38.043  12.396 120.843 -0.34 -0.00    +0.000 C 
DOCKED: BRANCH   9  10
DOCKED: ATOM     10  C   UNL     1      36.592  11.923 121.040 -0.38 -0.00    +0.000 C 
DOCKED: BRANCH  10  11
DOCKED: ATOM     11  C   UNL     1      36.368  11.227 122.389 -0.66 -0.00    +0.000 C 
DOCKED: BRANCH  11  12
DOCKED: ATOM     12  C   UNL     1      36.703   9.769 122.287 -0.69 -0.00    +0.000 C 
DOCKED: ATOM     13  N   UNL     1      37.065   9.030 123.456 -0.58 -0.00    +0.000 N 
DOCKED: ATOM     14  O   UNL     1      37.384   7.718 123.367 -2.55 -0.00    +0.000 OA
DOCKED: ATOM     15  O   UNL     1      36.705   9.205 121.161 -2.63 -0.00    +0.000 OA
DOCKED: ATOM     16  H   UNL     1      37.081   9.478 124.332 -0.53 -0.00    +0.000 HD
DOCKED: ENDBRANCH  11  12
DOCKED: ENDBRANCH  10  11
DOCKED: ENDBRANCH   9  10
DOCKED: ENDBRANCH   1   9
DOCKED: TORSDOF 7
DOCKED: TER
DOCKED: ENDMDL
________________________________________________________________________________


	BEGINNING GENETIC ALGORITHM DOCKING 100 of 100
Run: 100 Seed: 478913284 160422620 [ Run 100 of 100 GA/GALS ]
Beginning LAMARCKIAN GENETIC ALGORITHM (LGA), with a maximum of 2500000 energy evaluations.

Final-Value: -12.834


	FINAL GENETIC ALGORITHM DOCKED STATE
	_______________________________________________


Detailed state:  trans 38.053 14.788 123.140 quatxyzw 0.512527 0.820527 -0.224127 -0.117554 center 0.016 0.633 0.013 ntor 7 178.3294 -43.4966 144.2742 37.4168 -79.6260 -7.0648 -67.3934
State:	 38.053  14.788 123.140   0.516  0.826 -0.226 -166.498    178.33  -43.50  144.27   37.42  -79.63   -7.06  -67.39

DOCKED: MODEL      100
DOCKED: USER    Run = 100
DOCKED: USER    DPF = ligand_dock.biased.dpf
DOCKED: USER  
DOCKED: USER    Estimated Free Energy of Binding    =  -10.00 kcal/mol  [=(1)+(2)+(3)-(4)]
DOCKED: USER    Estimated Inhibition Constant, Ki   =   46.59 nM (nanomolar)  [Temperature = 298.15 K]
DOCKED: USER    
DOCKED: USER    (1) Final Intermolecular Energy     =  -12.09 kcal/mol
DOCKED: USER        vdW + Hbond + desolv Energy     =  -12.09 kcal/mol
DOCKED: USER        Electrostatic Energy            =   +0.00 kcal/mol
DOCKED: USER    (2) Final Total Internal Energy     =   -0.74 kcal/mol
DOCKED: USER    (3) Torsional Free Energy           =   +2.09 kcal/mol
DOCKED: USER    (4) Unbound System's Energy  [=(2)] =   -0.74 kcal/mol
DOCKED: USER    
DOCKED: USER    
DOCKED: USER    NEWDPF move ligand.pdbqt
DOCKED: USER    NEWDPF about 0.016000 0.633000 0.013000
DOCKED: USER    NEWDPF tran0 38.053198 14.788075 123.140204
DOCKED: USER    NEWDPF quaternion0 0.512527 0.820527 -0.224127 -0.117554
DOCKED: USER    NEWDPF axisangle0 0.516105 0.826256 -0.225692 -166.498062
DOCKED: USER    NEWDPF quat0 0.516105 0.826256 -0.225692 -166.498062
DOCKED: USER    NEWDPF dihe0 178.33 -43.50 144.27 37.42 -79.63 -7.06 -67.39 
DOCKED: USER  keepresnum = 1 
DOCKED: USER  
DOCKED: REMARK  Name = 
DOCKED: REMARK  7 active torsions:
DOCKED: REMARK  status: ('A' for Active; 'I' for Inactive)
DOCKED: REMARK    1  A    between atoms: C_3  and  C_4
DOCKED: REMARK    2  A    between atoms: C_4  and  C_5
DOCKED: REMARK    3  A    between atoms: C_5  and  C_6
DOCKED: REMARK    4  A    between atoms: C_6  and  C_7
DOCKED: REMARK    5  A    between atoms: C_7  and  C_8
DOCKED: REMARK    6  A    between atoms: C_8  and  C_9
DOCKED: REMARK    7  A    between atoms: C_9  and  C_10
DOCKED: REMARK                            x       y       z     vdW  Elec       q    Type
DOCKED: REMARK                         _______ _______ _______ _____ _____    ______ ____
DOCKED: USER                              x       y       z     vdW  Elec       q    Type
DOCKED: USER                           _______ _______ _______ _____ _____    ______ ____
DOCKED: ROOT
DOCKED: ATOM      1  C   UNL     1      35.947  14.131 123.046 -0.40 -0.00    +0.000 C 
DOCKED: ENDROOT
DOCKED: BRANCH   1   2
DOCKED: ATOM      2  C   UNL     1      36.336  15.499 123.623 -0.43 -0.00    +0.000 C 
DOCKED: BRANCH   2   3
DOCKED: ATOM      3  C   UNL     1      37.351  16.207 122.720 -0.29 -0.00    +0.000 C 
DOCKED: BRANCH   3   6
DOCKED: ATOM      4  O   UNL     1      40.422  14.095 122.079 -1.05 +0.00    +0.000 OA
DOCKED: ATOM      5  N   UNL     1      39.574  14.980 122.653 -0.40 -0.00    +0.000 N 
DOCKED: ATOM      6  C   UNL     1      38.279  15.212 122.093 -0.35 -0.00    +0.000 C 
DOCKED: ATOM      7  O   UNL     1      37.930  14.607 121.044 -0.32 -0.00    +0.000 OA
DOCKED: ATOM      8  H   UNL     1      39.850  15.467 123.462 -0.02 -0.00    +0.000 HD
DOCKED: ENDBRANCH   3   6
DOCKED: ENDBRANCH   2   3
DOCKED: ENDBRANCH   1   2
DOCKED: BRANCH   1   9
DOCKED: ATOM      9  C   UNL     1      36.541  12.952 123.840 -0.58 -0.00    +0.000 C 
DOCKED: BRANCH   9  10
DOCKED: ATOM     10  C   UNL     1      37.291  11.909 122.993 -0.54 -0.00    +0.000 C 
DOCKED: BRANCH  10  11
DOCKED: ATOM     11  C   UNL     1      36.362  11.103 122.076 -0.63 -0.00    +0.000 C 
DOCKED: BRANCH  11  12
DOCKED: ATOM     12  C   UNL     1      36.702   9.644 122.139 -0.69 -0.00    +0.000 C 
DOCKED: ATOM     13  N   UNL     1      37.005   9.029 123.393 -0.60 -0.00    +0.000 N 
DOCKED: ATOM     14  O   UNL     1      37.328   7.716 123.452 -2.63 -0.00    +0.000 OA
DOCKED: ATOM     15  O   UNL     1      36.758   8.969 121.076 -2.63 -0.00    +0.000 OA
DOCKED: ATOM     16  H   UNL     1      36.979   9.564 124.218 -0.56 -0.00    +0.000 HD
DOCKED: ENDBRANCH  11  12
DOCKED: ENDBRANCH  10  11
DOCKED: ENDBRANCH   9  10
DOCKED: ENDBRANCH   1   9
DOCKED: TORSDOF 7
DOCKED: TER
DOCKED: ENDMDL
________________________________________________________________________________

DPF> analysis                             # perform a ranked cluster analysis


		CLUSTER ANALYSIS OF CONFORMATIONS
		_________________________________

Number of conformations = 100

RMSD cluster analysis will be performed using the ligand atoms only (16 / 16 total atoms).

Outputting structurally similar clusters, ranked in order of increasing energy.


________________________________________________________________________________

Number of distinct conformational clusters found = 8,  out of 100 runs,
Using an rmsd-tolerance of 2.0 A


	CLUSTERING HISTOGRAM
	____________________

________________________________________________________________________________
     |           |     |           |     |                                    
Clus | Lowest    | Run | Mean      | Num | Histogram                          
-ter | Binding   |     | Binding   | in  |                                    
Rank | Energy    |     | Energy    | Clus|    5    10   15   20   25   30   35
_____|___________|_____|___________|_____|____:____|____:____|____:____|____:___
   1 |    -11.16 |   6 |    -10.08 |  50 |##################################################
   2 |    -10.83 |  63 |     -9.96 |  31 |###############################
   3 |    -10.34 |  13 |    -10.34 |   1 |#
   4 |    -10.03 |  68 |     -9.39 |  10 |##########
   5 |     -9.98 |   9 |     -9.75 |   5 |#####
   6 |     -9.36 |  67 |     -9.36 |   1 |#
   7 |     -9.31 |  47 |     -9.31 |   1 |#
   8 |     -8.79 |  20 |     -8.79 |   1 |#
_____|___________|_____|___________|_____|______________________________________


Number of multi-member conformational clusters found = 4, out of 100 runs.

	RMSD TABLE
	__________

_____________________________________________________________________
     |      |      |           |         |                 |
Rank | Sub- | Run  | Binding   | Cluster | Reference       | Grep
     | Rank |      | Energy    | RMSD    | RMSD            | Pattern
_____|______|______|___________|_________|_________________|___________
   1      1      6      -11.16      0.00    128.46           RANKING
   1      2     16      -10.90      0.49    128.53           RANKING
   1      3     97      -10.80      0.73    128.25           RANKING
   1      4     55      -10.74      0.66    128.38           RANKING
   1      5     71      -10.71      0.66    128.46           RANKING
   1      6     92      -10.70      1.00    128.50           RANKING
   1      7     19      -10.66      0.96    128.29           RANKING
   1      8     75      -10.63      1.04    128.32           RANKING
   1      9     88      -10.59      0.91    128.22           RANKING
   1     10     39      -10.52      0.74    128.46           RANKING
   1     11      1      -10.50      0.79    128.33           RANKING
   1     12     59      -10.50      1.20    128.46           RANKING
   1     13     32      -10.50      0.85    128.20           RANKING
   1     14     41      -10.50      1.04    128.39           RANKING
   1     15     66      -10.47      0.74    128.25           RANKING
   1     16     34      -10.44      0.55    128.47           RANKING
   1     17     62      -10.44      0.91    128.10           RANKING
   1     18     37      -10.35      1.21    128.30           RANKING
   1     19      3      -10.34      0.83    128.29           RANKING
   1     20     25      -10.27      1.07    128.30           RANKING
   1     21      5      -10.26      1.31    128.49           RANKING
   1     22     14      -10.25      1.08    128.34           RANKING
   1     23     96      -10.22      1.15    128.06           RANKING
   1     24     45      -10.20      0.82    128.63           RANKING
   1     25     53      -10.20      1.22    128.23           RANKING
   1     26     36      -10.17      0.85    128.26           RANKING
   1     27     40      -10.16      1.33    128.28           RANKING
   1     28     48      -10.07      1.10    128.00           RANKING
   1     29     33      -10.01      1.27    128.30           RANKING
   1     30     21      -10.01      1.47    127.92           RANKING
   1     31    100      -10.00      1.55    128.12           RANKING
   1     32     93       -9.96      1.24    128.42           RANKING
   1     33     22       -9.94      1.02    128.08           RANKING
   1     34      2       -9.88      0.90    128.46           RANKING
   1     35     58       -9.82      1.16    128.42           RANKING
   1     36     50       -9.77      1.20    128.12           RANKING
   1     37     86       -9.75      0.98    128.19           RANKING
   1     38     90       -9.72      1.48    128.22           RANKING
   1     39     74       -9.68      1.06    128.21           RANKING
   1     40     80       -9.64      1.22    128.16           RANKING
   1     41     44       -9.57      1.51    127.93           RANKING
   1     42     89       -9.56      1.43    128.40           RANKING
   1     43     35       -9.53      1.42    128.03           RANKING
   1     44     73       -9.52      1.42    128.27           RANKING
   1     45     82       -9.35      1.69    127.69           RANKING
   1     46     49       -9.31      1.48    128.15           RANKING
   1     47     83       -9.27      1.39    127.85           RANKING
   1     48     51       -9.22      1.42    127.91           RANKING
   1     49     78       -8.73      1.73    128.00           RANKING
   1     50     72       -8.71      1.39    128.06           RANKING
   2      1     63      -10.83      0.00    128.62           RANKING
   2      2      8      -10.82      0.57    128.56           RANKING
   2      3     94      -10.75      0.67    128.51           RANKING
   2      4     76      -10.60      1.10    128.67           RANKING
   2      5     29      -10.52      0.79    128.65           RANKING
   2      6     60      -10.51      0.72    128.58           RANKING
   2      7     56      -10.49      0.78    128.51           RANKING
   2      8      7      -10.45      0.89    128.60           RANKING
   2      9     84      -10.38      1.43    128.72           RANKING
   2     10     10      -10.36      0.89    128.74           RANKING
   2     11     11      -10.35      1.02    128.44           RANKING
   2     12     64      -10.10      0.90    128.32           RANKING
   2     13     15      -10.06      1.37    128.63           RANKING
   2     14     91      -10.05      0.76    128.50           RANKING
   2     15     38       -9.98      1.23    128.25           RANKING
   2     16     23       -9.91      1.62    127.99           RANKING
   2     17     27       -9.83      1.51    127.94           RANKING
   2     18     12       -9.70      1.67    127.77           RANKING
   2     19     98       -9.67      1.85    127.76           RANKING
   2     20     18       -9.66      0.82    128.78           RANKING
   2     21     42       -9.66      1.66    127.87           RANKING
   2     22     43       -9.66      1.99    127.67           RANKING
   2     23     26       -9.63      1.67    127.80           RANKING
   2     24      4       -9.56      1.30    127.81           RANKING
   2     25     95       -9.56      1.19    128.07           RANKING
   2     26     30       -9.55      1.67    127.92           RANKING
   2     27     81       -9.54      1.22    128.08           RANKING
   2     28     46       -9.45      1.78    127.94           RANKING
   2     29     99       -9.21      1.70    127.75           RANKING
   2     30     69       -8.90      0.92    128.58           RANKING
   2     31     28       -8.90      1.10    128.29           RANKING
   3      1     13      -10.34      0.00    127.05           RANKING
   4      1     68      -10.03      0.00    127.30           RANKING
   4      2     57       -9.82      0.82    126.94           RANKING
   4      3     87       -9.73      1.18    127.34           RANKING
   4      4     79       -9.64      1.48    126.38           RANKING
   4      5     65       -9.59      1.41    126.41           RANKING
   4      6     70       -9.49      1.09    127.14           RANKING
   4      7     17       -9.35      1.04    126.96           RANKING
   4      8     77       -9.30      1.78    126.23           RANKING
   4      9     52       -9.06      2.00    127.65           RANKING
   4     10     85       -7.93      1.75    126.56           RANKING
   5      1      9       -9.98      0.00    128.10           RANKING
   5      2     54       -9.87      1.13    128.10           RANKING
   5      3     61       -9.67      0.95    127.83           RANKING
   5      4     24       -9.64      1.00    127.98           RANKING
   5      5     31       -9.61      1.45    127.62           RANKING
   6      1     67       -9.36      0.00    127.82           RANKING
   7      1     47       -9.31      0.00    125.12           RANKING
   8      1     20       -8.79      0.00    126.48           RANKING
_______________________________________________________________________



	INFORMATION ENTROPY ANALYSIS FOR THIS CLUSTERING
	________________________________________________


Information entropy for this clustering = 0.28  (rmstol = 2.00 Angstrom)

_______________________________________________________________________


	STATISTICAL MECHANICAL ANALYSIS
	_______________________________


Partition function, Q =   101.69            at Temperature, T = 298.15 K
Free energy,        A ~ -2738.41 kcal/mol   at Temperature, T = 298.15 K
Internal energy,    U =    -9.93 kcal/mol   at Temperature, T = 298.15 K
Entropy,            S =     9.15 kcal/mol/K at Temperature, T = 298.15 K

_______________________________________________________________________


	LOWEST ENERGY DOCKED CONFORMATION from EACH CLUSTER
	___________________________________________________



Keeping original residue number (specified in the input PDBQ file) for outputting.

MODEL        6
USER    Run = 6
USER    Cluster Rank = 1
USER    Number of conformations in this cluster = 50
USER  
USER    RMSD from reference structure       = 128.457 A
USER  
USER    Estimated Free Energy of Binding    =  -11.16 kcal/mol  [=(1)+(2)+(3)-(4)]
USER    Estimated Inhibition Constant, Ki   =    6.64 nM (nanomolar)  [Temperature = 298.15 K]
USER    
USER    (1) Final Intermolecular Energy     =  -13.24 kcal/mol
USER        vdW + Hbond + desolv Energy     =  -13.24 kcal/mol
USER        Electrostatic Energy            =   +0.00 kcal/mol
USER    (2) Final Total Internal Energy     =   -0.50 kcal/mol
USER    (3) Torsional Free Energy           =   +2.09 kcal/mol
USER    (4) Unbound System's Energy  [=(2)] =   -0.50 kcal/mol
USER    
USER    
USER  
USER    DPF = ligand_dock.biased.dpf
USER    NEWDPF move	ligand.pdbqt
USER    NEWDPF about	0.016000 0.633000 0.013000
USER    NEWDPF tran0	38.875842 12.898007 123.565759
USER    NEWDPF axisangle0	0.826823 0.474305 -0.302323 -145.298945
USER    NEWDPF quaternion0	0.789201 0.452723 -0.288567 -0.298217
USER    NEWDPF dihe0	-157.24 -107.69 24.18 -48.18 -40.74 68.94 -85.82 
USER  
USER                              x       y       z    vdW   Elec        q     RMS 
ATOM      1  C   UNL     1      37.116  13.665 122.474 -0.50 -0.00    +0.000    128.457
ATOM      2  C   UNL     1      38.252  14.596 122.922 -0.43 -0.00    +0.000    128.457
ATOM      3  C   UNL     1      39.394  14.599 121.901 -0.39 -0.00    +0.000    128.457
ATOM      4  O   UNL     1      42.109  16.670 123.525 -1.04 -0.00    +0.000    128.457
ATOM      5  N   UNL     1      40.936  16.326 122.945 -0.34 -0.00    +0.000    128.457
ATOM      6  C   UNL     1      40.687  14.972 122.561 -0.48 -0.00    +0.000    128.457
ATOM      7  O   UNL     1      41.572  14.094 122.742 -1.06 +0.00    +0.000    128.457
ATOM      8  H   UNL     1      40.250  17.012 122.786 -0.00 -0.00    +0.000    128.457
ATOM      9  C   UNL     1      36.399  12.981 123.652 -0.62 -0.00    +0.000    128.457
ATOM     10  C   UNL     1      35.873  11.564 123.361 -0.67 -0.00    +0.000    128.457
ATOM     11  C   UNL     1      36.325  11.028 121.995 -0.61 -0.00    +0.000    128.457
ATOM     12  C   UNL     1      36.700   9.580 122.100 -0.69 -0.00    +0.000    128.457
ATOM     13  N   UNL     1      37.069   9.021 123.362 -0.61 -0.00    +0.000    128.457
ATOM     14  O   UNL     1      37.424   7.718 123.458 -2.61 -0.00    +0.000    128.457
ATOM     15  O   UNL     1      36.727   8.865 121.063 -2.62 -0.00    +0.000    128.457
ATOM     16  H   UNL     1      37.066   9.587 124.167 -0.57 -0.00    +0.000    128.457
TER
ENDMDL
MODEL       63
USER    Run = 63
USER    Cluster Rank = 2
USER    Number of conformations in this cluster = 31
USER  
USER    RMSD from reference structure       = 128.622 A
USER  
USER    Estimated Free Energy of Binding    =  -10.83 kcal/mol  [=(1)+(2)+(3)-(4)]
USER    Estimated Inhibition Constant, Ki   =   11.45 nM (nanomolar)  [Temperature = 298.15 K]
USER    
USER    (1) Final Intermolecular Energy     =  -12.92 kcal/mol
USER        vdW + Hbond + desolv Energy     =  -12.92 kcal/mol
USER        Electrostatic Energy            =   +0.00 kcal/mol
USER    (2) Final Total Internal Energy     =   -0.44 kcal/mol
USER    (3) Torsional Free Energy           =   +2.09 kcal/mol
USER    (4) Unbound System's Energy  [=(2)] =   -0.44 kcal/mol
USER    
USER    
USER  
USER    DPF = ligand_dock.biased.dpf
USER    NEWDPF move	ligand.pdbqt
USER    NEWDPF about	0.016000 0.633000 0.013000
USER    NEWDPF tran0	36.848686 12.198665 121.532289
USER    NEWDPF axisangle0	-0.843837 0.313206 -0.435708 -134.357807
USER    NEWDPF quaternion0	-0.777781 0.288689 -0.401601 -0.387855
USER    NEWDPF dihe0	-83.30 -129.42 -34.04 -8.18 -110.11 -95.02 146.87 
USER  
USER                              x       y       z    vdW   Elec        q     RMS 
ATOM      1  C   UNL     1      37.783  13.146 123.295 -0.49 -0.00    +0.000    128.622
ATOM      2  C   UNL     1      37.015  11.821 123.408 -0.68 -0.00    +0.000    128.622
ATOM      3  C   UNL     1      36.794  11.196 122.027 -0.60 -0.00    +0.000    128.622
ATOM      4  O   UNL     1      37.066   7.707 123.459 -2.69 -0.00    +0.000    128.622
ATOM      5  N   UNL     1      37.027   9.057 123.376 -0.60 -0.00    +0.000    128.622
ATOM      6  C   UNL     1      36.818   9.701 122.117 -0.65 -0.00    +0.000    128.622
ATOM      7  O   UNL     1      36.692   9.009 121.071 -2.61 -0.00    +0.000    128.622
ATOM      8  H   UNL     1      37.142   9.600 124.189 -0.59 -0.00    +0.000    128.622
ATOM      9  C   UNL     1      36.898  14.315 122.823 -0.48 -0.00    +0.000    128.622
ATOM     10  C   UNL     1      36.124  15.037 123.940 -0.46 -0.00    +0.000    128.622
ATOM     11  C   UNL     1      34.874  15.765 123.427 -0.48 -0.00    +0.000    128.622
ATOM     12  C   UNL     1      34.155  16.433 124.561 -0.50 -0.00    +0.000    128.622
ATOM     13  N   UNL     1      33.958  15.740 125.796 -0.46 -0.00    +0.000    128.622
ATOM     14  O   UNL     1      33.295  16.334 126.816 -1.13 -0.00    +0.000    128.622
ATOM     15  O   UNL     1      33.690  17.593 124.408 -0.47 -0.00    +0.000    128.622
ATOM     16  H   UNL     1      34.306  14.827 125.905 -0.04 -0.00    +0.000    128.622
TER
ENDMDL
MODEL       13
USER    Run = 13
USER    Cluster Rank = 3
USER    Number of conformations in this cluster = 1
USER  
USER    RMSD from reference structure       = 127.047 A
USER  
USER    Estimated Free Energy of Binding    =  -10.34 kcal/mol  [=(1)+(2)+(3)-(4)]
USER    Estimated Inhibition Constant, Ki   =   26.23 nM (nanomolar)  [Temperature = 298.15 K]
USER    
USER    (1) Final Intermolecular Energy     =  -12.43 kcal/mol
USER        vdW + Hbond + desolv Energy     =  -12.43 kcal/mol
USER        Electrostatic Energy            =   +0.00 kcal/mol
USER    (2) Final Total Internal Energy     =   -0.51 kcal/mol
USER    (3) Torsional Free Energy           =   +2.09 kcal/mol
USER    (4) Unbound System's Energy  [=(2)] =   -0.51 kcal/mol
USER    
USER    
USER  
USER    DPF = ligand_dock.biased.dpf
USER    NEWDPF move	ligand.pdbqt
USER    NEWDPF about	0.016000 0.633000 0.013000
USER    NEWDPF tran0	35.825112 9.164856 121.242453
USER    NEWDPF axisangle0	-0.651444 -0.754072 0.083644 -152.360531
USER    NEWDPF quaternion0	-0.632586 -0.732243 0.081222 -0.238868
USER    NEWDPF dihe0	88.90 -148.74 -16.94 -139.44 -62.58 -47.59 107.25 
USER  
USER                              x       y       z    vdW   Elec        q     RMS 
ATOM      1  C   UNL     1      33.699   9.307 121.824 -0.60 -0.00    +0.000    127.047
ATOM      2  C   UNL     1      34.816   9.862 122.720 -0.42 -0.00    +0.000    127.047
ATOM      3  C   UNL     1      35.579  10.987 122.014 -0.44 -0.00    +0.000    127.047
ATOM      4  O   UNL     1      38.050  13.470 123.436 -0.59 -0.00    +0.000    127.047
ATOM      5  N   UNL     1      37.307  12.769 122.549 -0.51 -0.00    +0.000    127.047
ATOM      6  C   UNL     1      36.386  11.774 123.000 -0.68 -0.00    +0.000    127.047
ATOM      7  O   UNL     1      36.279  11.529 124.232 -0.74 -0.00    +0.000    127.047
ATOM      8  H   UNL     1      37.401  12.945 121.585 -0.01 -0.00    +0.000    127.047
ATOM      9  C   UNL     1      33.798   7.785 121.612 -0.67 -0.00    +0.000    127.047
ATOM     10  C   UNL     1      34.060   6.966 122.888 -0.76 -0.00    +0.000    127.047
ATOM     11  C   UNL     1      35.473   6.371 122.938 -0.73 -0.00    +0.000    127.047
ATOM     12  C   UNL     1      36.493   7.418 122.603 -0.77 -0.00    +0.000    127.047
ATOM     13  N   UNL     1      36.504   8.026 121.310 -0.55 -0.00    +0.000    127.047
ATOM     14  O   UNL     1      37.433   8.959 120.998 -2.37 -0.00    +0.000    127.047
ATOM     15  O   UNL     1      37.368   7.732 123.454 -2.61 -0.00    +0.000    127.047
ATOM     16  H   UNL     1      35.831   7.764 120.641 +0.03 +0.00    +0.000    127.047
TER
ENDMDL
MODEL       68
USER    Run = 68
USER    Cluster Rank = 4
USER    Number of conformations in this cluster = 10
USER  
USER    RMSD from reference structure       = 127.302 A
USER  
USER    Estimated Free Energy of Binding    =  -10.03 kcal/mol  [=(1)+(2)+(3)-(4)]
USER    Estimated Inhibition Constant, Ki   =   44.53 nM (nanomolar)  [Temperature = 298.15 K]
USER    
USER    (1) Final Intermolecular Energy     =  -12.12 kcal/mol
USER        vdW + Hbond + desolv Energy     =  -12.12 kcal/mol
USER        Electrostatic Energy            =   +0.00 kcal/mol
USER    (2) Final Total Internal Energy     =   -0.85 kcal/mol
USER    (3) Torsional Free Energy           =   +2.09 kcal/mol
USER    (4) Unbound System's Energy  [=(2)] =   -0.85 kcal/mol
USER    
USER    
USER  
USER    DPF = ligand_dock.biased.dpf
USER    NEWDPF move	ligand.pdbqt
USER    NEWDPF about	0.016000 0.633000 0.013000
USER    NEWDPF tran0	37.193099 12.336634 125.198293
USER    NEWDPF axisangle0	0.277679 -0.498758 -0.821058 -141.650320
USER    NEWDPF quaternion0	0.262273 -0.471087 -0.775506 -0.328452
USER    NEWDPF dihe0	-98.99 19.44 23.27 178.67 83.01 -40.28 -148.96 
USER  
USER                              x       y       z    vdW   Elec        q     RMS 
ATOM      1  C   UNL     1      35.997  12.971 123.454 -0.62 -0.00    +0.000    127.302
ATOM      2  C   UNL     1      36.607  11.565 123.541 -0.70 -0.00    +0.000    127.302
ATOM      3  C   UNL     1      36.893  11.004 122.144 -0.59 -0.00    +0.000    127.302
ATOM      4  O   UNL     1      37.067   7.460 123.450 -2.51 -0.00    +0.000    127.302
ATOM      5  N   UNL     1      37.027   8.812 123.420 -0.62 -0.00    +0.000    127.302
ATOM      6  C   UNL     1      36.917   9.506 122.175 -0.65 -0.00    +0.000    127.302
ATOM      7  O   UNL     1      36.880   8.858 121.095 -2.66 -0.00    +0.000    127.302
ATOM      8  H   UNL     1      37.073   9.321 124.260 -0.56 -0.00    +0.000    127.302
ATOM      9  C   UNL     1      37.058  14.088 123.448 -0.51 -0.00    +0.000    127.302
ATOM     10  C   UNL     1      36.664  15.356 122.671 -0.37 -0.00    +0.000    127.302
ATOM     11  C   UNL     1      37.319  15.436 121.285 -0.26 -0.00    +0.000    127.302
ATOM     12  C   UNL     1      38.065  14.171 120.986 -0.38 -0.00    +0.000    127.302
ATOM     13  N   UNL     1      37.525  13.216 120.070 -0.42 -0.00    +0.000    127.302
ATOM     14  O   UNL     1      38.187  12.065 119.809 -0.52 -0.00    +0.000    127.302
ATOM     15  O   UNL     1      39.152  13.932 121.576 -0.72 -0.00    +0.000    127.302
ATOM     16  H   UNL     1      36.666  13.397 119.625 -0.03 -0.00    +0.000    127.302
TER
ENDMDL
MODEL        9
USER    Run = 9
USER    Cluster Rank = 5
USER    Number of conformations in this cluster = 5
USER  
USER    RMSD from reference structure       = 128.097 A
USER  
USER    Estimated Free Energy of Binding    =   -9.98 kcal/mol  [=(1)+(2)+(3)-(4)]
USER    Estimated Inhibition Constant, Ki   =   48.26 nM (nanomolar)  [Temperature = 298.15 K]
USER    
USER    (1) Final Intermolecular Energy     =  -12.07 kcal/mol
USER        vdW + Hbond + desolv Energy     =  -12.07 kcal/mol
USER        Electrostatic Energy            =   +0.00 kcal/mol
USER    (2) Final Total Internal Energy     =   -0.43 kcal/mol
USER    (3) Torsional Free Energy           =   +2.09 kcal/mol
USER    (4) Unbound System's Energy  [=(2)] =   -0.43 kcal/mol
USER    
USER    
USER  
USER    DPF = ligand_dock.biased.dpf
USER    NEWDPF move	ligand.pdbqt
USER    NEWDPF about	0.016000 0.633000 0.013000
USER    NEWDPF tran0	36.832229 12.586378 121.639086
USER    NEWDPF axisangle0	-0.751290 0.203262 -0.627892 -115.032590
USER    NEWDPF quaternion0	-0.633746 0.171461 -0.529654 -0.537060
USER    NEWDPF dihe0	-128.20 134.74 -28.08 -108.91 -89.97 175.09 160.54 
USER  
USER                              x       y       z    vdW   Elec        q     RMS 
ATOM      1  C   UNL     1      36.680  13.229 123.746 -0.54 -0.00    +0.000    128.097
ATOM      2  C   UNL     1      36.168  11.856 123.286 -0.69 -0.00    +0.000    128.097
ATOM      3  C   UNL     1      37.061  11.280 122.183 -0.56 -0.00    +0.000    128.097
ATOM      4  O   UNL     1      37.067   7.713 123.437 -2.69 -0.00    +0.000    128.097
ATOM      5  N   UNL     1      37.098   9.066 123.426 -0.57 -0.00    +0.000    128.097
ATOM      6  C   UNL     1      37.007   9.783 122.192 -0.60 -0.00    +0.000    128.097
ATOM      7  O   UNL     1      36.921   9.154 121.104 -2.69 -0.00    +0.000    128.097
ATOM      8  H   UNL     1      37.182   9.560 124.272 -0.58 -0.00    +0.000    128.097
ATOM      9  C   UNL     1      35.941  14.402 123.074 -0.43 -0.00    +0.000    128.097
ATOM     10  C   UNL     1      34.830  15.044 123.923 -0.57 -0.00    +0.000    128.097
ATOM     11  C   UNL     1      35.151  16.487 124.335 -0.46 -0.00    +0.000    128.097
ATOM     12  C   UNL     1      34.894  17.426 123.195 -0.39 -0.00    +0.000    128.097
ATOM     13  N   UNL     1      35.792  18.508 122.937 -0.22 -0.00    +0.000    128.097
ATOM     14  O   UNL     1      35.554  19.368 121.918 -0.62 -0.00    +0.000    128.097
ATOM     15  O   UNL     1      33.862  17.282 122.488 -0.47 -0.00    +0.000    128.097
ATOM     16  H   UNL     1      36.587  18.629 123.503 +0.00 -0.00    +0.000    128.097
TER
ENDMDL
MODEL       67
USER    Run = 67
USER    Cluster Rank = 6
USER    Number of conformations in this cluster = 1
USER  
USER    RMSD from reference structure       = 127.824 A
USER  
USER    Estimated Free Energy of Binding    =   -9.36 kcal/mol  [=(1)+(2)+(3)-(4)]
USER    Estimated Inhibition Constant, Ki   =  138.79 nM (nanomolar)  [Temperature = 298.15 K]
USER    
USER    (1) Final Intermolecular Energy     =  -11.44 kcal/mol
USER        vdW + Hbond + desolv Energy     =  -11.44 kcal/mol
USER        Electrostatic Energy            =   +0.00 kcal/mol
USER    (2) Final Total Internal Energy     =   -0.81 kcal/mol
USER    (3) Torsional Free Energy           =   +2.09 kcal/mol
USER    (4) Unbound System's Energy  [=(2)] =   -0.81 kcal/mol
USER    
USER    
USER  
USER    DPF = ligand_dock.biased.dpf
USER    NEWDPF move	ligand.pdbqt
USER    NEWDPF about	0.016000 0.633000 0.013000
USER    NEWDPF tran0	35.289061 12.685227 120.146130
USER    NEWDPF axisangle0	-0.750303 0.637090 -0.176525 -165.730020
USER    NEWDPF quaternion0	-0.744493 0.632157 -0.175158 -0.124207
USER    NEWDPF dihe0	123.40 8.01 72.44 113.50 55.01 -9.94 177.25 
USER  
USER                              x       y       z    vdW   Elec        q     RMS 
ATOM      1  C   UNL     1      37.444  12.569 120.613 -0.52 -0.00    +0.000    127.824
ATOM      2  C   UNL     1      36.397  11.840 121.467 -0.48 -0.00    +0.000    127.824
ATOM      3  C   UNL     1      37.062  11.078 122.618 -0.59 -0.00    +0.000    127.824
ATOM      4  O   UNL     1      37.063   7.342 123.200 -2.36 -0.00    +0.000    127.824
ATOM      5  N   UNL     1      37.061   8.675 123.437 -0.65 -0.00    +0.000    127.824
ATOM      6  C   UNL     1      37.045   9.604 122.351 -0.61 -0.00    +0.000    127.824
ATOM      7  O   UNL     1      37.055   9.184 121.164 -2.73 -0.00    +0.000    127.824
ATOM      8  H   UNL     1      37.070   9.006 124.363 -0.52 -0.00    +0.000    127.824
ATOM      9  C   UNL     1      37.269  14.099 120.624 -0.34 -0.00    +0.000    127.824
ATOM     10  C   UNL     1      38.433  14.883 121.256 -0.33 -0.00    +0.000    127.824
ATOM     11  C   UNL     1      38.502  14.725 122.781 -0.42 -0.00    +0.000    127.824
ATOM     12  C   UNL     1      37.227  15.197 123.414 -0.40 -0.00    +0.000    127.824
ATOM     13  N   UNL     1      36.173  14.272 123.686 -0.51 -0.00    +0.000    127.824
ATOM     14  O   UNL     1      35.014  14.697 124.243 -0.64 -0.00    +0.000    127.824
ATOM     15  O   UNL     1      37.072  16.421 123.668 -0.34 -0.00    +0.000    127.824
ATOM     16  H   UNL     1      36.290  13.320 123.469 -0.03 -0.00    +0.000    127.824
TER
ENDMDL
MODEL       47
USER    Run = 47
USER    Cluster Rank = 7
USER    Number of conformations in this cluster = 1
USER  
USER    RMSD from reference structure       = 125.122 A
USER  
USER    Estimated Free Energy of Binding    =   -9.31 kcal/mol  [=(1)+(2)+(3)-(4)]
USER    Estimated Inhibition Constant, Ki   =  150.74 nM (nanomolar)  [Temperature = 298.15 K]
USER    
USER    (1) Final Intermolecular Energy     =  -11.39 kcal/mol
USER        vdW + Hbond + desolv Energy     =  -11.39 kcal/mol
USER        Electrostatic Energy            =   +0.00 kcal/mol
USER    (2) Final Total Internal Energy     =   -0.53 kcal/mol
USER    (3) Torsional Free Energy           =   +2.09 kcal/mol
USER    (4) Unbound System's Energy  [=(2)] =   -0.53 kcal/mol
USER    
USER    
USER  
USER    DPF = ligand_dock.biased.dpf
USER    NEWDPF move	ligand.pdbqt
USER    NEWDPF about	0.016000 0.633000 0.013000
USER    NEWDPF tran0	38.930766 12.725916 121.434369
USER    NEWDPF axisangle0	-0.109720 -0.586689 -0.802345 -130.717912
USER    NEWDPF quaternion0	-0.099729 -0.533264 -0.729282 -0.416932
USER    NEWDPF dihe0	42.25 165.13 -13.19 -172.17 -6.49 -70.22 -124.39 
USER  
USER                              x       y       z    vdW   Elec        q     RMS 
ATOM      1  C   UNL     1      36.990  13.084 120.443 -0.43 -0.00    +0.000    125.122
ATOM      2  C   UNL     1      37.439  11.671 120.844 -0.49 -0.00    +0.000    125.122
ATOM      3  C   UNL     1      36.469  11.053 121.855 -0.56 -0.00    +0.000    125.122
ATOM      4  O   UNL     1      37.241   7.714 123.453 -2.65 -0.00    +0.000    125.122
ATOM      5  N   UNL     1      36.980   9.034 123.308 -0.62 -0.00    +0.000    125.122
ATOM      6  C   UNL     1      36.738   9.588 122.013 -0.67 -0.00    +0.000    125.122
ATOM      7  O   UNL     1      36.790   8.848 120.994 -2.64 -0.00    +0.000    125.122
ATOM      8  H   UNL     1      36.957   9.617 124.100 -0.53 -0.00    +0.000    125.122
ATOM      9  C   UNL     1      37.923  13.741 119.409 -0.30 -0.00    +0.000    125.122
ATOM     10  C   UNL     1      37.443  15.100 118.870 -0.24 -0.00    +0.000    125.122
ATOM     11  C   UNL     1      37.505  15.193 117.340 -0.21 -0.00    +0.000    125.122
ATOM     12  C   UNL     1      37.662  13.828 116.739 -0.39 -0.00    +0.000    125.122
ATOM     13  N   UNL     1      38.896  13.448 116.128 -0.40 -0.00    +0.000    125.122
ATOM     14  O   UNL     1      39.036  12.222 115.570 -0.74 -0.00    +0.000    125.122
ATOM     15  O   UNL     1      36.687  13.030 116.740 -0.43 -0.00    +0.000    125.122
ATOM     16  H   UNL     1      39.649  14.081 116.112 -0.10 -0.00    +0.000    125.122
TER
ENDMDL
MODEL       20
USER    Run = 20
USER    Cluster Rank = 8
USER    Number of conformations in this cluster = 1
USER  
USER    RMSD from reference structure       = 126.480 A
USER  
USER    Estimated Free Energy of Binding    =   -8.79 kcal/mol  [=(1)+(2)+(3)-(4)]
USER    Estimated Inhibition Constant, Ki   =  361.71 nM (nanomolar)  [Temperature = 298.15 K]
USER    
USER    (1) Final Intermolecular Energy     =  -10.88 kcal/mol
USER        vdW + Hbond + desolv Energy     =  -10.88 kcal/mol
USER        Electrostatic Energy            =   +0.00 kcal/mol
USER    (2) Final Total Internal Energy     =   -0.53 kcal/mol
USER    (3) Torsional Free Energy           =   +2.09 kcal/mol
USER    (4) Unbound System's Energy  [=(2)] =   -0.53 kcal/mol
USER    
USER    
USER  
USER    DPF = ligand_dock.biased.dpf
USER    NEWDPF move	ligand.pdbqt
USER    NEWDPF about	0.016000 0.633000 0.013000
USER    NEWDPF tran0	36.828163 10.565544 121.326763
USER    NEWDPF axisangle0	-0.445080 0.377996 -0.811802 -116.406154
USER    NEWDPF quaternion0	-0.378283 0.321267 -0.689968 -0.526910
USER    NEWDPF dihe0	129.00 161.97 101.96 -78.06 20.81 123.22 -29.41 
USER  
USER                              x       y       z    vdW   Elec        q     RMS 
ATOM      1  C   UNL     1      36.150  10.597 123.428 -0.60 -0.00    +0.000    126.480
ATOM      2  C   UNL     1      35.371   9.837 122.344 -0.64 -0.00    +0.000    126.480
ATOM      3  C   UNL     1      34.729   8.570 122.916 -0.67 -0.00    +0.000    126.480
ATOM      4  O   UNL     1      36.310   5.139 123.088 -1.15 -0.00    +0.000    126.480
ATOM      5  N   UNL     1      35.390   6.118 122.922 -0.70 -0.00    +0.000    126.480
ATOM      6  C   UNL     1      35.755   7.490 123.082 -0.76 -0.00    +0.000    126.480
ATOM      7  O   UNL     1      36.935   7.794 123.402 -2.57 -0.00    +0.000    126.480
ATOM      8  H   UNL     1      34.463   5.883 122.689 -0.07 -0.00    +0.000    126.480
ATOM      9  C   UNL     1      36.221  12.113 123.167 -0.67 -0.00    +0.000    126.480
ATOM     10  C   UNL     1      37.441  12.576 122.351 -0.54 -0.00    +0.000    126.480
ATOM     11  C   UNL     1      37.482  11.971 120.941 -0.49 -0.00    +0.000    126.480
ATOM     12  C   UNL     1      37.195  13.023 119.912 -0.47 -0.00    +0.000    126.480
ATOM     13  N   UNL     1      35.992  12.968 119.142 -0.20 -0.00    +0.000    126.480
ATOM     14  O   UNL     1      35.737  13.907 118.201 -0.41 -0.00    +0.000    126.480
ATOM     15  O   UNL     1      38.037  13.935 119.700 -0.34 -0.00    +0.000    126.480
ATOM     16  H   UNL     1      35.345  12.244 119.298 -0.58 -0.00    +0.000    126.480
TER
ENDMDL


AVSFLD: # AVS field file
AVSFLD: #
AVSFLD: # Created by AutoDock
AVSFLD: #
AVSFLD: ndim=2           # number of dimensions in the field
AVSFLD: nspace=1         # number of physical coordinates
AVSFLD: veclen=7         # vector size
AVSFLD: dim1=16          # atoms
AVSFLD: dim2=8           # conformations
AVSFLD: data=Real       # data type (byte,integer,Real,double)
AVSFLD: field=uniform    # field coordinate layout
AVSFLD: label= x y z vdW Elec q RMS
AVSFLD: variable 1 file = ligand_dock.biased.dlg.pdb filetype = ascii offset = 5 stride = 12
AVSFLD: variable 2 file = ligand_dock.biased.dlg.pdb filetype = ascii offset = 6 stride = 12
AVSFLD: variable 3 file = ligand_dock.biased.dlg.pdb filetype = ascii offset = 7 stride = 12
AVSFLD: variable 4 file = ligand_dock.biased.dlg.pdb filetype = ascii offset = 8 stride = 12
AVSFLD: variable 5 file = ligand_dock.biased.dlg.pdb filetype = ascii offset = 9 stride = 12
AVSFLD: variable 6 file = ligand_dock.biased.dlg.pdb filetype = ascii offset = 10 stride = 12
AVSFLD: variable 7 file = ligand_dock.biased.dlg.pdb filetype = ascii offset = 11 stride = 12
AVSFLD: # end of file

>>> Closing the docking parameter file (DPF)...
This docking finished at:			6:15 43" p.m., 11/08/2024


________________________________________________________________________________

autodock4: Successful Completion on "ThinkStation-P620"

Real= 8m 34.15s,  CPU= 8m 33.83s,  System= 0.19s
________________________________________________________________________________

