REMARK  Name = 
REMARK  10 active torsions:
REMARK  status: ('A' for Active; 'I' for Inactive)
REMARK    1  A    between atoms: C_2  and  C_5
REMARK    2  A    between atoms: C_6  and  C_7
REMARK    3  A    between atoms: C_10  and  C_11
REMARK    4  A    between atoms: C_11  and  N_12
REMARK    5  A    between atoms: N_12  and  C_13
REMARK    6  A    between atoms: N_12  and  C_16
REMARK    7  A    between atoms: C_13  and  C_14
REMARK    8  A    between atoms: C_14  and  O_15
REMARK    9  A    between atoms: C_16  and  C_17
REMARK   10  A    between atoms: C_17  and  C_18
REMARK                            x       y       z     vdW  Elec       q    Type
REMARK                         _______ _______ _______ _____ _____    ______ ____
ROOT
ATOM      1  N   UNL     1       5.573  -2.707  -8.283  0.00  0.00    +0.000 N 
ATOM      2  H   UNL     1       5.151  -2.628  -7.358  0.00  0.00    +0.000 HD
ENDROOT
BRANCH   1   3
ATOM      3  C   UNL     1       5.533  -1.316  -8.806  0.00  0.00    +0.000 C 
BRANCH   3   7
ATOM      4  C   UNL     1       8.174  -0.502 -12.157  0.00  0.00    +0.000 A 
ATOM      5  C   UNL     1       6.565  -1.095 -12.481  0.00  0.00    +0.000 A 
ATOM      6  C   UNL     1       5.856  -1.414 -11.320  0.00  0.00    +0.000 A 
ATOM      7  C   UNL     1       6.314  -0.986 -10.064  0.00  0.00    +0.000 A 
ATOM      8  C   UNL     1       7.474  -0.197  -9.997  0.00  0.00    +0.000 A 
ATOM      9  C   UNL     1       8.183   0.124 -11.158  0.00  0.00    +0.000 A 
BRANCH   4  11
ATOM     10  C   UNL     1       9.311   1.006 -13.819  0.00  0.00    +0.000 C 
ATOM     11  C   UNL     1       8.628  -0.033 -13.641  0.00  0.00    +0.000 C 
BRANCH  10  13
ATOM     12  O   UNL     1      10.140   0.181 -16.028  0.00  0.00    +0.000 OA
ATOM     13  C   UNL     1      10.177   0.171 -15.045  0.00  0.00    +0.000 C 
ATOM     14  N   UNL     1      11.604   0.112 -15.098  0.00  0.00    +0.000 N 
ATOM     15  O   UNL     1      12.239  -0.119 -16.272  0.00  0.00    +0.000 OA
ATOM     16  H   UNL     1      12.131   0.241 -14.276  0.00  0.00    +0.000 HD
ENDBRANCH  10  13
ENDBRANCH   4  11
ENDBRANCH   3   7
ENDBRANCH   1   3
BRANCH   1  17
ATOM     17  C   UNL     1       6.930  -3.239  -8.021  0.00  0.00    +0.000 C 
BRANCH  17  18
ATOM     18  C   UNL     1       6.896  -4.416  -7.043  0.00  0.00    +0.000 C 
BRANCH  18  19
ATOM     19  O   UNL     1       6.538  -5.588  -7.722  0.00  0.00    +0.000 OA
ATOM     20  H   UNL     1       6.621  -5.447  -8.677  0.00  0.00    +0.000 HD
ENDBRANCH  18  19
ENDBRANCH  17  18
ENDBRANCH   1  17
BRANCH   1  21
ATOM     21  C   UNL     1       4.721  -3.650  -9.046  0.00  0.00    +0.000 C 
BRANCH  21  22
ATOM     22  C   UNL     1       4.654  -5.006  -8.337  0.00  0.00    +0.000 C 
BRANCH  22  23
ATOM     23  C   UNL     1       4.655  -6.132  -9.330  0.00  0.00    +0.000 A 
ATOM     24  C   UNL     1       3.570  -6.935  -9.665  0.00  0.00    +0.000 A 
ATOM     25  N   UNL     1       3.889  -7.757 -10.690  0.00  0.00    +0.000 N 
ATOM     26  C   UNL     1       5.161  -7.469 -11.016  0.00  0.00    +0.000 A 
ATOM     27  C   UNL     1       5.663  -6.479 -10.211  0.00  0.00    +0.000 A 
ATOM     28  C   UNL     1       6.957  -5.983 -10.378  0.00  0.00    +0.000 A 
ATOM     29  C   UNL     1       7.743  -6.534 -11.406  0.00  0.00    +0.000 A 
ATOM     30  C   UNL     1       7.227  -7.554 -12.234  0.00  0.00    +0.000 A 
ATOM     31  C   UNL     1       5.917  -8.031 -12.044  0.00  0.00    +0.000 A 
ATOM     32  H   UNL     1       3.308  -8.431 -11.113  0.00  0.00    +0.000 HD
ENDBRANCH  22  23
ENDBRANCH  21  22
ENDBRANCH   1  21
TORSDOF 10
