          AutoDock 4.2 Release 4.2.6   
         (C) 1989-2012 The Scripps Research Institute
        AutoDock comes with ABSOLUTELY NO WARRANTY.
        AutoDock is free software, and you are welcome
        to redistribute it under certain conditions;
        for details type 'autodock4 -C'

                     main.cc  $Revision: 1.213 $

                   Compiled on Feb 20 2022 at 09:48:33


This file was created at:			5:06 21" p.m., 11/03/2024
                   on host:		"ThinkStation-P620"
Current Working Directory = "/home/antonio/Documenti/buccheri/IDROSSAMICO HDAC/HDAC 4/DP/Ligand_5"

      ________________________________________________________________

                   SETTING UP DEFAULT PARAMETER LIBRARY
      ________________________________________________________________


Random number generator was seeded with values 24276, 1730649981.
Docking parameter file (DPF) used for this docking:		ligand_dock.biased.dpf
DPF> autodock_parameter_version 4.2       # used by autodock to validate parameter set

	Autodock parameter version 4.2.
DPF> outlev 1                             # diagnostic output level

Output Level = 1  ADT-COMPATIBLE OUTPUT DURING DOCKING.
DPF> intelec                              # calculate internal electrostatics

Electrostatic energies will be calculated for all non-bonds between moving atoms.
DPF> seed pid time                        # seeds for random generator

Random number generator was seeded with values 24276, 1730649981.
DPF> ligand_types A C OA HD N             # atoms types in ligand

DPF> fld receptor.maps.fld                # grid_data_file

Opening Grid Map Dimensions file:		receptor.maps.fld
Grid Point Spacing =				0.375 Angstroms

Even Number of User-specified Grid Points =	70 x-points
						70 y-points
						70 z-points

Coordinates of Central Grid Point of Maps =	(19.141, -8.645, -3.505)
Macromolecule file used to create Grid Maps =	receptor.pdbqt
Grid Parameter file used to create Grid Maps =	receptor.gpf
Minimum coordinates in grid = (6.016, -21.770, -16.630)
Maximum coordinates in grid = (32.266, 4.480, 9.620)

DPF> map receptor.A.map                   # atom-specific affinity map

DPF> map receptor.C.map                   # atom-specific affinity map

DPF> map receptor.OA.biased.map

DPF> map receptor.HD.map                  # atom-specific affinity map

DPF> map receptor.N.map                   # atom-specific affinity map

DPF> elecmap receptor.e.map               # electrostatics map

DPF> desolvmap receptor.d.map             # desolvation map

DPF> move ligand.pdbqt                    # small molecule

1,4-interactions will be _ignored_ in the non-bonded internal energy calculation.

Ligand PDBQT file = "ligand.pdbqt"

INPUT LIGAND PDBQT FILE:
________________________

INPUT-LIGAND-PDBQT: REMARK  Name = 
INPUT-LIGAND-PDBQT: REMARK  10 active torsions:
INPUT-LIGAND-PDBQT: REMARK  status: ('A' for Active; 'I' for Inactive)
INPUT-LIGAND-PDBQT: REMARK    1  A    between atoms: C_2  and  C_5
INPUT-LIGAND-PDBQT: REMARK    2  A    between atoms: C_6  and  C_7
INPUT-LIGAND-PDBQT: REMARK    3  A    between atoms: C_10  and  C_11
INPUT-LIGAND-PDBQT: REMARK    4  A    between atoms: C_11  and  N_12
INPUT-LIGAND-PDBQT: REMARK    5  A    between atoms: N_12  and  C_13
INPUT-LIGAND-PDBQT: REMARK    6  A    between atoms: N_12  and  C_16
INPUT-LIGAND-PDBQT: REMARK    7  A    between atoms: C_13  and  C_14
INPUT-LIGAND-PDBQT: REMARK    8  A    between atoms: C_14  and  O_15
INPUT-LIGAND-PDBQT: REMARK    9  A    between atoms: C_16  and  C_17
INPUT-LIGAND-PDBQT: REMARK   10  A    between atoms: C_17  and  C_18
INPUT-LIGAND-PDBQT: REMARK                            x       y       z     vdW  Elec       q    Type
INPUT-LIGAND-PDBQT: REMARK                         _______ _______ _______ _____ _____    ______ ____
INPUT-LIGAND-PDBQT: ROOT
INPUT-LIGAND-PDBQT: ATOM      1  N   UNL     1      -1.012  -0.298  -0.055  0.00  0.00    +0.000 N 
INPUT-LIGAND-PDBQT: ATOM      2  H   UNL     1      -1.931   0.050  -0.328  0.00  0.00    +0.000 HD
INPUT-LIGAND-PDBQT: ENDROOT
INPUT-LIGAND-PDBQT: BRANCH   1   3
INPUT-LIGAND-PDBQT: ATOM      3  C   UNL     1      -0.080   0.429  -0.956  0.00  0.00    +0.000 C 
INPUT-LIGAND-PDBQT: BRANCH   3   7
INPUT-LIGAND-PDBQT: ATOM      4  C   UNL     1       4.146  -0.184  -0.164  0.00  0.00    +0.000 A 
INPUT-LIGAND-PDBQT: ATOM      5  C   UNL     1       3.466  -0.995  -1.085  0.00  0.00    +0.000 A 
INPUT-LIGAND-PDBQT: ATOM      6  C   UNL     1       2.107  -0.796  -1.342  0.00  0.00    +0.000 A 
INPUT-LIGAND-PDBQT: ATOM      7  C   UNL     1       1.390   0.201  -0.662  0.00  0.00    +0.000 A 
INPUT-LIGAND-PDBQT: ATOM      8  C   UNL     1       2.071   1.023   0.251  0.00  0.00    +0.000 A 
INPUT-LIGAND-PDBQT: ATOM      9  C   UNL     1       3.431   0.826   0.509  0.00  0.00    +0.000 A 
INPUT-LIGAND-PDBQT: BRANCH   4  11
INPUT-LIGAND-PDBQT: ATOM     10  C   UNL     1       6.429   0.462   0.601  0.00  0.00    +0.000 C 
INPUT-LIGAND-PDBQT: ATOM     11  C   UNL     1       5.587  -0.443   0.082  0.00  0.00    +0.000 C 
INPUT-LIGAND-PDBQT: BRANCH  10  13
INPUT-LIGAND-PDBQT: ATOM     12  O   UNL     1       8.333  -0.967   0.545  0.00  0.00    +0.000 OA
INPUT-LIGAND-PDBQT: ATOM     13  C   UNL     1       7.859   0.169   0.821  0.00  0.00    +0.000 C 
INPUT-LIGAND-PDBQT: ATOM     14  N   UNL     1       8.716   1.181   1.354  0.00  0.00    +0.000 N 
INPUT-LIGAND-PDBQT: ATOM     15  O   UNL     1      10.030   0.928   1.562  0.00  0.00    +0.000 OA
INPUT-LIGAND-PDBQT: ATOM     16  H   UNL     1       8.349   2.069   1.571  0.00  0.00    +0.000 HD
INPUT-LIGAND-PDBQT: ENDBRANCH  10  13
INPUT-LIGAND-PDBQT: ENDBRANCH   4  11
INPUT-LIGAND-PDBQT: ENDBRANCH   3   7
INPUT-LIGAND-PDBQT: ENDBRANCH   1   3
INPUT-LIGAND-PDBQT: BRANCH   1  17
INPUT-LIGAND-PDBQT: ATOM     17  C   UNL     1      -0.899   0.055   1.379  0.00  0.00    +0.000 C 
INPUT-LIGAND-PDBQT: BRANCH  17  18
INPUT-LIGAND-PDBQT: ATOM     18  C   UNL     1      -1.425   1.466   1.656  0.00  0.00    +0.000 C 
INPUT-LIGAND-PDBQT: BRANCH  18  19
INPUT-LIGAND-PDBQT: ATOM     19  O   UNL     1      -2.738   1.586   1.183  0.00  0.00    +0.000 OA
INPUT-LIGAND-PDBQT: ATOM     20  H   UNL     1      -2.753   1.424   0.227  0.00  0.00    +0.000 HD
INPUT-LIGAND-PDBQT: ENDBRANCH  18  19
INPUT-LIGAND-PDBQT: ENDBRANCH  17  18
INPUT-LIGAND-PDBQT: ENDBRANCH   1  17
INPUT-LIGAND-PDBQT: BRANCH   1  21
INPUT-LIGAND-PDBQT: ATOM     21  C   UNL     1      -1.040  -1.761  -0.289  0.00  0.00    +0.000 C 
INPUT-LIGAND-PDBQT: BRANCH  21  22
INPUT-LIGAND-PDBQT: ATOM     22  C   UNL     1      -2.069  -2.112  -1.369  0.00  0.00    +0.000 C 
INPUT-LIGAND-PDBQT: BRANCH  22  23
INPUT-LIGAND-PDBQT: ATOM     23  C   UNL     1      -3.450  -1.700  -0.948  0.00  0.00    +0.000 A 
INPUT-LIGAND-PDBQT: ATOM     24  C   UNL     1      -4.299  -2.409  -0.105  0.00  0.00    +0.000 A 
INPUT-LIGAND-PDBQT: ATOM     25  N   UNL     1      -5.408  -1.685   0.168  0.00  0.00    +0.000 N 
INPUT-LIGAND-PDBQT: ATOM     26  C   UNL     1      -5.259  -0.518  -0.483  0.00  0.00    +0.000 A 
INPUT-LIGAND-PDBQT: ATOM     27  C   UNL     1      -4.074  -0.487  -1.173  0.00  0.00    +0.000 A 
INPUT-LIGAND-PDBQT: ATOM     28  C   UNL     1      -3.678   0.636  -1.901  0.00  0.00    +0.000 A 
INPUT-LIGAND-PDBQT: ATOM     29  C   UNL     1      -4.538   1.749  -1.910  0.00  0.00    +0.000 A 
INPUT-LIGAND-PDBQT: ATOM     30  C   UNL     1      -5.758   1.717  -1.200  0.00  0.00    +0.000 A 
INPUT-LIGAND-PDBQT: ATOM     31  C   UNL     1      -6.129   0.572  -0.472  0.00  0.00    +0.000 A 
INPUT-LIGAND-PDBQT: ATOM     32  H   UNL     1      -6.170  -1.956   0.729  0.00  0.00    +0.000 HD
INPUT-LIGAND-PDBQT: ENDBRANCH  22  23
INPUT-LIGAND-PDBQT: ENDBRANCH  21  22
INPUT-LIGAND-PDBQT: ENDBRANCH   1  21
INPUT-LIGAND-PDBQT: TORSDOF 10
________________________________________________________________________________

Total charge on ligand                               =	+0.000 e
REMARK  Name = 
REMARK  10 active torsions:
REMARK  status: ('A' for Active; 'I' for Inactive)
REMARK    1  A    between atoms: C_2  and  C_5
REMARK    2  A    between atoms: C_6  and  C_7
REMARK    3  A    between atoms: C_10  and  C_11
REMARK    4  A    between atoms: C_11  and  N_12
REMARK    5  A    between atoms: N_12  and  C_13
REMARK    6  A    between atoms: N_12  and  C_16
REMARK    7  A    between atoms: C_13  and  C_14
REMARK    8  A    between atoms: C_14  and  O_15
REMARK    9  A    between atoms: C_16  and  C_17
REMARK   10  A    between atoms: C_17  and  C_18
REMARK                            x       y       z     vdW  Elec       q    Type
REMARK                         _______ _______ _______ _____ _____    ______ ____


Number of Rotatable Bonds in Small Molecule =	10 torsions
Number of atoms in ligand:  32

Number of non-hydrogen atoms in ligand:  28

Number of vibrational degrees of freedom of ligand:  90


Number of torsional degrees of freedom = 10
Estimated loss of torsional free energy upon binding = +2.9830 kcal/mol


DPF> about 0.288 0.007 -0.056            # small molecule center

Small molecule center of rotation =	(+0.288, +0.007, -0.056)

DPF> tran0 random                         # initial coordinates/A or random

Initial translation =			(29.644, 4.376, 9.363) Angstroms
DPF> quaternion0 random                   # initial orientation

Each run will begin with a new, random initial orientation.
Initial quaternion,  (x,y,z,w) =	( 0.115, 0.445, -0.341, 0.820 ),
DPF> dihe0 random                         # initial dihedrals (relative) or random

DPF> torsdof 10                            # torsional degrees of freedom

Number of torsional degrees of freedom = 10
Free energy coefficient for torsional degrees of freedom = 0.2983, the factory default value.

Estimated loss of torsional free energy upon binding = +2.9830 kcal/mol

DPF> rmstol 2.0                           # cluster_tolerance/A

Maximum RMS tolerance for conformational cluster analysis = 2.00 Angstroms
DPF> extnrg 1000.0                        # external grid energy

External grid energy (beyond grid map walls) = 1000.00

DPF> e0max 0.0 10000                      # max initial energy; max number of retries

Using user-specified maximum number of retries for simanneal initialization, 10000 retries.
If the simanneal initial energy is greater than e0max, 0.000,
then a new, random initial state will be created.

DPF> ga_pop_size 150                      # number of individuals in population

A population of 150 individuals will be used
DPF> ga_num_evals 2500000                 # maximum number of energy evaluations

There will be at most 2500000 function evaluations used.
DPF> ga_num_generations 27000             # maximum number of generations

The GA will run for at most 27000 generations.
DPF> ga_elitism 1                         # number of top individuals to survive to next generation

The 1 best will be preserved each GA generation.
DPF> ga_mutation_rate 0.02                # rate of gene mutation

The mutation rate is 0.020000.
DPF> ga_crossover_rate 0.8                # rate of crossover

The crossover rate is 0.800000.
DPF> ga_window_size 10                    # 

The GA's selection window is 10 generations.
DPF> ga_cauchy_alpha 0.0                  # Alpha parameter of Cauchy distribution

The alpha parameter (for the Cauchy distribution) is being set to 0.000000.
DPF> ga_cauchy_beta 1.0                   # Beta parameter Cauchy distribution

The beta parameter (for the Cauchy distribution) is being set to 1.000000.
DPF> set_ga                               # set the above parameters for GA or LGA

DPF> sw_max_its 300                       # iterations of Solis & Wets local search

Solis & Wets algorithms will perform at most 300 iterations.
DPF> sw_max_succ 4                        # consecutive successes before changing rho

Solis & Wets algorithms expand rho every 4 in a row successes.
DPF> sw_max_fail 4                        # consecutive failures before changing rho

Solis & Wets algorithms contract rho every 4 in a row failures.
DPF> sw_rho 1.0                           # size of local search space to sample

rho is set to 1.000000.
DPF> sw_lb_rho 0.01                       # lower bound on rho

rho will never get smaller than 0.010000.
DPF> ls_search_freq 0.06                  # probability of performing local search on individual

Local search will be performed with frequency 0.060000.
DPF> set_psw1                             # set the above pseudo-Solis & Wets parameters

Creating a new Local Search object using the pseudo-Solis-Wets algorithm (pSW1) with the current settings.

DPF> unbound_model bound                  # state of unbound ligand

DPF> ga_run 100

centering ligand on specified point: 0.288 0.007 -0.056
Furthest true ligand atom from "about" center is 9.918 Angstroms (maxrad).
Number of requested GA dockings = 100 runs
Unbound model to be used is 'same as bound' [AutoDock 4.2 default].

	BEGINNING GENETIC ALGORITHM DOCKING 1 of 100
Run: 1 Seed: 701296053 660606189 [ Run 1 of 100 GA/GALS ]
Beginning LAMARCKIAN GENETIC ALGORITHM (LGA), with a maximum of 2500000 energy evaluations.

Final-Value: -15.121


	FINAL GENETIC ALGORITHM DOCKED STATE
	_______________________________________________


Detailed state:  trans 18.956 -11.252 0.177 quatxyzw -0.334387 -0.614926 0.268511 0.661780 center 0.288 0.007 -0.056 ntor 10 -47.4262 -17.7433 -3.5857 -147.7239 43.2326 6.8844 -69.5572 85.5303 175.3440 -28.9003
State:	 18.956 -11.252   0.177  -0.446 -0.820  0.358 97.128    -47.43  -17.74   -3.59 -147.72   43.23    6.88  -69.56   85.53  175.34  -28.90

DOCKED: MODEL        1
DOCKED: USER    Run = 1
DOCKED: USER    DPF = ligand_dock.biased.dpf
DOCKED: USER  
DOCKED: USER    Estimated Free Energy of Binding    =   -9.92 kcal/mol  [=(1)+(2)+(3)-(4)]
DOCKED: USER    Estimated Inhibition Constant, Ki   =   53.10 nM (nanomolar)  [Temperature = 298.15 K]
DOCKED: USER    
DOCKED: USER    (1) Final Intermolecular Energy     =  -12.91 kcal/mol
DOCKED: USER        vdW + Hbond + desolv Energy     =  -12.91 kcal/mol
DOCKED: USER        Electrostatic Energy            =   +0.00 kcal/mol
DOCKED: USER    (2) Final Total Internal Energy     =   -2.21 kcal/mol
DOCKED: USER    (3) Torsional Free Energy           =   +2.98 kcal/mol
DOCKED: USER    (4) Unbound System's Energy  [=(2)] =   -2.21 kcal/mol
DOCKED: USER    
DOCKED: USER    
DOCKED: USER    NEWDPF move ligand.pdbqt
DOCKED: USER    NEWDPF about 0.288000 0.007000 -0.056000
DOCKED: USER    NEWDPF tran0 18.956121 -11.251517 0.177198
DOCKED: USER    NEWDPF quaternion0 -0.334387 -0.614926 0.268511 0.661780
DOCKED: USER    NEWDPF axisangle0 -0.446029 -0.820232 0.358159 97.128458
DOCKED: USER    NEWDPF quat0 -0.446029 -0.820232 0.358159 97.128458
DOCKED: USER    NEWDPF dihe0 -47.43 -17.74 -3.59 -147.72 43.23 6.88 -69.56 85.53 175.34 -28.90 
DOCKED: USER  keepresnum = 1 
DOCKED: USER  
DOCKED: REMARK  Name = 
DOCKED: REMARK  10 active torsions:
DOCKED: REMARK  status: ('A' for Active; 'I' for Inactive)
DOCKED: REMARK    1  A    between atoms: C_2  and  C_5
DOCKED: REMARK    2  A    between atoms: C_6  and  C_7
DOCKED: REMARK    3  A    between atoms: C_10  and  C_11
DOCKED: REMARK    4  A    between atoms: C_11  and  N_12
DOCKED: REMARK    5  A    between atoms: N_12  and  C_13
DOCKED: REMARK    6  A    between atoms: N_12  and  C_16
DOCKED: REMARK    7  A    between atoms: C_13  and  C_14
DOCKED: REMARK    8  A    between atoms: C_14  and  O_15
DOCKED: REMARK    9  A    between atoms: C_16  and  C_17
DOCKED: REMARK   10  A    between atoms: C_17  and  C_18
DOCKED: REMARK                            x       y       z     vdW  Elec       q    Type
DOCKED: REMARK                         _______ _______ _______ _____ _____    ______ ____
DOCKED: USER                              x       y       z     vdW  Elec       q    Type
DOCKED: USER                           _______ _______ _______ _____ _____    ______ ____
DOCKED: ROOT
DOCKED: ATOM      1  N   UNL     1      18.594 -11.518   1.434 -0.50 -0.00    +0.000 N 
DOCKED: ATOM      2  H   UNL     1      18.596 -11.138   2.381 -0.01 -0.00    +0.000 HD
DOCKED: ENDROOT
DOCKED: BRANCH   1   3
DOCKED: ATOM      3  C   UNL     1      18.672 -10.310   0.572 -0.10 -0.00    +0.000 C 
DOCKED: BRANCH   3   7
DOCKED: ATOM      4  C   UNL     1      20.994 -10.894  -3.051 -0.37 -0.00    +0.000 A 
DOCKED: ATOM      5  C   UNL     1      21.599 -10.400  -1.886 -0.40 -0.00    +0.000 A 
DOCKED: ATOM      6  C   UNL     1      20.853 -10.215  -0.719 -0.59 -0.00    +0.000 A 
DOCKED: ATOM      7  C   UNL     1      19.477 -10.493  -0.700 -0.42 -0.00    +0.000 A 
DOCKED: ATOM      8  C   UNL     1      18.871 -10.999  -1.861 -0.35 -0.00    +0.000 A 
DOCKED: ATOM      9  C   UNL     1      19.616 -11.186  -3.029 -0.33 -0.00    +0.000 A 
DOCKED: BRANCH   4  11
DOCKED: ATOM     10  C   UNL     1      21.332 -11.097  -5.513 -0.51 -0.00    +0.000 C 
DOCKED: ATOM     11  C   UNL     1      21.828 -11.063  -4.268 -0.41 -0.00    +0.000 C 
DOCKED: BRANCH  10  13
DOCKED: ATOM     12  O   UNL     1      21.883 -10.759  -7.805 -0.31 -0.00    +0.000 OA
DOCKED: ATOM     13  C   UNL     1      22.194 -11.277  -6.697 -0.43 -0.00    +0.000 C 
DOCKED: ATOM     14  N   UNL     1      23.393 -12.047  -6.591 -0.52 -0.00    +0.000 N 
DOCKED: ATOM     15  O   UNL     1      24.195 -12.222  -7.668 -0.93 -0.00    +0.000 OA
DOCKED: ATOM     16  H   UNL     1      23.639 -12.454  -5.728 -0.07 +0.00    +0.000 HD
DOCKED: ENDBRANCH  10  13
DOCKED: ENDBRANCH   4  11
DOCKED: ENDBRANCH   3   7
DOCKED: ENDBRANCH   1   3
DOCKED: BRANCH   1  17
DOCKED: ATOM     17  C   UNL     1      19.785 -12.396   1.391 -0.67 -0.00    +0.000 C 
DOCKED: BRANCH  17  18
DOCKED: ATOM     18  C   UNL     1      21.013 -11.713   1.999 -0.52 -0.00    +0.000 C 
DOCKED: BRANCH  18  19
DOCKED: ATOM     19  O   UNL     1      20.629 -10.937   3.100 -1.32 -0.00    +0.000 OA
DOCKED: ATOM     20  H   UNL     1      20.684  -9.998   2.868 -0.49 -0.00    +0.000 HD
DOCKED: ENDBRANCH  18  19
DOCKED: ENDBRANCH  17  18
DOCKED: ENDBRANCH   1  17
DOCKED: BRANCH   1  21
DOCKED: ATOM     21  C   UNL     1      17.321 -12.263   1.293 -0.42 +0.00    +0.000 C 
DOCKED: BRANCH  21  22
DOCKED: ATOM     22  C   UNL     1      16.384 -11.546   0.315 -0.43 +0.00    +0.000 C 
DOCKED: BRANCH  22  23
DOCKED: ATOM     23  C   UNL     1      15.012 -11.389   0.904 -0.35 +0.00    +0.000 A 
DOCKED: ATOM     24  C   UNL     1      14.061 -12.393   1.054 -0.27 +0.00    +0.000 A 
DOCKED: ATOM     25  N   UNL     1      12.992 -11.933   1.743 -0.41 +0.00    +0.000 N 
DOCKED: ATOM     26  C   UNL     1      13.267 -10.652   2.043 -0.29 +0.00    +0.000 A 
DOCKED: ATOM     27  C   UNL     1      14.493 -10.283   1.552 -0.26 +0.00    +0.000 A 
DOCKED: ATOM     28  C   UNL     1      15.015  -9.006   1.765 -0.26 +0.00    +0.000 A 
DOCKED: ATOM     29  C   UNL     1      14.240  -8.096   2.505 -0.23 +0.00    +0.000 A 
DOCKED: ATOM     30  C   UNL     1      12.977  -8.475   3.011 -0.16 +0.00    +0.000 A 
DOCKED: ATOM     31  C   UNL     1      12.478  -9.770   2.782 -0.15 +0.00    +0.000 A 
DOCKED: ATOM     32  H   UNL     1      12.178 -12.434   1.977 -0.41 +0.00    +0.000 HD
DOCKED: ENDBRANCH  22  23
DOCKED: ENDBRANCH  21  22
DOCKED: ENDBRANCH   1  21
DOCKED: TORSDOF 10
DOCKED: TER
DOCKED: ENDMDL
________________________________________________________________________________


	BEGINNING GENETIC ALGORITHM DOCKING 2 of 100
Run: 2 Seed: 1932939981 2138989910 [ Run 2 of 100 GA/GALS ]
Beginning LAMARCKIAN GENETIC ALGORITHM (LGA), with a maximum of 2500000 energy evaluations.

Final-Value: -15.963


	FINAL GENETIC ALGORITHM DOCKED STATE
	_______________________________________________


Detailed state:  trans 21.634 -9.553 -5.779 quatxyzw -0.552709 -0.038352 -0.620347 0.555168 center 0.288 0.007 -0.056 ntor 10 -90.9050 57.5525 88.8896 -180.0000 -132.2372 96.9623 176.5516 179.2764 -179.4852 -65.4053
State:	 21.634  -9.553  -5.779  -0.665 -0.046 -0.746 112.555    -90.90   57.55   88.89 -180.00 -132.24   96.96  176.55  179.28 -179.49  -65.41

DOCKED: MODEL        2
DOCKED: USER    Run = 2
DOCKED: USER    DPF = ligand_dock.biased.dpf
DOCKED: USER  
DOCKED: USER    Estimated Free Energy of Binding    =  -11.23 kcal/mol  [=(1)+(2)+(3)-(4)]
DOCKED: USER    Estimated Inhibition Constant, Ki   =    5.91 nM (nanomolar)  [Temperature = 298.15 K]
DOCKED: USER    
DOCKED: USER    (1) Final Intermolecular Energy     =  -14.21 kcal/mol
DOCKED: USER        vdW + Hbond + desolv Energy     =  -14.21 kcal/mol
DOCKED: USER        Electrostatic Energy            =   +0.00 kcal/mol
DOCKED: USER    (2) Final Total Internal Energy     =   -1.75 kcal/mol
DOCKED: USER    (3) Torsional Free Energy           =   +2.98 kcal/mol
DOCKED: USER    (4) Unbound System's Energy  [=(2)] =   -1.75 kcal/mol
DOCKED: USER    
DOCKED: USER    
DOCKED: USER    NEWDPF move ligand.pdbqt
DOCKED: USER    NEWDPF about 0.288000 0.007000 -0.056000
DOCKED: USER    NEWDPF tran0 21.634209 -9.552653 -5.779340
DOCKED: USER    NEWDPF quaternion0 -0.552709 -0.038352 -0.620347 0.555168
DOCKED: USER    NEWDPF axisangle0 -0.664522 -0.046111 -0.745844 112.555474
DOCKED: USER    NEWDPF quat0 -0.664522 -0.046111 -0.745844 112.555474
DOCKED: USER    NEWDPF dihe0 -90.90 57.55 88.89 -180.00 -132.24 96.96 176.55 179.28 -179.49 -65.41 
DOCKED: USER  keepresnum = 1 
DOCKED: USER  
DOCKED: REMARK  Name = 
DOCKED: REMARK  10 active torsions:
DOCKED: REMARK  status: ('A' for Active; 'I' for Inactive)
DOCKED: REMARK    1  A    between atoms: C_2  and  C_5
DOCKED: REMARK    2  A    between atoms: C_6  and  C_7
DOCKED: REMARK    3  A    between atoms: C_10  and  C_11
DOCKED: REMARK    4  A    between atoms: C_11  and  N_12
DOCKED: REMARK    5  A    between atoms: N_12  and  C_13
DOCKED: REMARK    6  A    between atoms: N_12  and  C_16
DOCKED: REMARK    7  A    between atoms: C_13  and  C_14
DOCKED: REMARK    8  A    between atoms: C_14  and  O_15
DOCKED: REMARK    9  A    between atoms: C_16  and  C_17
DOCKED: REMARK   10  A    between atoms: C_17  and  C_18
DOCKED: REMARK                            x       y       z     vdW  Elec       q    Type
DOCKED: REMARK                         _______ _______ _______ _____ _____    ______ ____
DOCKED: USER                              x       y       z     vdW  Elec       q    Type
DOCKED: USER                           _______ _______ _______ _____ _____    ______ ____
DOCKED: ROOT
DOCKED: ATOM      1  N   UNL     1      21.536 -10.388  -6.817 -0.29 -0.00    +0.000 N 
DOCKED: ATOM      2  H   UNL     1      20.904 -11.038  -7.283 -0.14 -0.00    +0.000 HD
DOCKED: ENDROOT
DOCKED: BRANCH   1   3
DOCKED: ATOM      3  C   UNL     1      20.622  -9.473  -6.084 -0.24 -0.00    +0.000 C 
DOCKED: BRANCH   3   7
DOCKED: ATOM      4  C   UNL     1      20.668 -10.032  -1.778 -0.52 -0.00    +0.000 A 
DOCKED: ATOM      5  C   UNL     1      19.812 -10.793  -2.589 -0.40 -0.00    +0.000 A 
DOCKED: ATOM      6  C   UNL     1      19.800 -10.615  -3.975 -0.39 -0.00    +0.000 A 
DOCKED: ATOM      7  C   UNL     1      20.622  -9.651  -4.579 -0.32 -0.00    +0.000 A 
DOCKED: ATOM      8  C   UNL     1      21.489  -8.897  -3.771 -0.34 -0.00    +0.000 A 
DOCKED: ATOM      9  C   UNL     1      21.504  -9.074  -2.384 -0.38 -0.00    +0.000 A 
DOCKED: BRANCH   4  11
DOCKED: ATOM     10  C   UNL     1      20.277 -11.408   0.264 -0.55 -0.00    +0.000 C 
DOCKED: ATOM     11  C   UNL     1      20.636 -10.250  -0.310 -0.66 -0.00    +0.000 C 
DOCKED: BRANCH  10  13
DOCKED: ATOM     12  O   UNL     1      19.884 -12.677   2.240 -1.61 -0.00    +0.000 OA
DOCKED: ATOM     13  C   UNL     1      20.248 -11.583   1.729 -0.78 -0.00    +0.000 C 
DOCKED: ATOM     14  N   UNL     1      20.635 -10.501   2.580 -0.58 -0.00    +0.000 N 
DOCKED: ATOM     15  O   UNL     1      20.614 -10.645   3.926 -1.08 -0.00    +0.000 OA
DOCKED: ATOM     16  H   UNL     1      20.920  -9.645   2.184 -0.56 -0.00    +0.000 HD
DOCKED: ENDBRANCH  10  13
DOCKED: ENDBRANCH   4  11
DOCKED: ENDBRANCH   3   7
DOCKED: ENDBRANCH   1   3
DOCKED: BRANCH   1  17
DOCKED: ATOM     17  C   UNL     1      22.378 -11.251  -5.957 -0.44 -0.00    +0.000 C 
DOCKED: BRANCH  17  18
DOCKED: ATOM     18  C   UNL     1      22.894 -12.475  -6.719 -0.27 -0.00    +0.000 C 
DOCKED: BRANCH  18  19
DOCKED: ATOM     19  O   UNL     1      24.282 -12.385  -6.881 -1.06 +0.00    +0.000 OA
DOCKED: ATOM     20  H   UNL     1      24.543 -12.850  -7.691 -0.05 +0.00    +0.000 HD
DOCKED: ENDBRANCH  18  19
DOCKED: ENDBRANCH  17  18
DOCKED: ENDBRANCH   1  17
DOCKED: BRANCH   1  21
DOCKED: ATOM     21  C   UNL     1      22.305  -9.719  -7.893 -0.22 -0.00    +0.000 C 
DOCKED: BRANCH  21  22
DOCKED: ATOM     22  C   UNL     1      23.648  -9.211  -7.356 -0.25 -0.00    +0.000 C 
DOCKED: BRANCH  22  23
DOCKED: ATOM     23  C   UNL     1      24.793  -9.923  -8.017 -0.27 -0.00    +0.000 A 
DOCKED: ATOM     24  C   UNL     1      24.728 -10.683  -9.180 -0.22 -0.00    +0.000 A 
DOCKED: ATOM     25  N   UNL     1      25.967 -11.066  -9.565 -0.28 -0.00    +0.000 N 
DOCKED: ATOM     26  C   UNL     1      26.815 -10.540  -8.663 -0.35 -0.00    +0.000 A 
DOCKED: ATOM     27  C   UNL     1      26.137  -9.832  -7.704 -0.34 -0.00    +0.000 A 
DOCKED: ATOM     28  C   UNL     1      26.804  -9.164  -6.676 -0.28 -0.00    +0.000 A 
DOCKED: ATOM     29  C   UNL     1      28.208  -9.238  -6.649 -0.45 -0.00    +0.000 A 
DOCKED: ATOM     30  C   UNL     1      28.906  -9.967  -7.636 -0.46 -0.00    +0.000 A 
DOCKED: ATOM     31  C   UNL     1      28.207 -10.628  -8.662 -0.37 -0.00    +0.000 A 
DOCKED: ATOM     32  H   UNL     1      26.201 -11.617 -10.346 -0.06 -0.00    +0.000 HD
DOCKED: ENDBRANCH  22  23
DOCKED: ENDBRANCH  21  22
DOCKED: ENDBRANCH   1  21
DOCKED: TORSDOF 10
DOCKED: TER
DOCKED: ENDMDL
________________________________________________________________________________


	BEGINNING GENETIC ALGORITHM DOCKING 3 of 100
Run: 3 Seed: 2126490057 86149580 [ Run 3 of 100 GA/GALS ]
Beginning LAMARCKIAN GENETIC ALGORITHM (LGA), with a maximum of 2500000 energy evaluations.

Final-Value: -14.298


	FINAL GENETIC ALGORITHM DOCKED STATE
	_______________________________________________


Detailed state:  trans 22.379 -9.415 -7.363 quatxyzw 0.463208 0.105759 0.729094 -0.492620 center 0.288 0.007 -0.056 ntor 10 -170.5771 -15.5111 53.9053 -57.1356 -4.1342 -49.3107 146.1005 155.4430 -179.9784 -78.2608
State:	 22.379  -9.415  -7.363   0.532  0.122  0.838 -120.974   -170.58  -15.51   53.91  -57.14   -4.13  -49.31  146.10  155.44 -179.98  -78.26

DOCKED: MODEL        3
DOCKED: USER    Run = 3
DOCKED: USER    DPF = ligand_dock.biased.dpf
DOCKED: USER  
DOCKED: USER    Estimated Free Energy of Binding    =   -8.74 kcal/mol  [=(1)+(2)+(3)-(4)]
DOCKED: USER    Estimated Inhibition Constant, Ki   =  392.33 nM (nanomolar)  [Temperature = 298.15 K]
DOCKED: USER    
DOCKED: USER    (1) Final Intermolecular Energy     =  -11.72 kcal/mol
DOCKED: USER        vdW + Hbond + desolv Energy     =  -11.72 kcal/mol
DOCKED: USER        Electrostatic Energy            =   +0.00 kcal/mol
DOCKED: USER    (2) Final Total Internal Energy     =   -2.57 kcal/mol
DOCKED: USER    (3) Torsional Free Energy           =   +2.98 kcal/mol
DOCKED: USER    (4) Unbound System's Energy  [=(2)] =   -2.57 kcal/mol
DOCKED: USER    
DOCKED: USER    
DOCKED: USER    NEWDPF move ligand.pdbqt
DOCKED: USER    NEWDPF about 0.288000 0.007000 -0.056000
DOCKED: USER    NEWDPF tran0 22.379491 -9.414548 -7.363371
DOCKED: USER    NEWDPF quaternion0 0.463208 0.105759 0.729094 -0.492620
DOCKED: USER    NEWDPF axisangle0 0.532274 0.121528 0.837804 -120.974132
DOCKED: USER    NEWDPF quat0 0.532274 0.121528 0.837804 -120.974132
DOCKED: USER    NEWDPF dihe0 -170.58 -15.51 53.91 -57.14 -4.13 -49.31 146.10 155.44 -179.98 -78.26 
DOCKED: USER  keepresnum = 1 
DOCKED: USER  
DOCKED: REMARK  Name = 
DOCKED: REMARK  10 active torsions:
DOCKED: REMARK  status: ('A' for Active; 'I' for Inactive)
DOCKED: REMARK    1  A    between atoms: C_2  and  C_5
DOCKED: REMARK    2  A    between atoms: C_6  and  C_7
DOCKED: REMARK    3  A    between atoms: C_10  and  C_11
DOCKED: REMARK    4  A    between atoms: C_11  and  N_12
DOCKED: REMARK    5  A    between atoms: N_12  and  C_13
DOCKED: REMARK    6  A    between atoms: N_12  and  C_16
DOCKED: REMARK    7  A    between atoms: C_13  and  C_14
DOCKED: REMARK    8  A    between atoms: C_14  and  O_15
DOCKED: REMARK    9  A    between atoms: C_16  and  C_17
DOCKED: REMARK   10  A    between atoms: C_17  and  C_18
DOCKED: REMARK                            x       y       z     vdW  Elec       q    Type
DOCKED: REMARK                         _______ _______ _______ _____ _____    ______ ____
DOCKED: USER                              x       y       z     vdW  Elec       q    Type
DOCKED: USER                           _______ _______ _______ _____ _____    ______ ____
DOCKED: ROOT
DOCKED: ATOM      1  N   UNL     1      22.681 -10.326  -8.292 -0.21 -0.00    +0.000 N 
DOCKED: ATOM      2  H   UNL     1      22.331 -11.165  -8.754 -0.02 -0.00    +0.000 HD
DOCKED: ENDROOT
DOCKED: BRANCH   1   3
DOCKED: ATOM      3  C   UNL     1      21.447  -9.651  -7.810 -0.21 -0.00    +0.000 C 
DOCKED: BRANCH   3   7
DOCKED: ATOM      4  C   UNL     1      20.462 -10.550  -3.676 -0.43 -0.00    +0.000 A 
DOCKED: ATOM      5  C   UNL     1      20.005 -11.374  -4.716 -0.46 -0.00    +0.000 A 
DOCKED: ATOM      6  C   UNL     1      20.324 -11.086  -6.046 -0.30 -0.00    +0.000 A 
DOCKED: ATOM      7  C   UNL     1      21.085  -9.951  -6.368 -0.26 -0.00    +0.000 A 
DOCKED: ATOM      8  C   UNL     1      21.555  -9.132  -5.329 -0.27 -0.00    +0.000 A 
DOCKED: ATOM      9  C   UNL     1      21.237  -9.418  -3.997 -0.38 -0.00    +0.000 A 
DOCKED: BRANCH   4  11
DOCKED: ATOM     10  C   UNL     1      20.797 -10.524  -1.206 -0.61 -0.00    +0.000 C 
DOCKED: ATOM     11  C   UNL     1      20.086 -10.892  -2.282 -0.43 -0.00    +0.000 C 
DOCKED: BRANCH  10  13
DOCKED: ATOM     12  O   UNL     1      19.269 -10.551   0.620 -0.59 -0.00    +0.000 OA
DOCKED: ATOM     13  C   UNL     1      20.395 -10.893   0.165 -0.67 -0.00    +0.000 C 
DOCKED: ATOM     14  N   UNL     1      21.290 -11.643   0.988 -0.57 -0.00    +0.000 N 
DOCKED: ATOM     15  O   UNL     1      20.936 -11.990   2.249 -1.73 -0.00    +0.000 OA
DOCKED: ATOM     16  H   UNL     1      22.170 -11.912   0.637 -0.57 -0.00    +0.000 HD
DOCKED: ENDBRANCH  10  13
DOCKED: ENDBRANCH   4  11
DOCKED: ENDBRANCH   3   7
DOCKED: ENDBRANCH   1   3
DOCKED: BRANCH   1  17
DOCKED: ATOM     17  C   UNL     1      23.570 -10.841  -7.225 -0.37 -0.00    +0.000 C 
DOCKED: BRANCH  17  18
DOCKED: ATOM     18  C   UNL     1      23.850 -12.336  -7.397 -0.43 -0.00    +0.000 C 
DOCKED: BRANCH  18  19
DOCKED: ATOM     19  O   UNL     1      24.019 -12.636  -8.754 -0.50 -0.00    +0.000 OA
DOCKED: ATOM     20  H   UNL     1      24.841 -13.137  -8.874 -0.06 -0.00    +0.000 HD
DOCKED: ENDBRANCH  18  19
DOCKED: ENDBRANCH  17  18
DOCKED: ENDBRANCH   1  17
DOCKED: BRANCH   1  21
DOCKED: ATOM     21  C   UNL     1      23.408  -9.558  -9.329 -0.12 -0.00    +0.000 C 
DOCKED: BRANCH  21  22
DOCKED: ATOM     22  C   UNL     1      23.999  -8.276  -8.732 -0.10 -0.00    +0.000 C 
DOCKED: BRANCH  22  23
DOCKED: ATOM     23  C   UNL     1      25.334  -8.545  -8.100 -0.17 -0.00    +0.000 A 
DOCKED: ATOM     24  C   UNL     1      25.736  -8.154  -6.827 -0.11 -0.00    +0.000 A 
DOCKED: ATOM     25  N   UNL     1      26.946  -8.678  -6.531 -0.40 -0.00    +0.000 N 
DOCKED: ATOM     26  C   UNL     1      27.306  -9.410  -7.600 -0.37 -0.00    +0.000 A 
DOCKED: ATOM     27  C   UNL     1      26.346  -9.358  -8.578 -0.22 -0.00    +0.000 A 
DOCKED: ATOM     28  C   UNL     1      26.476 -10.066  -9.773 -0.18 -0.00    +0.000 A 
DOCKED: ATOM     29  C   UNL     1      27.634 -10.845  -9.951 -0.24 -0.00    +0.000 A 
DOCKED: ATOM     30  C   UNL     1      28.622 -10.899  -8.945 -0.24 -0.00    +0.000 A 
DOCKED: ATOM     31  C   UNL     1      28.462 -10.177  -7.748 -0.46 -0.00    +0.000 A 
DOCKED: ATOM     32  H   UNL     1      27.461  -8.551  -5.702 -0.05 -0.00    +0.000 HD
DOCKED: ENDBRANCH  22  23
DOCKED: ENDBRANCH  21  22
DOCKED: ENDBRANCH   1  21
DOCKED: TORSDOF 10
DOCKED: TER
DOCKED: ENDMDL
________________________________________________________________________________


	BEGINNING GENETIC ALGORITHM DOCKING 4 of 100
Run: 4 Seed: 1694650171 2012714969 [ Run 4 of 100 GA/GALS ]
Beginning LAMARCKIAN GENETIC ALGORITHM (LGA), with a maximum of 2500000 energy evaluations.

Final-Value: -13.671


	FINAL GENETIC ALGORITHM DOCKED STATE
	_______________________________________________


Detailed state:  trans 12.127 -10.903 0.760 quatxyzw -0.932454 0.323366 0.076553 0.141791 center 0.288 0.007 -0.056 ntor 10 130.6129 -99.0416 73.6890 -179.2237 -177.9752 179.3026 176.6325 -3.2575 30.2735 32.3479
State:	 12.127 -10.903   0.760  -0.942  0.327  0.077 163.697    130.61  -99.04   73.69 -179.22 -177.98  179.30  176.63   -3.26   30.27   32.35

DOCKED: MODEL        4
DOCKED: USER    Run = 4
DOCKED: USER    DPF = ligand_dock.biased.dpf
DOCKED: USER  
DOCKED: USER    Estimated Free Energy of Binding    =   -7.74 kcal/mol  [=(1)+(2)+(3)-(4)]
DOCKED: USER    Estimated Inhibition Constant, Ki   =    2.12 uM (micromolar)  [Temperature = 298.15 K]
DOCKED: USER    
DOCKED: USER    (1) Final Intermolecular Energy     =  -10.72 kcal/mol
DOCKED: USER        vdW + Hbond + desolv Energy     =  -10.72 kcal/mol
DOCKED: USER        Electrostatic Energy            =   +0.00 kcal/mol
DOCKED: USER    (2) Final Total Internal Energy     =   -2.95 kcal/mol
DOCKED: USER    (3) Torsional Free Energy           =   +2.98 kcal/mol
DOCKED: USER    (4) Unbound System's Energy  [=(2)] =   -2.95 kcal/mol
DOCKED: USER    
DOCKED: USER    
DOCKED: USER    NEWDPF move ligand.pdbqt
DOCKED: USER    NEWDPF about 0.288000 0.007000 -0.056000
DOCKED: USER    NEWDPF tran0 12.127432 -10.903495 0.759851
DOCKED: USER    NEWDPF quaternion0 -0.932454 0.323366 0.076553 0.141791
DOCKED: USER    NEWDPF axisangle0 -0.941971 0.326666 0.077335 163.697032
DOCKED: USER    NEWDPF quat0 -0.941971 0.326666 0.077335 163.697032
DOCKED: USER    NEWDPF dihe0 130.61 -99.04 73.69 -179.22 -177.98 179.30 176.63 -3.26 30.27 32.35 
DOCKED: USER  keepresnum = 1 
DOCKED: USER  
DOCKED: REMARK  Name = 
DOCKED: REMARK  10 active torsions:
DOCKED: REMARK  status: ('A' for Active; 'I' for Inactive)
DOCKED: REMARK    1  A    between atoms: C_2  and  C_5
DOCKED: REMARK    2  A    between atoms: C_6  and  C_7
DOCKED: REMARK    3  A    between atoms: C_10  and  C_11
DOCKED: REMARK    4  A    between atoms: C_11  and  N_12
DOCKED: REMARK    5  A    between atoms: N_12  and  C_13
DOCKED: REMARK    6  A    between atoms: N_12  and  C_16
DOCKED: REMARK    7  A    between atoms: C_13  and  C_14
DOCKED: REMARK    8  A    between atoms: C_14  and  O_15
DOCKED: REMARK    9  A    between atoms: C_16  and  C_17
DOCKED: REMARK   10  A    between atoms: C_17  and  C_18
DOCKED: REMARK                            x       y       z     vdW  Elec       q    Type
DOCKED: REMARK                         _______ _______ _______ _____ _____    ______ ____
DOCKED: USER                              x       y       z     vdW  Elec       q    Type
DOCKED: USER                           _______ _______ _______ _____ _____    ______ ____
DOCKED: ROOT
DOCKED: ATOM      1  N   UNL     1      11.292  -9.863   0.730 -0.17 +0.00    +0.000 N 
DOCKED: ATOM      2  H   UNL     1      10.437  -9.491   1.145 +0.00 +0.00    +0.000 HD
DOCKED: ENDROOT
DOCKED: BRANCH   1   3
DOCKED: ATOM      3  C   UNL     1      11.806 -10.797   1.764 -0.29 +0.00    +0.000 C 
DOCKED: BRANCH   3   7
DOCKED: ATOM      4  C   UNL     1      16.095 -11.480   1.689 -0.39 +0.00    +0.000 A 
DOCKED: ATOM      5  C   UNL     1      15.468 -10.994   2.846 -0.45 +0.00    +0.000 A 
DOCKED: ATOM      6  C   UNL     1      14.088 -10.777   2.871 -0.35 +0.00    +0.000 A 
DOCKED: ATOM      7  C   UNL     1      13.307 -11.014   1.730 -0.33 +0.00    +0.000 A 
DOCKED: ATOM      8  C   UNL     1      13.929 -11.513   0.574 -0.36 +0.00    +0.000 A 
DOCKED: ATOM      9  C   UNL     1      15.310 -11.732   0.546 -0.39 +0.00    +0.000 A 
DOCKED: BRANCH   4  11
DOCKED: ATOM     10  C   UNL     1      18.384 -11.113   2.604 -0.55 -0.00    +0.000 C 
DOCKED: ATOM     11  C   UNL     1      17.565 -11.683   1.709 -0.45 +0.00    +0.000 C 
DOCKED: BRANCH  10  13
DOCKED: ATOM     12  O   UNL     1      20.590 -10.773   3.435 -1.20 -0.00    +0.000 OA
DOCKED: ATOM     13  C   UNL     1      19.844 -11.332   2.585 -0.75 -0.00    +0.000 C 
DOCKED: ATOM     14  N   UNL     1      20.420 -12.184   1.592 -0.71 -0.00    +0.000 N 
DOCKED: ATOM     15  O   UNL     1      21.757 -12.395   1.560 -0.97 -0.00    +0.000 OA
DOCKED: ATOM     16  H   UNL     1      19.840 -12.621   0.926 -0.23 -0.00    +0.000 HD
DOCKED: ENDBRANCH  10  13
DOCKED: ENDBRANCH   4  11
DOCKED: ENDBRANCH   3   7
DOCKED: ENDBRANCH   1   3
DOCKED: BRANCH   1  17
DOCKED: ATOM     17  C   UNL     1      10.838 -10.506  -0.525 -0.21 +0.00    +0.000 C 
DOCKED: BRANCH  17  18
DOCKED: ATOM     18  C   UNL     1       9.622  -9.791  -1.119 -0.16 -0.00    +0.000 C 
DOCKED: BRANCH  18  19
DOCKED: ATOM     19  O   UNL     1       8.699  -9.500  -0.105 -0.11 -0.00    +0.000 OA
DOCKED: ATOM     20  H   UNL     1       9.057  -8.802   0.465 +0.00 +0.00    +0.000 HD
DOCKED: ENDBRANCH  18  19
DOCKED: ENDBRANCH  17  18
DOCKED: ENDBRANCH   1  17
DOCKED: BRANCH   1  21
DOCKED: ATOM     21  C   UNL     1      12.175  -8.697   0.494 -0.11 +0.00    +0.000 C 
DOCKED: BRANCH  21  22
DOCKED: ATOM     22  C   UNL     1      11.778  -7.530   1.404 -0.07 +0.00    +0.000 C 
DOCKED: BRANCH  22  23
DOCKED: ATOM     23  C   UNL     1      12.878  -7.208   2.374 -0.11 +0.00    +0.000 A 
DOCKED: ATOM     24  C   UNL     1      13.830  -6.204   2.236 -0.18 +0.00    +0.000 A 
DOCKED: ATOM     25  N   UNL     1      14.582  -6.108   3.355 -0.28 +0.00    +0.000 N 
DOCKED: ATOM     26  C   UNL     1      14.104  -7.033   4.205 -0.28 +0.00    +0.000 A 
DOCKED: ATOM     27  C   UNL     1      13.060  -7.723   3.644 -0.17 +0.00    +0.000 A 
DOCKED: ATOM     28  C   UNL     1      12.374  -8.716   4.347 -0.23 +0.00    +0.000 A 
DOCKED: ATOM     29  C   UNL     1      12.789  -8.993   5.662 -0.39 +0.00    +0.000 A 
DOCKED: ATOM     30  C   UNL     1      13.864  -8.283   6.240 -0.42 +0.00    +0.000 A 
DOCKED: ATOM     31  C   UNL     1      14.533  -7.286   5.508 -0.40 +0.00    +0.000 A 
DOCKED: ATOM     32  H   UNL     1      15.329  -5.487   3.516 -0.02 +0.00    +0.000 HD
DOCKED: ENDBRANCH  22  23
DOCKED: ENDBRANCH  21  22
DOCKED: ENDBRANCH   1  21
DOCKED: TORSDOF 10
DOCKED: TER
DOCKED: ENDMDL
________________________________________________________________________________


	BEGINNING GENETIC ALGORITHM DOCKING 5 of 100
Run: 5 Seed: 1523406426 383676650 [ Run 5 of 100 GA/GALS ]
Beginning LAMARCKIAN GENETIC ALGORITHM (LGA), with a maximum of 2500000 energy evaluations.

Final-Value: -16.559


	FINAL GENETIC ALGORITHM DOCKED STATE
	_______________________________________________


Detailed state:  trans 19.315 -10.768 0.186 quatxyzw 0.271225 -0.269603 -0.885724 0.263143 center 0.288 0.007 -0.056 ntor 10 126.1663 -66.4708 25.0133 6.4257 176.3593 129.5558 164.5878 68.2613 -175.0876 -51.3223
State:	 19.315 -10.768   0.186   0.281 -0.279 -0.918 149.487    126.17  -66.47   25.01    6.43  176.36  129.56  164.59   68.26 -175.09  -51.32

DOCKED: MODEL        5
DOCKED: USER    Run = 5
DOCKED: USER    DPF = ligand_dock.biased.dpf
DOCKED: USER  
DOCKED: USER    Estimated Free Energy of Binding    =  -10.91 kcal/mol  [=(1)+(2)+(3)-(4)]
DOCKED: USER    Estimated Inhibition Constant, Ki   =   10.06 nM (nanomolar)  [Temperature = 298.15 K]
DOCKED: USER    
DOCKED: USER    (1) Final Intermolecular Energy     =  -13.89 kcal/mol
DOCKED: USER        vdW + Hbond + desolv Energy     =  -13.89 kcal/mol
DOCKED: USER        Electrostatic Energy            =   +0.00 kcal/mol
DOCKED: USER    (2) Final Total Internal Energy     =   -2.67 kcal/mol
DOCKED: USER    (3) Torsional Free Energy           =   +2.98 kcal/mol
DOCKED: USER    (4) Unbound System's Energy  [=(2)] =   -2.67 kcal/mol
DOCKED: USER    
DOCKED: USER    
DOCKED: USER    NEWDPF move ligand.pdbqt
DOCKED: USER    NEWDPF about 0.288000 0.007000 -0.056000
DOCKED: USER    NEWDPF tran0 19.314811 -10.767819 0.185614
DOCKED: USER    NEWDPF quaternion0 0.271225 -0.269603 -0.885724 0.263143
DOCKED: USER    NEWDPF axisangle0 0.281133 -0.279452 -0.918080 149.486685
DOCKED: USER    NEWDPF quat0 0.281133 -0.279452 -0.918080 149.486685
DOCKED: USER    NEWDPF dihe0 126.17 -66.47 25.01 6.43 176.36 129.56 164.59 68.26 -175.09 -51.32 
DOCKED: USER  keepresnum = 1 
DOCKED: USER  
DOCKED: REMARK  Name = 
DOCKED: REMARK  10 active torsions:
DOCKED: REMARK  status: ('A' for Active; 'I' for Inactive)
DOCKED: REMARK    1  A    between atoms: C_2  and  C_5
DOCKED: REMARK    2  A    between atoms: C_6  and  C_7
DOCKED: REMARK    3  A    between atoms: C_10  and  C_11
DOCKED: REMARK    4  A    between atoms: C_11  and  N_12
DOCKED: REMARK    5  A    between atoms: N_12  and  C_13
DOCKED: REMARK    6  A    between atoms: N_12  and  C_16
DOCKED: REMARK    7  A    between atoms: C_13  and  C_14
DOCKED: REMARK    8  A    between atoms: C_14  and  O_15
DOCKED: REMARK    9  A    between atoms: C_16  and  C_17
DOCKED: REMARK   10  A    between atoms: C_17  and  C_18
DOCKED: REMARK                            x       y       z     vdW  Elec       q    Type
DOCKED: REMARK                         _______ _______ _______ _____ _____    ______ ____
DOCKED: USER                              x       y       z     vdW  Elec       q    Type
DOCKED: USER                           _______ _______ _______ _____ _____    ______ ____
DOCKED: ROOT
DOCKED: ATOM      1  N   UNL     1      20.430 -10.965   0.893 -0.63 -0.00    +0.000 N 
DOCKED: ATOM      2  H   UNL     1      20.966 -11.677   1.389 -0.09 -0.00    +0.000 HD
DOCKED: ENDROOT
DOCKED: BRANCH   1   3
DOCKED: ATOM      3  C   UNL     1      19.624 -11.746  -0.081 -0.37 -0.00    +0.000 C 
DOCKED: BRANCH   3   7
DOCKED: ATOM      4  C   UNL     1      15.342 -11.127   0.295 -0.31 +0.00    +0.000 A 
DOCKED: ATOM      5  C   UNL     1      16.008 -12.040   1.126 -0.42 +0.00    +0.000 A 
DOCKED: ATOM      6  C   UNL     1      17.386 -12.237   1.007 -0.45 +0.00    +0.000 A 
DOCKED: ATOM      7  C   UNL     1      18.125 -11.546   0.034 -0.44 -0.00    +0.000 A 
DOCKED: ATOM      8  C   UNL     1      17.463 -10.621  -0.790 -0.25 -0.00    +0.000 A 
DOCKED: ATOM      9  C   UNL     1      16.084 -10.422  -0.672 -0.27 -0.00    +0.000 A 
DOCKED: BRANCH   4  11
DOCKED: ATOM     10  C   UNL     1      13.070 -11.903   0.968 -0.43 +0.00    +0.000 C 
DOCKED: ATOM     11  C   UNL     1      13.875 -10.962   0.454 -0.34 +0.00    +0.000 C 
DOCKED: BRANCH  10  13
DOCKED: ATOM     12  O   UNL     1      11.061 -10.668   0.639 -0.29 +0.00    +0.000 OA
DOCKED: ATOM     13  C   UNL     1      11.613 -11.704   1.100 -0.43 +0.00    +0.000 C 
DOCKED: ATOM     14  N   UNL     1      10.820 -12.694   1.757 -0.45 +0.00    +0.000 N 
DOCKED: ATOM     15  O   UNL     1       9.482 -12.527   1.886 -0.49 +0.00    +0.000 OA
DOCKED: ATOM     16  H   UNL     1      11.248 -13.504   2.118 -0.65 +0.00    +0.000 HD
DOCKED: ENDBRANCH  10  13
DOCKED: ENDBRANCH   4  11
DOCKED: ENDBRANCH   3   7
DOCKED: ENDBRANCH   1   3
DOCKED: BRANCH   1  17
DOCKED: ATOM     17  C   UNL     1      19.648 -10.292   1.956 -0.54 -0.00    +0.000 C 
DOCKED: BRANCH  17  18
DOCKED: ATOM     18  C   UNL     1      19.589 -11.134   3.233 -0.72 -0.00    +0.000 C 
DOCKED: BRANCH  18  19
DOCKED: ATOM     19  O   UNL     1      20.063 -12.426   2.973 -1.64 -0.00    +0.000 OA
DOCKED: ATOM     20  H   UNL     1      21.007 -12.386   2.754 -0.36 -0.00    +0.000 HD
DOCKED: ENDBRANCH  18  19
DOCKED: ENDBRANCH  17  18
DOCKED: ENDBRANCH   1  17
DOCKED: BRANCH   1  21
DOCKED: ATOM     21  C   UNL     1      21.425 -10.071   0.255 -0.62 -0.00    +0.000 C 
DOCKED: BRANCH  21  22
DOCKED: ATOM     22  C   UNL     1      21.705 -10.520  -1.183 -0.55 -0.00    +0.000 C 
DOCKED: BRANCH  22  23
DOCKED: ATOM     23  C   UNL     1      21.008  -9.628  -2.169 -0.51 -0.00    +0.000 A 
DOCKED: ATOM     24  C   UNL     1      21.016  -8.237  -2.169 -0.42 -0.00    +0.000 A 
DOCKED: ATOM     25  N   UNL     1      20.400  -7.760  -3.274 -0.30 -0.00    +0.000 N 
DOCKED: ATOM     26  C   UNL     1      20.016  -8.838  -3.979 -0.27 -0.00    +0.000 A 
DOCKED: ATOM     27  C   UNL     1      20.372  -9.998  -3.339 -0.41 -0.00    +0.000 A 
DOCKED: ATOM     28  C   UNL     1      20.111 -11.252  -3.894 -0.42 -0.00    +0.000 A 
DOCKED: ATOM     29  C   UNL     1      19.462 -11.296  -5.141 -0.42 -0.00    +0.000 A 
DOCKED: ATOM     30  C   UNL     1      19.095 -10.102  -5.799 -0.25 -0.00    +0.000 A 
DOCKED: ATOM     31  C   UNL     1      19.375  -8.852  -5.218 -0.17 -0.00    +0.000 A 
DOCKED: ATOM     32  H   UNL     1      20.260  -6.816  -3.514 -0.02 -0.00    +0.000 HD
DOCKED: ENDBRANCH  22  23
DOCKED: ENDBRANCH  21  22
DOCKED: ENDBRANCH   1  21
DOCKED: TORSDOF 10
DOCKED: TER
DOCKED: ENDMDL
________________________________________________________________________________


	BEGINNING GENETIC ALGORITHM DOCKING 6 of 100
Run: 6 Seed: 402746699 371873003 [ Run 6 of 100 GA/GALS ]
Beginning LAMARCKIAN GENETIC ALGORITHM (LGA), with a maximum of 2500000 energy evaluations.

Final-Value: -13.956


	FINAL GENETIC ALGORITHM DOCKED STATE
	_______________________________________________


Detailed state:  trans 21.470 -6.651 -5.939 quatxyzw -0.948129 -0.263085 0.044432 -0.172811 center 0.288 0.007 -0.056 ntor 10 112.2450 -15.9046 -1.0474 -51.7038 -117.1292 -56.2850 106.7755 -93.6746 179.6011 148.0166
State:	 21.470  -6.651  -5.939  -0.963 -0.267  0.045 -160.097    112.24  -15.90   -1.05  -51.70 -117.13  -56.28  106.78  -93.67  179.60  148.02

DOCKED: MODEL        6
DOCKED: USER    Run = 6
DOCKED: USER    DPF = ligand_dock.biased.dpf
DOCKED: USER  
DOCKED: USER    Estimated Free Energy of Binding    =   -7.57 kcal/mol  [=(1)+(2)+(3)-(4)]
DOCKED: USER    Estimated Inhibition Constant, Ki   =    2.83 uM (micromolar)  [Temperature = 298.15 K]
DOCKED: USER    
DOCKED: USER    (1) Final Intermolecular Energy     =  -10.55 kcal/mol
DOCKED: USER        vdW + Hbond + desolv Energy     =  -10.55 kcal/mol
DOCKED: USER        Electrostatic Energy            =   +0.00 kcal/mol
DOCKED: USER    (2) Final Total Internal Energy     =   -3.40 kcal/mol
DOCKED: USER    (3) Torsional Free Energy           =   +2.98 kcal/mol
DOCKED: USER    (4) Unbound System's Energy  [=(2)] =   -3.40 kcal/mol
DOCKED: USER    
DOCKED: USER    
DOCKED: USER    NEWDPF move ligand.pdbqt
DOCKED: USER    NEWDPF about 0.288000 0.007000 -0.056000
DOCKED: USER    NEWDPF tran0 21.470153 -6.650548 -5.938884
DOCKED: USER    NEWDPF quaternion0 -0.948129 -0.263085 0.044432 -0.172811
DOCKED: USER    NEWDPF axisangle0 -0.962611 -0.267104 0.045111 -160.097391
DOCKED: USER    NEWDPF quat0 -0.962611 -0.267104 0.045111 -160.097391
DOCKED: USER    NEWDPF dihe0 112.24 -15.90 -1.05 -51.70 -117.13 -56.28 106.78 -93.67 179.60 148.02 
DOCKED: USER  keepresnum = 1 
DOCKED: USER  
DOCKED: REMARK  Name = 
DOCKED: REMARK  10 active torsions:
DOCKED: REMARK  status: ('A' for Active; 'I' for Inactive)
DOCKED: REMARK    1  A    between atoms: C_2  and  C_5
DOCKED: REMARK    2  A    between atoms: C_6  and  C_7
DOCKED: REMARK    3  A    between atoms: C_10  and  C_11
DOCKED: REMARK    4  A    between atoms: C_11  and  N_12
DOCKED: REMARK    5  A    between atoms: N_12  and  C_13
DOCKED: REMARK    6  A    between atoms: N_12  and  C_16
DOCKED: REMARK    7  A    between atoms: C_13  and  C_14
DOCKED: REMARK    8  A    between atoms: C_14  and  O_15
DOCKED: REMARK    9  A    between atoms: C_16  and  C_17
DOCKED: REMARK   10  A    between atoms: C_17  and  C_18
DOCKED: REMARK                            x       y       z     vdW  Elec       q    Type
DOCKED: REMARK                         _______ _______ _______ _____ _____    ______ ____
DOCKED: USER                              x       y       z     vdW  Elec       q    Type
DOCKED: USER                           _______ _______ _______ _____ _____    ______ ____
DOCKED: ROOT
DOCKED: ATOM      1  N   UNL     1      20.208  -7.074  -5.841 -0.10 -0.00    +0.000 N 
DOCKED: ATOM      2  H   UNL     1      19.636  -7.909  -5.714 +0.00 -0.00    +0.000 HD
DOCKED: ENDROOT
DOCKED: BRANCH   1   3
DOCKED: ATOM      3  C   UNL     1      21.516  -7.452  -5.247 -0.22 -0.00    +0.000 C 
DOCKED: BRANCH   3   7
DOCKED: ATOM      4  C   UNL     1      21.174  -9.884  -1.665 -0.55 -0.00    +0.000 A 
DOCKED: ATOM      5  C   UNL     1      21.172  -8.483  -1.581 -0.45 -0.00    +0.000 A 
DOCKED: ATOM      6  C   UNL     1      21.279  -7.701  -2.734 -0.39 -0.00    +0.000 A 
DOCKED: ATOM      7  C   UNL     1      21.420  -8.302  -3.995 -0.31 -0.00    +0.000 A 
DOCKED: ATOM      8  C   UNL     1      21.409  -9.704  -4.083 -0.39 -0.00    +0.000 A 
DOCKED: ATOM      9  C   UNL     1      21.301 -10.488  -2.930 -0.48 -0.00    +0.000 A 
DOCKED: BRANCH   4  11
DOCKED: ATOM     10  C   UNL     1      20.237 -10.362   0.596 -0.64 -0.00    +0.000 C 
DOCKED: ATOM     11  C   UNL     1      21.069 -10.670  -0.410 -0.66 -0.00    +0.000 C 
DOCKED: BRANCH  10  13
DOCKED: ATOM     12  O   UNL     1      19.985 -12.411   1.782 -1.79 -0.00    +0.000 OA
DOCKED: ATOM     13  C   UNL     1      20.170 -11.164   1.833 -0.74 -0.00    +0.000 C 
DOCKED: ATOM     14  N   UNL     1      20.312 -10.522   3.102 -0.68 -0.00    +0.000 N 
DOCKED: ATOM     15  O   UNL     1      20.252 -11.244   4.247 -1.07 -0.00    +0.000 OA
DOCKED: ATOM     16  H   UNL     1      20.456  -9.549   3.145 -0.58 -0.00    +0.000 HD
DOCKED: ENDBRANCH  10  13
DOCKED: ENDBRANCH   4  11
DOCKED: ENDBRANCH   3   7
DOCKED: ENDBRANCH   1   3
DOCKED: BRANCH   1  17
DOCKED: ATOM     17  C   UNL     1      20.224  -6.863  -7.307 -0.05 -0.00    +0.000 C 
DOCKED: BRANCH  17  18
DOCKED: ATOM     18  C   UNL     1      20.432  -8.177  -8.065 -0.07 -0.00    +0.000 C 
DOCKED: BRANCH  18  19
DOCKED: ATOM     19  O   UNL     1      19.721  -9.207  -7.436 -0.14 -0.00    +0.000 OA
DOCKED: ATOM     20  H   UNL     1      18.798  -8.934  -7.315 +0.00 -0.00    +0.000 HD
DOCKED: ENDBRANCH  18  19
DOCKED: ENDBRANCH  17  18
DOCKED: ENDBRANCH   1  17
DOCKED: BRANCH   1  21
DOCKED: ATOM     21  C   UNL     1      19.517  -5.987  -5.109 -0.14 -0.00    +0.000 C 
DOCKED: BRANCH  21  22
DOCKED: ATOM     22  C   UNL     1      18.196  -5.629  -5.799 -0.08 -0.00    +0.000 C 
DOCKED: BRANCH  22  23
DOCKED: ATOM     23  C   UNL     1      17.429  -6.868  -6.161 -0.07 -0.00    +0.000 A 
DOCKED: ATOM     24  C   UNL     1      16.749  -7.095  -7.353 -0.03 -0.00    +0.000 A 
DOCKED: ATOM     25  N   UNL     1      16.284  -8.364  -7.398 -0.05 -0.00    +0.000 N 
DOCKED: ATOM     26  C   UNL     1      16.677  -8.945  -6.251 -0.10 -0.00    +0.000 A 
DOCKED: ATOM     27  C   UNL     1      17.382  -8.064  -5.471 -0.11 -0.00    +0.000 A 
DOCKED: ATOM     28  C   UNL     1      17.926  -8.445  -4.243 -0.11 -0.00    +0.000 A 
DOCKED: ATOM     29  C   UNL     1      17.728  -9.772  -3.820 -0.23 -0.00    +0.000 A 
DOCKED: ATOM     30  C   UNL     1      17.002 -10.678  -4.624 -0.11 -0.00    +0.000 A 
DOCKED: ATOM     31  C   UNL     1      16.468 -10.266  -5.859 -0.19 -0.00    +0.000 A 
DOCKED: ATOM     32  H   UNL     1      15.763  -8.779  -8.123 +0.00 -0.00    +0.000 HD
DOCKED: ENDBRANCH  22  23
DOCKED: ENDBRANCH  21  22
DOCKED: ENDBRANCH   1  21
DOCKED: TORSDOF 10
DOCKED: TER
DOCKED: ENDMDL
________________________________________________________________________________


	BEGINNING GENETIC ALGORITHM DOCKING 7 of 100
Run: 7 Seed: 1896467432 864817198 [ Run 7 of 100 GA/GALS ]
Beginning LAMARCKIAN GENETIC ALGORITHM (LGA), with a maximum of 2500000 energy evaluations.

Final-Value: -14.368


	FINAL GENETIC ALGORITHM DOCKED STATE
	_______________________________________________


Detailed state:  trans 20.780 -9.459 -5.653 quatxyzw 0.069095 0.925809 -0.223680 -0.296768 center 0.288 0.007 -0.056 ntor 10 -120.3141 -179.9907 168.5971 179.8694 -44.1010 115.4658 -55.6792 66.5610 -116.9523 166.7407
State:	 20.780  -9.459  -5.653   0.072  0.969 -0.234 -145.473   -120.31 -179.99  168.60  179.87  -44.10  115.47  -55.68   66.56 -116.95  166.74

DOCKED: MODEL        7
DOCKED: USER    Run = 7
DOCKED: USER    DPF = ligand_dock.biased.dpf
DOCKED: USER  
DOCKED: USER    Estimated Free Energy of Binding    =   -9.74 kcal/mol  [=(1)+(2)+(3)-(4)]
DOCKED: USER    Estimated Inhibition Constant, Ki   =   72.05 nM (nanomolar)  [Temperature = 298.15 K]
DOCKED: USER    
DOCKED: USER    (1) Final Intermolecular Energy     =  -12.73 kcal/mol
DOCKED: USER        vdW + Hbond + desolv Energy     =  -12.73 kcal/mol
DOCKED: USER        Electrostatic Energy            =   +0.00 kcal/mol
DOCKED: USER    (2) Final Total Internal Energy     =   -1.64 kcal/mol
DOCKED: USER    (3) Torsional Free Energy           =   +2.98 kcal/mol
DOCKED: USER    (4) Unbound System's Energy  [=(2)] =   -1.64 kcal/mol
DOCKED: USER    
DOCKED: USER    
DOCKED: USER    NEWDPF move ligand.pdbqt
DOCKED: USER    NEWDPF about 0.288000 0.007000 -0.056000
DOCKED: USER    NEWDPF tran0 20.780252 -9.458502 -5.653450
DOCKED: USER    NEWDPF quaternion0 0.069095 0.925809 -0.223680 -0.296768
DOCKED: USER    NEWDPF axisangle0 0.072355 0.969484 -0.234232 -145.472854
DOCKED: USER    NEWDPF quat0 0.072355 0.969484 -0.234232 -145.472854
DOCKED: USER    NEWDPF dihe0 -120.31 -179.99 168.60 179.87 -44.10 115.47 -55.68 66.56 -116.95 166.74 
DOCKED: USER  keepresnum = 1 
DOCKED: USER  
DOCKED: REMARK  Name = 
DOCKED: REMARK  10 active torsions:
DOCKED: REMARK  status: ('A' for Active; 'I' for Inactive)
DOCKED: REMARK    1  A    between atoms: C_2  and  C_5
DOCKED: REMARK    2  A    between atoms: C_6  and  C_7
DOCKED: REMARK    3  A    between atoms: C_10  and  C_11
DOCKED: REMARK    4  A    between atoms: C_11  and  N_12
DOCKED: REMARK    5  A    between atoms: N_12  and  C_13
DOCKED: REMARK    6  A    between atoms: N_12  and  C_16
DOCKED: REMARK    7  A    between atoms: C_13  and  C_14
DOCKED: REMARK    8  A    between atoms: C_14  and  O_15
DOCKED: REMARK    9  A    between atoms: C_16  and  C_17
DOCKED: REMARK   10  A    between atoms: C_17  and  C_18
DOCKED: REMARK                            x       y       z     vdW  Elec       q    Type
DOCKED: REMARK                         _______ _______ _______ _____ _____    ______ ____
DOCKED: USER                              x       y       z     vdW  Elec       q    Type
DOCKED: USER                           _______ _______ _______ _____ _____    ______ ____
DOCKED: ROOT
DOCKED: ATOM      1  N   UNL     1      21.760  -9.724  -4.786 -0.37 -0.00    +0.000 N 
DOCKED: ATOM      2  H   UNL     1      22.457  -9.286  -4.185 -0.03 -0.00    +0.000 HD
DOCKED: ENDROOT
DOCKED: BRANCH   1   3
DOCKED: ATOM      3  C   UNL     1      20.723  -8.671  -4.946 -0.27 -0.00    +0.000 C 
DOCKED: BRANCH   3   7
DOCKED: ATOM      4  C   UNL     1      20.889  -5.536  -1.945 -0.39 -0.00    +0.000 A 
DOCKED: ATOM      5  C   UNL     1      21.399  -6.814  -1.673 -0.29 +0.00    +0.000 A 
DOCKED: ATOM      6  C   UNL     1      21.348  -7.822  -2.639 -0.40 -0.00    +0.000 A 
DOCKED: ATOM      7  C   UNL     1      20.760  -7.583  -3.891 -0.28 -0.00    +0.000 A 
DOCKED: ATOM      8  C   UNL     1      20.260  -6.300  -4.171 -0.19 -0.00    +0.000 A 
DOCKED: ATOM      9  C   UNL     1      20.310  -5.290  -3.206 -0.22 -0.00    +0.000 A 
DOCKED: BRANCH   4  11
DOCKED: ATOM     10  C   UNL     1      21.687  -3.382  -0.976 -0.37 +0.00    +0.000 C 
DOCKED: ATOM     11  C   UNL     1      20.956  -4.502  -0.882 -0.42 +0.00    +0.000 C 
DOCKED: BRANCH  10  13
DOCKED: ATOM     12  O   UNL     1      22.453  -1.351   0.002 -0.33 -0.00    +0.000 OA
DOCKED: ATOM     13  C   UNL     1      21.736  -2.383   0.110 -0.39 -0.00    +0.000 C 
DOCKED: ATOM     14  N   UNL     1      20.964  -2.586   1.296 -0.52 +0.00    +0.000 N 
DOCKED: ATOM     15  O   UNL     1      20.998  -1.679   2.300 -0.60 -0.00    +0.000 OA
DOCKED: ATOM     16  H   UNL     1      20.403  -3.391   1.383 -0.05 +0.00    +0.000 HD
DOCKED: ENDBRANCH  10  13
DOCKED: ENDBRANCH   4  11
DOCKED: ENDBRANCH   3   7
DOCKED: ENDBRANCH   1   3
DOCKED: BRANCH   1  17
DOCKED: ATOM     17  C   UNL     1      22.504 -10.063  -6.021 -0.29 -0.00    +0.000 C 
DOCKED: BRANCH  17  18
DOCKED: ATOM     18  C   UNL     1      22.349 -11.543  -6.385 -0.47 -0.00    +0.000 C 
DOCKED: BRANCH  18  19
DOCKED: ATOM     19  O   UNL     1      23.612 -12.134  -6.518 -1.01 -0.00    +0.000 OA
DOCKED: ATOM     20  H   UNL     1      23.507 -13.073  -6.739 -0.10 -0.00    +0.000 HD
DOCKED: ENDBRANCH  18  19
DOCKED: ENDBRANCH  17  18
DOCKED: ENDBRANCH   1  17
DOCKED: BRANCH   1  21
DOCKED: ATOM     21  C   UNL     1      21.280 -10.920  -4.054 -0.51 -0.00    +0.000 C 
DOCKED: BRANCH  21  22
DOCKED: ATOM     22  C   UNL     1      20.048 -10.575  -3.211 -0.47 -0.00    +0.000 C 
DOCKED: BRANCH  22  23
DOCKED: ATOM     23  C   UNL     1      20.331 -10.759  -1.748 -0.40 -0.00    +0.000 A 
DOCKED: ATOM     24  C   UNL     1      21.545 -10.533  -1.110 -0.53 -0.00    +0.000 A 
DOCKED: ATOM     25  N   UNL     1      21.409 -10.668   0.229 -0.66 -0.00    +0.000 N 
DOCKED: ATOM     26  C   UNL     1      20.115 -10.963   0.442 -0.58 -0.00    +0.000 A 
DOCKED: ATOM     27  C   UNL     1      19.422 -11.023  -0.740 -0.44 -0.00    +0.000 A 
DOCKED: ATOM     28  C   UNL     1      18.051 -11.281  -0.774 -0.38 -0.00    +0.000 A 
DOCKED: ATOM     29  C   UNL     1      17.390 -11.481   0.451 -0.41 +0.00    +0.000 A 
DOCKED: ATOM     30  C   UNL     1      18.103 -11.419   1.668 -0.46 -0.00    +0.000 A 
DOCKED: ATOM     31  C   UNL     1      19.484 -11.154   1.672 -0.60 -0.00    +0.000 A 
DOCKED: ATOM     32  H   UNL     1      22.114 -10.571   0.909 -0.29 -0.00    +0.000 HD
DOCKED: ENDBRANCH  22  23
DOCKED: ENDBRANCH  21  22
DOCKED: ENDBRANCH   1  21
DOCKED: TORSDOF 10
DOCKED: TER
DOCKED: ENDMDL
________________________________________________________________________________


	BEGINNING GENETIC ALGORITHM DOCKING 8 of 100
Run: 8 Seed: 2144607364 953968511 [ Run 8 of 100 GA/GALS ]
Beginning LAMARCKIAN GENETIC ALGORITHM (LGA), with a maximum of 2500000 energy evaluations.

Final-Value: -13.656


	FINAL GENETIC ALGORITHM DOCKED STATE
	_______________________________________________


Detailed state:  trans 15.846 -8.770 2.227 quatxyzw 0.506767 0.189965 0.460253 -0.703753 center 0.288 0.007 -0.056 ntor 10 -70.6439 0.0359 21.9367 -22.7701 -21.8241 173.2554 126.3371 -31.3190 -6.3970 -138.5633
State:	 15.846  -8.770   2.227   0.713  0.267  0.648 -90.542    -70.64    0.04   21.94  -22.77  -21.82  173.26  126.34  -31.32   -6.40 -138.56

DOCKED: MODEL        8
DOCKED: USER    Run = 8
DOCKED: USER    DPF = ligand_dock.biased.dpf
DOCKED: USER  
DOCKED: USER    Estimated Free Energy of Binding    =   -7.25 kcal/mol  [=(1)+(2)+(3)-(4)]
DOCKED: USER    Estimated Inhibition Constant, Ki   =    4.81 uM (micromolar)  [Temperature = 298.15 K]
DOCKED: USER    
DOCKED: USER    (1) Final Intermolecular Energy     =  -10.24 kcal/mol
DOCKED: USER        vdW + Hbond + desolv Energy     =  -10.24 kcal/mol
DOCKED: USER        Electrostatic Energy            =   +0.00 kcal/mol
DOCKED: USER    (2) Final Total Internal Energy     =   -3.42 kcal/mol
DOCKED: USER    (3) Torsional Free Energy           =   +2.98 kcal/mol
DOCKED: USER    (4) Unbound System's Energy  [=(2)] =   -3.42 kcal/mol
DOCKED: USER    
DOCKED: USER    
DOCKED: USER    NEWDPF move ligand.pdbqt
DOCKED: USER    NEWDPF about 0.288000 0.007000 -0.056000
DOCKED: USER    NEWDPF tran0 15.846065 -8.769652 2.226767
DOCKED: USER    NEWDPF quaternion0 0.506767 0.189965 0.460253 -0.703753
DOCKED: USER    NEWDPF axisangle0 0.713309 0.267389 0.647838 -90.542240
DOCKED: USER    NEWDPF quat0 0.713309 0.267389 0.647838 -90.542240
DOCKED: USER    NEWDPF dihe0 -70.64 0.04 21.94 -22.77 -21.82 173.26 126.34 -31.32 -6.40 -138.56 
DOCKED: USER  keepresnum = 1 
DOCKED: USER  
DOCKED: REMARK  Name = 
DOCKED: REMARK  10 active torsions:
DOCKED: REMARK  status: ('A' for Active; 'I' for Inactive)
DOCKED: REMARK    1  A    between atoms: C_2  and  C_5
DOCKED: REMARK    2  A    between atoms: C_6  and  C_7
DOCKED: REMARK    3  A    between atoms: C_10  and  C_11
DOCKED: REMARK    4  A    between atoms: C_11  and  N_12
DOCKED: REMARK    5  A    between atoms: N_12  and  C_13
DOCKED: REMARK    6  A    between atoms: N_12  and  C_16
DOCKED: REMARK    7  A    between atoms: C_13  and  C_14
DOCKED: REMARK    8  A    between atoms: C_14  and  O_15
DOCKED: REMARK    9  A    between atoms: C_16  and  C_17
DOCKED: REMARK   10  A    between atoms: C_17  and  C_18
DOCKED: REMARK                            x       y       z     vdW  Elec       q    Type
DOCKED: REMARK                         _______ _______ _______ _____ _____    ______ ____
DOCKED: USER                              x       y       z     vdW  Elec       q    Type
DOCKED: USER                           _______ _______ _______ _____ _____    ______ ____
DOCKED: ROOT
DOCKED: ATOM      1  N   UNL     1      15.330  -9.882   1.697 -0.29 +0.00    +0.000 N 
DOCKED: ATOM      2  H   UNL     1      14.508 -10.485   1.710 +0.00 +0.00    +0.000 HD
DOCKED: ENDROOT
DOCKED: BRANCH   1   3
DOCKED: ATOM      3  C   UNL     1      14.808  -8.568   2.156 -0.30 +0.00    +0.000 C 
DOCKED: BRANCH   3   7
DOCKED: ATOM      4  C   UNL     1      11.685  -8.745   5.168 -0.22 +0.00    +0.000 A 
DOCKED: ATOM      5  C   UNL     1      13.038  -8.774   5.538 -0.40 +0.00    +0.000 A 
DOCKED: ATOM      6  C   UNL     1      14.043  -8.714   4.569 -0.36 +0.00    +0.000 A 
DOCKED: ATOM      7  C   UNL     1      13.717  -8.653   3.205 -0.22 +0.00    +0.000 A 
DOCKED: ATOM      8  C   UNL     1      12.363  -8.610   2.832 -0.14 +0.00    +0.000 A 
DOCKED: ATOM      9  C   UNL     1      11.356  -8.669   3.801 -0.14 +0.00    +0.000 A 
DOCKED: BRANCH   4  11
DOCKED: ATOM     10  C   UNL     1       9.547  -8.067   6.258 -0.36 +0.00    +0.000 C 
DOCKED: ATOM     11  C   UNL     1      10.655  -8.822   6.235 -0.32 +0.00    +0.000 C 
DOCKED: BRANCH  10  13
DOCKED: ATOM     12  O   UNL     1       8.447  -9.222   8.026 -0.67 +0.00    +0.000 OA
DOCKED: ATOM     13  C   UNL     1       8.551  -8.166   7.343 -0.51 +0.00    +0.000 C 
DOCKED: ATOM     14  N   UNL     1       7.694  -7.057   7.622 -0.47 +0.00    +0.000 N 
DOCKED: ATOM     15  O   UNL     1       6.775  -7.133   8.614 -1.08 +0.00    +0.000 OA
DOCKED: ATOM     16  H   UNL     1       7.773  -6.232   7.090 -0.01 +0.00    +0.000 HD
DOCKED: ENDBRANCH  10  13
DOCKED: ENDBRANCH   4  11
DOCKED: ENDBRANCH   3   7
DOCKED: ENDBRANCH   1   3
DOCKED: BRANCH   1  17
DOCKED: ATOM     17  C   UNL     1      16.279 -10.537   2.627 -0.46 +0.00    +0.000 C 
DOCKED: BRANCH  17  18
DOCKED: ATOM     18  C   UNL     1      15.561 -11.489   3.588 -0.47 +0.00    +0.000 C 
DOCKED: BRANCH  18  19
DOCKED: ATOM     19  O   UNL     1      14.806 -12.418   2.862 -0.58 +0.00    +0.000 OA
DOCKED: ATOM     20  H   UNL     1      13.907 -12.457   3.223 -0.30 +0.00    +0.000 HD
DOCKED: ENDBRANCH  18  19
DOCKED: ENDBRANCH  17  18
DOCKED: ENDBRANCH   1  17
DOCKED: BRANCH   1  21
DOCKED: ATOM     21  C   UNL     1      15.810  -9.871   0.296 -0.28 +0.00    +0.000 C 
DOCKED: BRANCH  21  22
DOCKED: ATOM     22  C   UNL     1      15.006 -10.860  -0.555 -0.33 +0.00    +0.000 C 
DOCKED: BRANCH  22  23
DOCKED: ATOM     23  C   UNL     1      13.570 -10.432  -0.660 -0.24 +0.00    +0.000 A 
DOCKED: ATOM     24  C   UNL     1      13.021  -9.634  -1.657 -0.19 -0.00    +0.000 A 
DOCKED: ATOM     25  N   UNL     1      11.678  -9.559  -1.518 -0.19 -0.00    +0.000 N 
DOCKED: ATOM     26  C   UNL     1      11.373 -10.318  -0.450 -0.22 +0.00    +0.000 A 
DOCKED: ATOM     27  C   UNL     1      12.501 -10.871   0.099 -0.29 +0.00    +0.000 A 
DOCKED: ATOM     28  C   UNL     1      12.438 -11.727   1.200 -0.39 +0.00    +0.000 A 
DOCKED: ATOM     29  C   UNL     1      11.170 -12.009   1.739 -0.26 +0.00    +0.000 A 
DOCKED: ATOM     30  C   UNL     1      10.008 -11.439   1.174 -0.34 +0.00    +0.000 A 
DOCKED: ATOM     31  C   UNL     1      10.103 -10.583   0.062 -0.21 +0.00    +0.000 A 
DOCKED: ATOM     32  H   UNL     1      11.050  -9.054  -2.083 -0.01 -0.00    +0.000 HD
DOCKED: ENDBRANCH  22  23
DOCKED: ENDBRANCH  21  22
DOCKED: ENDBRANCH   1  21
DOCKED: TORSDOF 10
DOCKED: TER
DOCKED: ENDMDL
________________________________________________________________________________


	BEGINNING GENETIC ALGORITHM DOCKING 9 of 100
Run: 9 Seed: 1786331758 40689864 [ Run 9 of 100 GA/GALS ]
Beginning LAMARCKIAN GENETIC ALGORITHM (LGA), with a maximum of 2500000 energy evaluations.

Final-Value: -14.776


	FINAL GENETIC ALGORITHM DOCKED STATE
	_______________________________________________


Detailed state:  trans 20.344 -9.412 -5.760 quatxyzw 0.484865 -0.643834 0.435136 -0.401299 center 0.288 0.007 -0.056 ntor 10 100.1685 -15.8564 49.8870 -118.5819 17.1379 155.3863 176.8392 -152.2920 -17.7742 13.3812
State:	 20.344  -9.412  -5.760   0.529 -0.703  0.475 -132.681    100.17  -15.86   49.89 -118.58   17.14  155.39  176.84 -152.29  -17.77   13.38

DOCKED: MODEL        9
DOCKED: USER    Run = 9
DOCKED: USER    DPF = ligand_dock.biased.dpf
DOCKED: USER  
DOCKED: USER    Estimated Free Energy of Binding    =   -9.27 kcal/mol  [=(1)+(2)+(3)-(4)]
DOCKED: USER    Estimated Inhibition Constant, Ki   =  159.92 nM (nanomolar)  [Temperature = 298.15 K]
DOCKED: USER    
DOCKED: USER    (1) Final Intermolecular Energy     =  -12.25 kcal/mol
DOCKED: USER        vdW + Hbond + desolv Energy     =  -12.25 kcal/mol
DOCKED: USER        Electrostatic Energy            =   +0.00 kcal/mol
DOCKED: USER    (2) Final Total Internal Energy     =   -2.52 kcal/mol
DOCKED: USER    (3) Torsional Free Energy           =   +2.98 kcal/mol
DOCKED: USER    (4) Unbound System's Energy  [=(2)] =   -2.52 kcal/mol
DOCKED: USER    
DOCKED: USER    
DOCKED: USER    NEWDPF move ligand.pdbqt
DOCKED: USER    NEWDPF about 0.288000 0.007000 -0.056000
DOCKED: USER    NEWDPF tran0 20.343918 -9.411816 -5.760171
DOCKED: USER    NEWDPF quaternion0 0.484865 -0.643834 0.435136 -0.401299
DOCKED: USER    NEWDPF axisangle0 0.529359 -0.702916 0.475067 -132.681135
DOCKED: USER    NEWDPF quat0 0.529359 -0.702916 0.475067 -132.681135
DOCKED: USER    NEWDPF dihe0 100.17 -15.86 49.89 -118.58 17.14 155.39 176.84 -152.29 -17.77 13.38 
DOCKED: USER  keepresnum = 1 
DOCKED: USER  
DOCKED: REMARK  Name = 
DOCKED: REMARK  10 active torsions:
DOCKED: REMARK  status: ('A' for Active; 'I' for Inactive)
DOCKED: REMARK    1  A    between atoms: C_2  and  C_5
DOCKED: REMARK    2  A    between atoms: C_6  and  C_7
DOCKED: REMARK    3  A    between atoms: C_10  and  C_11
DOCKED: REMARK    4  A    between atoms: C_11  and  N_12
DOCKED: REMARK    5  A    between atoms: N_12  and  C_13
DOCKED: REMARK    6  A    between atoms: N_12  and  C_16
DOCKED: REMARK    7  A    between atoms: C_13  and  C_14
DOCKED: REMARK    8  A    between atoms: C_14  and  O_15
DOCKED: REMARK    9  A    between atoms: C_16  and  C_17
DOCKED: REMARK   10  A    between atoms: C_17  and  C_18
DOCKED: REMARK                            x       y       z     vdW  Elec       q    Type
DOCKED: REMARK                         _______ _______ _______ _____ _____    ______ ____
DOCKED: USER                              x       y       z     vdW  Elec       q    Type
DOCKED: USER                           _______ _______ _______ _____ _____    ______ ____
DOCKED: ROOT
DOCKED: ATOM      1  N   UNL     1      20.911  -9.101  -6.929 -0.15 -0.00    +0.000 N 
DOCKED: ATOM      2  H   UNL     1      20.789  -8.537  -7.769 +0.00 -0.00    +0.000 HD
DOCKED: ENDROOT
DOCKED: BRANCH   1   3
DOCKED: ATOM      3  C   UNL     1      20.095  -8.392  -5.909 -0.16 -0.00    +0.000 C 
DOCKED: BRANCH   3   7
DOCKED: ATOM      4  C   UNL     1      20.480  -9.880  -1.846 -0.48 -0.00    +0.000 A 
DOCKED: ATOM      5  C   UNL     1      21.505  -9.120  -2.430 -0.38 -0.00    +0.000 A 
DOCKED: ATOM      6  C   UNL     1      21.380  -8.639  -3.736 -0.35 -0.00    +0.000 A 
DOCKED: ATOM      7  C   UNL     1      20.238  -8.931  -4.498 -0.25 -0.00    +0.000 A 
DOCKED: ATOM      8  C   UNL     1      19.205  -9.680  -3.912 -0.27 -0.00    +0.000 A 
DOCKED: ATOM      9  C   UNL     1      19.327 -10.162  -2.605 -0.34 -0.00    +0.000 A 
DOCKED: BRANCH   4  11
DOCKED: ATOM     10  C   UNL     1      19.729 -11.051   0.222 -0.61 -0.00    +0.000 C 
DOCKED: ATOM     11  C   UNL     1      20.666 -10.377  -0.460 -0.66 -0.00    +0.000 C 
DOCKED: BRANCH  10  13
DOCKED: ATOM     12  O   UNL     1      19.892 -12.749   1.883 -1.61 -0.00    +0.000 OA
DOCKED: ATOM     13  C   UNL     1      19.949 -11.520   1.604 -0.74 -0.00    +0.000 C 
DOCKED: ATOM     14  N   UNL     1      20.227 -10.574   2.638 -0.66 -0.00    +0.000 N 
DOCKED: ATOM     15  O   UNL     1      20.431 -10.988   3.911 -1.14 -0.00    +0.000 OA
DOCKED: ATOM     16  H   UNL     1      20.272  -9.613   2.424 -0.52 -0.00    +0.000 HD
DOCKED: ENDBRANCH  10  13
DOCKED: ENDBRANCH   4  11
DOCKED: ENDBRANCH   3   7
DOCKED: ENDBRANCH   1   3
DOCKED: BRANCH   1  17
DOCKED: ATOM     17  C   UNL     1      20.408 -10.440  -7.312 -0.29 -0.00    +0.000 C 
DOCKED: BRANCH  17  18
DOCKED: ATOM     18  C   UNL     1      20.093 -10.518  -8.808 -0.12 -0.00    +0.000 C 
DOCKED: BRANCH  18  19
DOCKED: ATOM     19  O   UNL     1      21.061  -9.815  -9.536 -0.15 -0.00    +0.000 OA
DOCKED: ATOM     20  H   UNL     1      21.936  -9.977  -9.149 +0.00 -0.00    +0.000 HD
DOCKED: ENDBRANCH  18  19
DOCKED: ENDBRANCH  17  18
DOCKED: ENDBRANCH   1  17
DOCKED: BRANCH   1  21
DOCKED: ATOM     21  C   UNL     1      22.363  -9.092  -6.634 -0.25 -0.00    +0.000 C 
DOCKED: BRANCH  21  22
DOCKED: ATOM     22  C   UNL     1      22.890 -10.524  -6.488 -0.29 -0.00    +0.000 C 
DOCKED: BRANCH  22  23
DOCKED: ATOM     23  C   UNL     1      23.884 -10.843  -7.567 -0.34 -0.00    +0.000 A 
DOCKED: ATOM     24  C   UNL     1      25.191 -10.374  -7.646 -0.31 -0.00    +0.000 A 
DOCKED: ATOM     25  N   UNL     1      25.845 -10.966  -8.671 -0.36 -0.00    +0.000 N 
DOCKED: ATOM     26  C   UNL     1      24.966 -11.816  -9.231 -0.34 -0.00    +0.000 A 
DOCKED: ATOM     27  C   UNL     1      23.758 -11.773  -8.582 -0.37 -0.00    +0.000 A 
DOCKED: ATOM     28  C   UNL     1      22.693 -12.593  -8.959 -0.21 -0.00    +0.000 A 
DOCKED: ATOM     29  C   UNL     1      22.893 -13.475 -10.036 -0.35 -0.00    +0.000 A 
DOCKED: ATOM     30  C   UNL     1      24.137 -13.519 -10.704 -0.31 -0.00    +0.000 A 
DOCKED: ATOM     31  C   UNL     1      25.193 -12.683 -10.299 -0.23 -0.00    +0.000 A 
DOCKED: ATOM     32  H   UNL     1      26.775 -10.808  -8.952 -0.02 -0.00    +0.000 HD
DOCKED: ENDBRANCH  22  23
DOCKED: ENDBRANCH  21  22
DOCKED: ENDBRANCH   1  21
DOCKED: TORSDOF 10
DOCKED: TER
DOCKED: ENDMDL
________________________________________________________________________________


	BEGINNING GENETIC ALGORITHM DOCKING 10 of 100
Run: 10 Seed: 1302693078 1758901405 [ Run 10 of 100 GA/GALS ]
Beginning LAMARCKIAN GENETIC ALGORITHM (LGA), with a maximum of 2500000 energy evaluations.

Final-Value: -15.144


	FINAL GENETIC ALGORITHM DOCKED STATE
	_______________________________________________


Detailed state:  trans 21.264 -9.097 -6.658 quatxyzw -0.578472 -0.802124 -0.075103 0.127779 center 0.288 0.007 -0.056 ntor 10 74.9073 -0.8979 31.2293 106.6361 99.9659 0.2811 -125.3992 131.6575 75.1964 136.2238
State:	 21.264  -9.097  -6.658  -0.583 -0.809 -0.076 165.317     74.91   -0.90   31.23  106.64   99.97    0.28 -125.40  131.66   75.20  136.22

DOCKED: MODEL       10
DOCKED: USER    Run = 10
DOCKED: USER    DPF = ligand_dock.biased.dpf
DOCKED: USER  
DOCKED: USER    Estimated Free Energy of Binding    =  -10.13 kcal/mol  [=(1)+(2)+(3)-(4)]
DOCKED: USER    Estimated Inhibition Constant, Ki   =   37.65 nM (nanomolar)  [Temperature = 298.15 K]
DOCKED: USER    
DOCKED: USER    (1) Final Intermolecular Energy     =  -13.11 kcal/mol
DOCKED: USER        vdW + Hbond + desolv Energy     =  -13.11 kcal/mol
DOCKED: USER        Electrostatic Energy            =   +0.00 kcal/mol
DOCKED: USER    (2) Final Total Internal Energy     =   -2.03 kcal/mol
DOCKED: USER    (3) Torsional Free Energy           =   +2.98 kcal/mol
DOCKED: USER    (4) Unbound System's Energy  [=(2)] =   -2.03 kcal/mol
DOCKED: USER    
DOCKED: USER    
DOCKED: USER    NEWDPF move ligand.pdbqt
DOCKED: USER    NEWDPF about 0.288000 0.007000 -0.056000
DOCKED: USER    NEWDPF tran0 21.263974 -9.096894 -6.658214
DOCKED: USER    NEWDPF quaternion0 -0.578472 -0.802124 -0.075103 0.127779
DOCKED: USER    NEWDPF axisangle0 -0.583253 -0.808753 -0.075723 165.317495
DOCKED: USER    NEWDPF quat0 -0.583253 -0.808753 -0.075723 165.317495
DOCKED: USER    NEWDPF dihe0 74.91 -0.90 31.23 106.64 99.97 0.28 -125.40 131.66 75.20 136.22 
DOCKED: USER  keepresnum = 1 
DOCKED: USER  
DOCKED: REMARK  Name = 
DOCKED: REMARK  10 active torsions:
DOCKED: REMARK  status: ('A' for Active; 'I' for Inactive)
DOCKED: REMARK    1  A    between atoms: C_2  and  C_5
DOCKED: REMARK    2  A    between atoms: C_6  and  C_7
DOCKED: REMARK    3  A    between atoms: C_10  and  C_11
DOCKED: REMARK    4  A    between atoms: C_11  and  N_12
DOCKED: REMARK    5  A    between atoms: N_12  and  C_13
DOCKED: REMARK    6  A    between atoms: N_12  and  C_16
DOCKED: REMARK    7  A    between atoms: C_13  and  C_14
DOCKED: REMARK    8  A    between atoms: C_14  and  O_15
DOCKED: REMARK    9  A    between atoms: C_16  and  C_17
DOCKED: REMARK   10  A    between atoms: C_17  and  C_18
DOCKED: REMARK                            x       y       z     vdW  Elec       q    Type
DOCKED: REMARK                         _______ _______ _______ _____ _____    ______ ____
DOCKED: USER                              x       y       z     vdW  Elec       q    Type
DOCKED: USER                           _______ _______ _______ _____ _____    ______ ____
DOCKED: ROOT
DOCKED: ATOM      1  N   UNL     1      21.375 -10.426  -6.587 -0.30 -0.00    +0.000 N 
DOCKED: ATOM      2  H   UNL     1      21.885 -11.178  -6.125 -0.05 -0.00    +0.000 HD
DOCKED: ENDROOT
DOCKED: BRANCH   1   3
DOCKED: ATOM      3  C   UNL     1      21.495  -9.286  -5.641 -0.30 -0.00    +0.000 C 
DOCKED: BRANCH   3   7
DOCKED: ATOM      4  C   UNL     1      20.407 -10.199  -1.537 -0.50 -0.00    +0.000 A 
DOCKED: ATOM      5  C   UNL     1      21.068  -9.003  -1.852 -0.49 -0.00    +0.000 A 
DOCKED: ATOM      6  C   UNL     1      21.416  -8.707  -3.173 -0.39 -0.00    +0.000 A 
DOCKED: ATOM      7  C   UNL     1      21.135  -9.616  -4.205 -0.37 -0.00    +0.000 A 
DOCKED: ATOM      8  C   UNL     1      20.462 -10.809  -3.895 -0.44 -0.00    +0.000 A 
DOCKED: ATOM      9  C   UNL     1      20.113 -11.106  -2.574 -0.15 -0.00    +0.000 A 
DOCKED: BRANCH   4  11
DOCKED: ATOM     10  C   UNL     1      20.781 -11.287   0.675 -0.68 -0.00    +0.000 C 
DOCKED: ATOM     11  C   UNL     1      20.070 -10.471  -0.117 -0.60 -0.00    +0.000 C 
DOCKED: BRANCH  10  13
DOCKED: ATOM     12  O   UNL     1      19.878 -12.634   2.419 -1.60 -0.00    +0.000 OA
DOCKED: ATOM     13  C   UNL     1      20.406 -11.540   2.081 -0.77 -0.00    +0.000 C 
DOCKED: ATOM     14  N   UNL     1      20.642 -10.535   3.069 -0.64 -0.00    +0.000 N 
DOCKED: ATOM     15  O   UNL     1      20.304 -10.751   4.362 -0.84 -0.00    +0.000 OA
DOCKED: ATOM     16  H   UNL     1      21.054  -9.679   2.808 -0.60 -0.00    +0.000 HD
DOCKED: ENDBRANCH  10  13
DOCKED: ENDBRANCH   4  11
DOCKED: ENDBRANCH   3   7
DOCKED: ENDBRANCH   1   3
DOCKED: BRANCH   1  17
DOCKED: ATOM     17  C   UNL     1      22.080 -10.245  -7.877 -0.27 -0.00    +0.000 C 
DOCKED: BRANCH  17  18
DOCKED: ATOM     18  C   UNL     1      23.405 -11.012  -7.908 -0.39 -0.00    +0.000 C 
DOCKED: BRANCH  18  19
DOCKED: ATOM     19  O   UNL     1      23.184 -12.358  -7.591 -0.62 -0.00    +0.000 OA
DOCKED: ATOM     20  H   UNL     1      22.235 -12.552  -7.652 -0.61 -0.00    +0.000 HD
DOCKED: ENDBRANCH  18  19
DOCKED: ENDBRANCH  17  18
DOCKED: ENDBRANCH   1  17
DOCKED: BRANCH   1  21
DOCKED: ATOM     21  C   UNL     1      19.985 -10.913  -6.753 -0.29 -0.00    +0.000 C 
DOCKED: BRANCH  21  22
DOCKED: ATOM     22  C   UNL     1      19.016  -9.734  -6.897 -0.21 -0.00    +0.000 C 
DOCKED: BRANCH  22  23
DOCKED: ATOM     23  C   UNL     1      17.632 -10.215  -7.222 -0.21 -0.00    +0.000 A 
DOCKED: ATOM     24  C   UNL     1      17.162 -10.581  -8.479 -0.20 -0.00    +0.000 A 
DOCKED: ATOM     25  N   UNL     1      15.913 -11.092  -8.387 -0.21 -0.00    +0.000 N 
DOCKED: ATOM     26  C   UNL     1      15.596 -11.065  -7.080 -0.23 -0.00    +0.000 A 
DOCKED: ATOM     27  C   UNL     1      16.622 -10.540  -6.336 -0.22 -0.00    +0.000 A 
DOCKED: ATOM     28  C   UNL     1      16.543 -10.440  -4.946 -0.21 -0.00    +0.000 A 
DOCKED: ATOM     29  C   UNL     1      15.368 -10.896  -4.321 -0.22 -0.00    +0.000 A 
DOCKED: ATOM     30  C   UNL     1      14.313 -11.436  -5.087 -0.26 -0.00    +0.000 A 
DOCKED: ATOM     31  C   UNL     1      14.422 -11.527  -6.486 -0.25 -0.00    +0.000 A 
DOCKED: ATOM     32  H   UNL     1      15.349 -11.417  -9.125 -0.01 -0.00    +0.000 HD
DOCKED: ENDBRANCH  22  23
DOCKED: ENDBRANCH  21  22
DOCKED: ENDBRANCH   1  21
DOCKED: TORSDOF 10
DOCKED: TER
DOCKED: ENDMDL
________________________________________________________________________________


	BEGINNING GENETIC ALGORITHM DOCKING 11 of 100
Run: 11 Seed: 379722534 563118360 [ Run 11 of 100 GA/GALS ]
Beginning LAMARCKIAN GENETIC ALGORITHM (LGA), with a maximum of 2500000 energy evaluations.

Final-Value: -13.875


	FINAL GENETIC ALGORITHM DOCKED STATE
	_______________________________________________


Detailed state:  trans 20.892 -10.028 -4.935 quatxyzw 0.680076 0.535223 -0.068792 0.496287 center 0.288 0.007 -0.056 ntor 10 -83.7205 -79.2463 95.0852 179.5983 33.0947 -178.3849 -52.1135 147.0235 -178.0688 -126.3178
State:	 20.892 -10.028  -4.935   0.783  0.617 -0.079 120.491    -83.72  -79.25   95.09  179.60   33.09 -178.38  -52.11  147.02 -178.07 -126.32

DOCKED: MODEL       11
DOCKED: USER    Run = 11
DOCKED: USER    DPF = ligand_dock.biased.dpf
DOCKED: USER  
DOCKED: USER    Estimated Free Energy of Binding    =   -8.79 kcal/mol  [=(1)+(2)+(3)-(4)]
DOCKED: USER    Estimated Inhibition Constant, Ki   =  362.32 nM (nanomolar)  [Temperature = 298.15 K]
DOCKED: USER    
DOCKED: USER    (1) Final Intermolecular Energy     =  -11.77 kcal/mol
DOCKED: USER        vdW + Hbond + desolv Energy     =  -11.77 kcal/mol
DOCKED: USER        Electrostatic Energy            =   +0.00 kcal/mol
DOCKED: USER    (2) Final Total Internal Energy     =   -2.11 kcal/mol
DOCKED: USER    (3) Torsional Free Energy           =   +2.98 kcal/mol
DOCKED: USER    (4) Unbound System's Energy  [=(2)] =   -2.11 kcal/mol
DOCKED: USER    
DOCKED: USER    
DOCKED: USER    NEWDPF move ligand.pdbqt
DOCKED: USER    NEWDPF about 0.288000 0.007000 -0.056000
DOCKED: USER    NEWDPF tran0 20.891706 -10.028472 -4.935377
DOCKED: USER    NEWDPF quaternion0 0.680076 0.535223 -0.068792 0.496287
DOCKED: USER    NEWDPF axisangle0 0.783354 0.616504 -0.079239 120.490651
DOCKED: USER    NEWDPF quat0 0.783354 0.616504 -0.079239 120.490651
DOCKED: USER    NEWDPF dihe0 -83.72 -79.25 95.09 179.60 33.09 -178.38 -52.11 147.02 -178.07 -126.32 
DOCKED: USER  keepresnum = 1 
DOCKED: USER  
DOCKED: REMARK  Name = 
DOCKED: REMARK  10 active torsions:
DOCKED: REMARK  status: ('A' for Active; 'I' for Inactive)
DOCKED: REMARK    1  A    between atoms: C_2  and  C_5
DOCKED: REMARK    2  A    between atoms: C_6  and  C_7
DOCKED: REMARK    3  A    between atoms: C_10  and  C_11
DOCKED: REMARK    4  A    between atoms: C_11  and  N_12
DOCKED: REMARK    5  A    between atoms: N_12  and  C_13
DOCKED: REMARK    6  A    between atoms: N_12  and  C_16
DOCKED: REMARK    7  A    between atoms: C_13  and  C_14
DOCKED: REMARK    8  A    between atoms: C_14  and  O_15
DOCKED: REMARK    9  A    between atoms: C_16  and  C_17
DOCKED: REMARK   10  A    between atoms: C_17  and  C_18
DOCKED: REMARK                            x       y       z     vdW  Elec       q    Type
DOCKED: REMARK                         _______ _______ _______ _____ _____    ______ ____
DOCKED: USER                              x       y       z     vdW  Elec       q    Type
DOCKED: USER                           _______ _______ _______ _____ _____    ______ ____
DOCKED: ROOT
DOCKED: ATOM      1  N   UNL     1      20.147 -11.083  -5.277 -0.41 -0.00    +0.000 N 
DOCKED: ATOM      2  H   UNL     1      20.163 -11.956  -5.803 -0.36 -0.00    +0.000 HD
DOCKED: ENDROOT
DOCKED: BRANCH   1   3
DOCKED: ATOM      3  C   UNL     1      21.579 -10.835  -4.964 -0.51 -0.00    +0.000 C 
DOCKED: BRANCH   3   7
DOCKED: ATOM      4  C   UNL     1      24.218 -11.279  -8.385 -0.35 -0.00    +0.000 A 
DOCKED: ATOM      5  C   UNL     1      23.859 -12.392  -7.609 -0.39 -0.00    +0.000 A 
DOCKED: ATOM      6  C   UNL     1      23.007 -12.249  -6.511 -0.43 -0.00    +0.000 A 
DOCKED: ATOM      7  C   UNL     1      22.518 -10.985  -6.145 -0.35 -0.00    +0.000 A 
DOCKED: ATOM      8  C   UNL     1      22.866  -9.871  -6.927 -0.27 -0.00    +0.000 A 
DOCKED: ATOM      9  C   UNL     1      23.717 -10.012  -8.027 -0.23 -0.00    +0.000 A 
DOCKED: BRANCH   4  11
DOCKED: ATOM     10  C   UNL     1      25.734 -10.479 -10.195 -0.18 -0.00    +0.000 C 
DOCKED: ATOM     11  C   UNL     1      25.135 -11.481  -9.535 -0.32 -0.00    +0.000 C 
DOCKED: BRANCH  10  13
DOCKED: ATOM     12  O   UNL     1      27.156  -9.757 -11.963 -0.07 -0.00    +0.000 OA
DOCKED: ATOM     13  C   UNL     1      26.631 -10.721 -11.342 -0.15 -0.00    +0.000 C 
DOCKED: ATOM     14  N   UNL     1      26.908 -12.061 -11.755 -0.16 -0.00    +0.000 N 
DOCKED: ATOM     15  O   UNL     1      27.729 -12.300 -12.806 -0.23 -0.00    +0.000 OA
DOCKED: ATOM     16  H   UNL     1      26.500 -12.817 -11.273 -0.45 -0.00    +0.000 HD
DOCKED: ENDBRANCH  10  13
DOCKED: ENDBRANCH   4  11
DOCKED: ENDBRANCH   3   7
DOCKED: ENDBRANCH   1   3
DOCKED: BRANCH   1  17
DOCKED: ATOM     17  C   UNL     1      19.531 -10.108  -6.205 -0.28 -0.00    +0.000 C 
DOCKED: BRANCH  17  18
DOCKED: ATOM     18  C   UNL     1      18.194 -10.615  -6.751 -0.32 -0.00    +0.000 C 
DOCKED: BRANCH  18  19
DOCKED: ATOM     19  O   UNL     1      18.158 -12.014  -6.699 -0.39 -0.00    +0.000 OA
DOCKED: ATOM     20  H   UNL     1      17.681 -12.354  -7.471 -0.05 -0.00    +0.000 HD
DOCKED: ENDBRANCH  18  19
DOCKED: ENDBRANCH  17  18
DOCKED: ENDBRANCH   1  17
DOCKED: BRANCH   1  21
DOCKED: ATOM     21  C   UNL     1      19.316 -11.342  -4.077 -0.38 -0.00    +0.000 C 
DOCKED: BRANCH  21  22
DOCKED: ATOM     22  C   UNL     1      19.376 -10.150  -3.116 -0.39 -0.00    +0.000 C 
DOCKED: BRANCH  22  23
DOCKED: ATOM     23  C   UNL     1      20.075 -10.524  -1.841 -0.45 -0.00    +0.000 A 
DOCKED: ATOM     24  C   UNL     1      21.396 -10.239  -1.513 -0.55 -0.00    +0.000 A 
DOCKED: ATOM     25  N   UNL     1      21.656 -10.602  -0.236 -0.66 -0.00    +0.000 N 
DOCKED: ATOM     26  C   UNL     1      20.505 -11.099   0.250 -0.57 -0.00    +0.000 A 
DOCKED: ATOM     27  C   UNL     1      19.515 -11.065  -0.698 -0.45 -0.00    +0.000 A 
DOCKED: ATOM     28  C   UNL     1      18.217 -11.497  -0.420 -0.42 -0.00    +0.000 A 
DOCKED: ATOM     29  C   UNL     1      17.949 -11.976   0.875 -0.48 -0.00    +0.000 A 
DOCKED: ATOM     30  C   UNL     1      18.968 -12.011   1.851 -0.54 -0.00    +0.000 A 
DOCKED: ATOM     31  C   UNL     1      20.266 -11.566   1.542 -0.68 -0.00    +0.000 A 
DOCKED: ATOM     32  H   UNL     1      22.513 -10.519   0.241 -0.27 -0.00    +0.000 HD
DOCKED: ENDBRANCH  22  23
DOCKED: ENDBRANCH  21  22
DOCKED: ENDBRANCH   1  21
DOCKED: TORSDOF 10
DOCKED: TER
DOCKED: ENDMDL
________________________________________________________________________________


	BEGINNING GENETIC ALGORITHM DOCKING 12 of 100
Run: 12 Seed: 436292463 2110055782 [ Run 12 of 100 GA/GALS ]
Beginning LAMARCKIAN GENETIC ALGORITHM (LGA), with a maximum of 2500000 energy evaluations.

Final-Value: -13.851


	FINAL GENETIC ALGORITHM DOCKED STATE
	_______________________________________________


Detailed state:  trans 21.152 -7.983 -5.017 quatxyzw 0.202830 0.679605 0.271372 0.650657 center 0.288 0.007 -0.056 ntor 10 -27.1830 31.3044 179.4919 115.4495 65.6824 -79.5356 154.3019 -61.1424 167.1590 16.8750
State:	 21.152  -7.983  -5.017   0.267  0.895  0.357 98.818    -27.18   31.30  179.49  115.45   65.68  -79.54  154.30  -61.14  167.16   16.88

DOCKED: MODEL       12
DOCKED: USER    Run = 12
DOCKED: USER    DPF = ligand_dock.biased.dpf
DOCKED: USER  
DOCKED: USER    Estimated Free Energy of Binding    =   -9.03 kcal/mol  [=(1)+(2)+(3)-(4)]
DOCKED: USER    Estimated Inhibition Constant, Ki   =  239.65 nM (nanomolar)  [Temperature = 298.15 K]
DOCKED: USER    
DOCKED: USER    (1) Final Intermolecular Energy     =  -12.01 kcal/mol
DOCKED: USER        vdW + Hbond + desolv Energy     =  -12.01 kcal/mol
DOCKED: USER        Electrostatic Energy            =   +0.00 kcal/mol
DOCKED: USER    (2) Final Total Internal Energy     =   -1.84 kcal/mol
DOCKED: USER    (3) Torsional Free Energy           =   +2.98 kcal/mol
DOCKED: USER    (4) Unbound System's Energy  [=(2)] =   -1.84 kcal/mol
DOCKED: USER    
DOCKED: USER    
DOCKED: USER    NEWDPF move ligand.pdbqt
DOCKED: USER    NEWDPF about 0.288000 0.007000 -0.056000
DOCKED: USER    NEWDPF tran0 21.151885 -7.983178 -5.016868
DOCKED: USER    NEWDPF quaternion0 0.202830 0.679605 0.271372 0.650657
DOCKED: USER    NEWDPF axisangle0 0.267102 0.894957 0.357364 98.817761
DOCKED: USER    NEWDPF quat0 0.267102 0.894957 0.357364 98.817761
DOCKED: USER    NEWDPF dihe0 -27.18 31.30 179.49 115.45 65.68 -79.54 154.30 -61.14 167.16 16.88 
DOCKED: USER  keepresnum = 1 
DOCKED: USER  
DOCKED: REMARK  Name = 
DOCKED: REMARK  10 active torsions:
DOCKED: REMARK  status: ('A' for Active; 'I' for Inactive)
DOCKED: REMARK    1  A    between atoms: C_2  and  C_5
DOCKED: REMARK    2  A    between atoms: C_6  and  C_7
DOCKED: REMARK    3  A    between atoms: C_10  and  C_11
DOCKED: REMARK    4  A    between atoms: C_11  and  N_12
DOCKED: REMARK    5  A    between atoms: N_12  and  C_13
DOCKED: REMARK    6  A    between atoms: N_12  and  C_16
DOCKED: REMARK    7  A    between atoms: C_13  and  C_14
DOCKED: REMARK    8  A    between atoms: C_14  and  O_15
DOCKED: REMARK    9  A    between atoms: C_16  and  C_17
DOCKED: REMARK   10  A    between atoms: C_17  and  C_18
DOCKED: REMARK                            x       y       z     vdW  Elec       q    Type
DOCKED: REMARK                         _______ _______ _______ _____ _____    ______ ____
DOCKED: USER                              x       y       z     vdW  Elec       q    Type
DOCKED: USER                           _______ _______ _______ _____ _____    ______ ____
DOCKED: ROOT
DOCKED: ATOM      1  N   UNL     1      21.052  -8.117  -6.342 -0.13 -0.00    +0.000 N 
DOCKED: ATOM      2  H   UNL     1      21.547  -7.950  -7.217 +0.00 -0.00    +0.000 HD
DOCKED: ENDROOT
DOCKED: BRANCH   1   3
DOCKED: ATOM      3  C   UNL     1      22.140  -8.199  -5.333 -0.22 -0.00    +0.000 C 
DOCKED: BRANCH   3   7
DOCKED: ATOM      4  C   UNL     1      20.824  -9.622  -1.447 -0.54 -0.00    +0.000 A 
DOCKED: ATOM      5  C   UNL     1      21.022  -8.252  -1.677 -0.42 -0.00    +0.000 A 
DOCKED: ATOM      6  C   UNL     1      21.442  -7.794  -2.929 -0.36 -0.00    +0.000 A 
DOCKED: ATOM      7  C   UNL     1      21.703  -8.699  -3.970 -0.28 -0.00    +0.000 A 
DOCKED: ATOM      8  C   UNL     1      21.493 -10.069  -3.746 -0.42 -0.00    +0.000 A 
DOCKED: ATOM      9  C   UNL     1      21.071 -10.530  -2.495 -0.49 -0.00    +0.000 A 
DOCKED: BRANCH   4  11
DOCKED: ATOM     10  C   UNL     1      20.920 -11.099   0.559 -0.67 -0.00    +0.000 C 
DOCKED: ATOM     11  C   UNL     1      20.387 -10.058  -0.097 -0.61 -0.00    +0.000 C 
DOCKED: BRANCH  10  13
DOCKED: ATOM     12  O   UNL     1      19.879 -12.621   2.066 -1.67 -0.00    +0.000 OA
DOCKED: ATOM     13  C   UNL     1      20.450 -11.509   1.897 -0.77 -0.00    +0.000 C 
DOCKED: ATOM     14  N   UNL     1      20.643 -10.637   3.013 -0.64 -0.00    +0.000 N 
DOCKED: ATOM     15  O   UNL     1      20.217 -10.998   4.247 -0.99 -0.00    +0.000 OA
DOCKED: ATOM     16  H   UNL     1      21.088  -9.768   2.885 -0.60 -0.00    +0.000 HD
DOCKED: ENDBRANCH  10  13
DOCKED: ENDBRANCH   4  11
DOCKED: ENDBRANCH   3   7
DOCKED: ENDBRANCH   1   3
DOCKED: BRANCH   1  17
DOCKED: ATOM     17  C   UNL     1      20.155  -6.946  -6.201 -0.09 -0.00    +0.000 C 
DOCKED: BRANCH  17  18
DOCKED: ATOM     18  C   UNL     1      18.758  -7.359  -5.729 -0.12 -0.00    +0.000 C 
DOCKED: BRANCH  18  19
DOCKED: ATOM     19  O   UNL     1      18.730  -7.430  -4.330 -0.19 -0.00    +0.000 OA
DOCKED: ATOM     20  H   UNL     1      19.009  -8.314  -4.046 -0.01 -0.00    +0.000 HD
DOCKED: ENDBRANCH  18  19
DOCKED: ENDBRANCH  17  18
DOCKED: ENDBRANCH   1  17
DOCKED: BRANCH   1  21
DOCKED: ATOM     21  C   UNL     1      20.315  -9.390  -6.522 -0.20 -0.00    +0.000 C 
DOCKED: BRANCH  21  22
DOCKED: ATOM     22  C   UNL     1      19.809  -9.518  -7.963 -0.18 -0.00    +0.000 C 
DOCKED: BRANCH  22  23
DOCKED: ATOM     23  C   UNL     1      20.793 -10.272  -8.811 -0.18 -0.00    +0.000 A 
DOCKED: ATOM     24  C   UNL     1      20.858 -10.262 -10.200 -0.10 -0.00    +0.000 A 
DOCKED: ATOM     25  N   UNL     1      21.946 -10.942 -10.628 -0.16 -0.00    +0.000 N 
DOCKED: ATOM     26  C   UNL     1      22.577 -11.367  -9.519 -0.23 -0.00    +0.000 A 
DOCKED: ATOM     27  C   UNL     1      21.906 -10.974  -8.389 -0.24 -0.00    +0.000 A 
DOCKED: ATOM     28  C   UNL     1      22.386 -11.268  -7.112 -0.37 -0.00    +0.000 A 
DOCKED: ATOM     29  C   UNL     1      23.590 -11.989  -7.012 -0.44 -0.00    +0.000 A 
DOCKED: ATOM     30  C   UNL     1      24.280 -12.393  -8.175 -0.40 -0.00    +0.000 A 
DOCKED: ATOM     31  C   UNL     1      23.774 -12.080  -9.450 -0.31 -0.00    +0.000 A 
DOCKED: ATOM     32  H   UNL     1      22.221 -11.096 -11.560 -0.00 -0.00    +0.000 HD
DOCKED: ENDBRANCH  22  23
DOCKED: ENDBRANCH  21  22
DOCKED: ENDBRANCH   1  21
DOCKED: TORSDOF 10
DOCKED: TER
DOCKED: ENDMDL
________________________________________________________________________________


	BEGINNING GENETIC ALGORITHM DOCKING 13 of 100
Run: 13 Seed: 1307769437 24124328 [ Run 13 of 100 GA/GALS ]
Beginning LAMARCKIAN GENETIC ALGORITHM (LGA), with a maximum of 2500000 energy evaluations.

Final-Value: -14.692


	FINAL GENETIC ALGORITHM DOCKED STATE
	_______________________________________________


Detailed state:  trans 19.934 -10.090 -6.664 quatxyzw -0.978442 0.009764 0.206288 0.000608 center 0.288 0.007 -0.056 ntor 10 -1.8296 -45.6699 16.8341 -153.3586 -124.4743 -15.1795 -97.5932 125.6366 -44.8171 141.2576
State:	 19.934 -10.090  -6.664  -0.978  0.010  0.206 179.930     -1.83  -45.67   16.83 -153.36 -124.47  -15.18  -97.59  125.64  -44.82  141.26

DOCKED: MODEL       13
DOCKED: USER    Run = 13
DOCKED: USER    DPF = ligand_dock.biased.dpf
DOCKED: USER  
DOCKED: USER    Estimated Free Energy of Binding    =   -8.86 kcal/mol  [=(1)+(2)+(3)-(4)]
DOCKED: USER    Estimated Inhibition Constant, Ki   =  317.65 nM (nanomolar)  [Temperature = 298.15 K]
DOCKED: USER    
DOCKED: USER    (1) Final Intermolecular Energy     =  -11.85 kcal/mol
DOCKED: USER        vdW + Hbond + desolv Energy     =  -11.85 kcal/mol
DOCKED: USER        Electrostatic Energy            =   +0.00 kcal/mol
DOCKED: USER    (2) Final Total Internal Energy     =   -2.84 kcal/mol
DOCKED: USER    (3) Torsional Free Energy           =   +2.98 kcal/mol
DOCKED: USER    (4) Unbound System's Energy  [=(2)] =   -2.84 kcal/mol
DOCKED: USER    
DOCKED: USER    
DOCKED: USER    NEWDPF move ligand.pdbqt
DOCKED: USER    NEWDPF about 0.288000 0.007000 -0.056000
DOCKED: USER    NEWDPF tran0 19.933602 -10.090162 -6.663971
DOCKED: USER    NEWDPF quaternion0 -0.978442 0.009764 0.206288 0.000608
DOCKED: USER    NEWDPF axisangle0 -0.978443 0.009764 0.206288 179.930348
DOCKED: USER    NEWDPF quat0 -0.978443 0.009764 0.206288 179.930348
DOCKED: USER    NEWDPF dihe0 -1.83 -45.67 16.83 -153.36 -124.47 -15.18 -97.59 125.64 -44.82 141.26 
DOCKED: USER  keepresnum = 1 
DOCKED: USER  
DOCKED: REMARK  Name = 
DOCKED: REMARK  10 active torsions:
DOCKED: REMARK  status: ('A' for Active; 'I' for Inactive)
DOCKED: REMARK    1  A    between atoms: C_2  and  C_5
DOCKED: REMARK    2  A    between atoms: C_6  and  C_7
DOCKED: REMARK    3  A    between atoms: C_10  and  C_11
DOCKED: REMARK    4  A    between atoms: C_11  and  N_12
DOCKED: REMARK    5  A    between atoms: N_12  and  C_13
DOCKED: REMARK    6  A    between atoms: N_12  and  C_16
DOCKED: REMARK    7  A    between atoms: C_13  and  C_14
DOCKED: REMARK    8  A    between atoms: C_14  and  O_15
DOCKED: REMARK    9  A    between atoms: C_16  and  C_17
DOCKED: REMARK   10  A    between atoms: C_17  and  C_18
DOCKED: REMARK                            x       y       z     vdW  Elec       q    Type
DOCKED: REMARK                         _______ _______ _______ _____ _____    ______ ____
DOCKED: USER                              x       y       z     vdW  Elec       q    Type
DOCKED: USER                           _______ _______ _______ _____ _____    ______ ____
DOCKED: ROOT
DOCKED: ATOM      1  N   UNL     1      18.750  -9.760  -6.142 -0.18 -0.00    +0.000 N 
DOCKED: ATOM      2  H   UNL     1      18.013 -10.091  -5.519 +0.00 -0.00    +0.000 HD
DOCKED: ENDROOT
DOCKED: BRANCH   1   3
DOCKED: ATOM      3  C   UNL     1      19.952 -10.508  -5.690 -0.36 -0.00    +0.000 C 
DOCKED: BRANCH   3   7
DOCKED: ATOM      4  C   UNL     1      20.494 -10.717  -1.386 -0.44 -0.00    +0.000 A 
DOCKED: ATOM      5  C   UNL     1      19.246 -10.993  -1.964 -0.36 -0.00    +0.000 A 
DOCKED: ATOM      6  C   UNL     1      19.072 -10.928  -3.349 -0.32 -0.00    +0.000 A 
DOCKED: ATOM      7  C   UNL     1      20.137 -10.558  -4.186 -0.40 -0.00    +0.000 A 
DOCKED: ATOM      8  C   UNL     1      21.391 -10.295  -3.611 -0.46 -0.00    +0.000 A 
DOCKED: ATOM      9  C   UNL     1      21.567 -10.359  -2.226 -0.40 -0.00    +0.000 A 
DOCKED: BRANCH   4  11
DOCKED: ATOM     10  C   UNL     1      19.963 -11.668   0.856 -0.69 -0.00    +0.000 C 
DOCKED: ATOM     11  C   UNL     1      20.625 -10.789   0.091 -0.68 -0.00    +0.000 C 
DOCKED: BRANCH  10  13
DOCKED: ATOM     12  O   UNL     1      19.894 -12.763   2.970 -1.43 -0.00    +0.000 OA
DOCKED: ATOM     13  C   UNL     1      20.111 -11.701   2.325 -0.78 -0.00    +0.000 C 
DOCKED: ATOM     14  N   UNL     1      20.504 -10.518   3.023 -0.65 -0.00    +0.000 N 
DOCKED: ATOM     15  O   UNL     1      20.645 -10.531   4.370 -0.89 -0.00    +0.000 OA
DOCKED: ATOM     16  H   UNL     1      20.675  -9.687   2.522 -0.55 -0.00    +0.000 HD
DOCKED: ENDBRANCH  10  13
DOCKED: ENDBRANCH   4  11
DOCKED: ENDBRANCH   3   7
DOCKED: ENDBRANCH   1   3
DOCKED: BRANCH   1  17
DOCKED: ATOM     17  C   UNL     1      18.268 -10.111  -7.497 -0.24 -0.00    +0.000 C 
DOCKED: BRANCH  17  18
DOCKED: ATOM     18  C   UNL     1      17.298 -11.296  -7.462 -0.36 -0.00    +0.000 C 
DOCKED: BRANCH  18  19
DOCKED: ATOM     19  O   UNL     1      16.964 -11.598  -6.136 -0.39 -0.00    +0.000 OA
DOCKED: ATOM     20  H   UNL     1      17.763 -11.860  -5.653 -0.04 -0.00    +0.000 HD
DOCKED: ENDBRANCH  18  19
DOCKED: ENDBRANCH  17  18
DOCKED: ENDBRANCH   1  17
DOCKED: BRANCH   1  21
DOCKED: ATOM     21  C   UNL     1      18.846  -8.297  -5.924 -0.13 -0.00    +0.000 C 
DOCKED: BRANCH  21  22
DOCKED: ATOM     22  C   UNL     1      20.272  -7.807  -6.196 -0.12 -0.00    +0.000 C 
DOCKED: BRANCH  22  23
DOCKED: ATOM     23  C   UNL     1      20.529  -6.496  -5.512 -0.11 -0.00    +0.000 A 
DOCKED: ATOM     24  C   UNL     1      20.431  -5.234  -6.088 -0.06 -0.00    +0.000 A 
DOCKED: ATOM     25  N   UNL     1      20.598  -4.272  -5.152 -0.07 -0.00    +0.000 N 
DOCKED: ATOM     26  C   UNL     1      20.784  -4.917  -3.986 -0.17 -0.00    +0.000 A 
DOCKED: ATOM     27  C   UNL     1      20.745  -6.276  -4.164 -0.21 -0.00    +0.000 A 
DOCKED: ATOM     28  C   UNL     1      20.880  -7.160  -3.092 -0.34 -0.00    +0.000 A 
DOCKED: ATOM     29  C   UNL     1      21.061  -6.613  -1.809 -0.36 -0.00    +0.000 A 
DOCKED: ATOM     30  C   UNL     1      21.102  -5.214  -1.627 -0.42 +0.00    +0.000 A 
DOCKED: ATOM     31  C   UNL     1      20.959  -4.347  -2.725 -0.25 -0.00    +0.000 A 
DOCKED: ATOM     32  H   UNL     1      20.585  -3.298  -5.293 +0.00 -0.00    +0.000 HD
DOCKED: ENDBRANCH  22  23
DOCKED: ENDBRANCH  21  22
DOCKED: ENDBRANCH   1  21
DOCKED: TORSDOF 10
DOCKED: TER
DOCKED: ENDMDL
________________________________________________________________________________


	BEGINNING GENETIC ALGORITHM DOCKING 14 of 100
Run: 14 Seed: 2037239643 1264204043 [ Run 14 of 100 GA/GALS ]
Beginning LAMARCKIAN GENETIC ALGORITHM (LGA), with a maximum of 2500000 energy evaluations.

Final-Value: -14.182


	FINAL GENETIC ALGORITHM DOCKED STATE
	_______________________________________________


Detailed state:  trans 12.577 -11.268 0.842 quatxyzw 0.956981 -0.071418 0.069837 0.272415 center 0.288 0.007 -0.056 ntor 10 58.3361 -95.8959 74.1320 -133.9733 2.6072 138.1760 -75.4904 170.0133 -158.1020 -8.2723
State:	 12.577 -11.268   0.842   0.995 -0.074  0.073 148.384     58.34  -95.90   74.13 -133.97    2.61  138.18  -75.49  170.01 -158.10   -8.27

DOCKED: MODEL       14
DOCKED: USER    Run = 14
DOCKED: USER    DPF = ligand_dock.biased.dpf
DOCKED: USER  
DOCKED: USER    Estimated Free Energy of Binding    =   -8.83 kcal/mol  [=(1)+(2)+(3)-(4)]
DOCKED: USER    Estimated Inhibition Constant, Ki   =  335.53 nM (nanomolar)  [Temperature = 298.15 K]
DOCKED: USER    
DOCKED: USER    (1) Final Intermolecular Energy     =  -11.82 kcal/mol
DOCKED: USER        vdW + Hbond + desolv Energy     =  -11.82 kcal/mol
DOCKED: USER        Electrostatic Energy            =   +0.00 kcal/mol
DOCKED: USER    (2) Final Total Internal Energy     =   -2.37 kcal/mol
DOCKED: USER    (3) Torsional Free Energy           =   +2.98 kcal/mol
DOCKED: USER    (4) Unbound System's Energy  [=(2)] =   -2.37 kcal/mol
DOCKED: USER    
DOCKED: USER    
DOCKED: USER    NEWDPF move ligand.pdbqt
DOCKED: USER    NEWDPF about 0.288000 0.007000 -0.056000
DOCKED: USER    NEWDPF tran0 12.576603 -11.267562 0.841748
DOCKED: USER    NEWDPF quaternion0 0.956981 -0.071418 0.069837 0.272415
DOCKED: USER    NEWDPF axisangle0 0.994597 -0.074225 0.072582 148.383906
DOCKED: USER    NEWDPF quat0 0.994597 -0.074225 0.072582 148.383906
DOCKED: USER    NEWDPF dihe0 58.34 -95.90 74.13 -133.97 2.61 138.18 -75.49 170.01 -158.10 -8.27 
DOCKED: USER  keepresnum = 1 
DOCKED: USER  
DOCKED: REMARK  Name = 
DOCKED: REMARK  10 active torsions:
DOCKED: REMARK  status: ('A' for Active; 'I' for Inactive)
DOCKED: REMARK    1  A    between atoms: C_2  and  C_5
DOCKED: REMARK    2  A    between atoms: C_6  and  C_7
DOCKED: REMARK    3  A    between atoms: C_10  and  C_11
DOCKED: REMARK    4  A    between atoms: C_11  and  N_12
DOCKED: REMARK    5  A    between atoms: N_12  and  C_13
DOCKED: REMARK    6  A    between atoms: N_12  and  C_16
DOCKED: REMARK    7  A    between atoms: C_13  and  C_14
DOCKED: REMARK    8  A    between atoms: C_14  and  O_15
DOCKED: REMARK    9  A    between atoms: C_16  and  C_17
DOCKED: REMARK   10  A    between atoms: C_17  and  C_18
DOCKED: REMARK                            x       y       z     vdW  Elec       q    Type
DOCKED: REMARK                         _______ _______ _______ _____ _____    ______ ____
DOCKED: USER                              x       y       z     vdW  Elec       q    Type
DOCKED: USER                           _______ _______ _______ _____ _____    ______ ____
DOCKED: ROOT
DOCKED: ATOM      1  N   UNL     1      11.333 -10.783   0.880 -0.29 +0.00    +0.000 N 
DOCKED: ATOM      2  H   UNL     1      10.351 -11.055   0.838 -0.01 +0.00    +0.000 HD
DOCKED: ENDROOT
DOCKED: BRANCH   1   3
DOCKED: ATOM      3  C   UNL     1      12.019 -12.019   1.340 -0.41 +0.00    +0.000 C 
DOCKED: BRANCH   3   7
DOCKED: ATOM      4  C   UNL     1      16.333 -11.917   0.846 -0.42 +0.00    +0.000 A 
DOCKED: ATOM      5  C   UNL     1      15.485 -11.917  -0.271 -0.40 +0.00    +0.000 A 
DOCKED: ATOM      6  C   UNL     1      14.097 -11.946  -0.112 -0.40 +0.00    +0.000 A 
DOCKED: ATOM      7  C   UNL     1      13.526 -12.006   1.168 -0.38 +0.00    +0.000 A 
DOCKED: ATOM      8  C   UNL     1      14.372 -11.994   2.290 -0.39 +0.00    +0.000 A 
DOCKED: ATOM      9  C   UNL     1      15.761 -11.963   2.133 -0.38 +0.00    +0.000 A 
DOCKED: BRANCH   4  11
DOCKED: ATOM     10  C   UNL     1      18.692 -11.548   1.564 -0.60 -0.00    +0.000 C 
DOCKED: ATOM     11  C   UNL     1      17.800 -11.896   0.624 -0.53 -0.00    +0.000 C 
DOCKED: BRANCH  10  13
DOCKED: ATOM     12  O   UNL     1      20.955 -12.021   2.132 -1.75 -0.00    +0.000 OA
DOCKED: ATOM     13  C   UNL     1      20.144 -11.530   1.300 -0.74 -0.00    +0.000 C 
DOCKED: ATOM     14  N   UNL     1      20.638 -10.949   0.091 -0.61 -0.00    +0.000 N 
DOCKED: ATOM     15  O   UNL     1      21.967 -10.925  -0.165 -0.72 -0.00    +0.000 OA
DOCKED: ATOM     16  H   UNL     1      20.007 -10.565  -0.561 -0.01 -0.00    +0.000 HD
DOCKED: ENDBRANCH  10  13
DOCKED: ENDBRANCH   4  11
DOCKED: ENDBRANCH   3   7
DOCKED: ENDBRANCH   1   3
DOCKED: BRANCH   1  17
DOCKED: ATOM     17  C   UNL     1      11.656 -10.367  -0.504 -0.26 +0.00    +0.000 C 
DOCKED: BRANCH  17  18
DOCKED: ATOM     18  C   UNL     1      10.443  -9.750  -1.206 -0.18 -0.00    +0.000 C 
DOCKED: BRANCH  18  19
DOCKED: ATOM     19  O   UNL     1       9.290 -10.482  -0.895 -0.21 -0.00    +0.000 OA
DOCKED: ATOM     20  H   UNL     1       9.527 -11.232  -0.329 -0.02 +0.00    +0.000 HD
DOCKED: ENDBRANCH  18  19
DOCKED: ENDBRANCH  17  18
DOCKED: ENDBRANCH   1  17
DOCKED: BRANCH   1  21
DOCKED: ATOM     21  C   UNL     1      11.409  -9.667   1.852 -0.19 +0.00    +0.000 C 
DOCKED: BRANCH  21  22
DOCKED: ATOM     22  C   UNL     1      12.746  -8.930   1.718 -0.16 +0.00    +0.000 C 
DOCKED: BRANCH  22  23
DOCKED: ATOM     23  C   UNL     1      13.330  -8.629   3.068 -0.19 +0.00    +0.000 A 
DOCKED: ATOM     24  C   UNL     1      13.619  -9.555   4.064 -0.30 +0.00    +0.000 A 
DOCKED: ATOM     25  N   UNL     1      14.259  -8.958   5.095 -0.44 +0.00    +0.000 N 
DOCKED: ATOM     26  C   UNL     1      14.391  -7.665   4.750 -0.36 +0.00    +0.000 A 
DOCKED: ATOM     27  C   UNL     1      13.840  -7.425   3.517 -0.21 +0.00    +0.000 A 
DOCKED: ATOM     28  C   UNL     1      13.883  -6.161   2.927 -0.19 +0.00    +0.000 A 
DOCKED: ATOM     29  C   UNL     1      14.514  -5.125   3.640 -0.26 +0.00    +0.000 A 
DOCKED: ATOM     30  C   UNL     1      15.081  -5.372   4.910 -0.41 +0.00    +0.000 A 
DOCKED: ATOM     31  C   UNL     1      15.025  -6.658   5.477 -0.36 +0.00    +0.000 A 
DOCKED: ATOM     32  H   UNL     1      14.566  -9.382   5.928 -0.04 +0.00    +0.000 HD
DOCKED: ENDBRANCH  22  23
DOCKED: ENDBRANCH  21  22
DOCKED: ENDBRANCH   1  21
DOCKED: TORSDOF 10
DOCKED: TER
DOCKED: ENDMDL
________________________________________________________________________________


	BEGINNING GENETIC ALGORITHM DOCKING 15 of 100
Run: 15 Seed: 857109545 721212073 [ Run 15 of 100 GA/GALS ]
Beginning LAMARCKIAN GENETIC ALGORITHM (LGA), with a maximum of 2500000 energy evaluations.

Final-Value: -15.688


	FINAL GENETIC ALGORITHM DOCKED STATE
	_______________________________________________


Detailed state:  trans 21.057 -10.204 -6.219 quatxyzw 0.532749 -0.532198 0.615606 -0.232321 center 0.288 0.007 -0.056 ntor 10 168.0588 -179.7838 -169.5771 178.4994 -162.3030 -180.0000 -33.8061 -45.0890 176.2359 20.3514
State:	 21.057 -10.204  -6.219   0.548 -0.547  0.633 -153.133    168.06 -179.78 -169.58  178.50 -162.30 -180.00  -33.81  -45.09  176.24   20.35

DOCKED: MODEL       15
DOCKED: USER    Run = 15
DOCKED: USER    DPF = ligand_dock.biased.dpf
DOCKED: USER  
DOCKED: USER    Estimated Free Energy of Binding    =  -10.68 kcal/mol  [=(1)+(2)+(3)-(4)]
DOCKED: USER    Estimated Inhibition Constant, Ki   =   14.85 nM (nanomolar)  [Temperature = 298.15 K]
DOCKED: USER    
DOCKED: USER    (1) Final Intermolecular Energy     =  -13.66 kcal/mol
DOCKED: USER        vdW + Hbond + desolv Energy     =  -13.66 kcal/mol
DOCKED: USER        Electrostatic Energy            =   +0.00 kcal/mol
DOCKED: USER    (2) Final Total Internal Energy     =   -2.03 kcal/mol
DOCKED: USER    (3) Torsional Free Energy           =   +2.98 kcal/mol
DOCKED: USER    (4) Unbound System's Energy  [=(2)] =   -2.03 kcal/mol
DOCKED: USER    
DOCKED: USER    
DOCKED: USER    NEWDPF move ligand.pdbqt
DOCKED: USER    NEWDPF about 0.288000 0.007000 -0.056000
DOCKED: USER    NEWDPF tran0 21.057069 -10.204057 -6.218758
DOCKED: USER    NEWDPF quaternion0 0.532749 -0.532198 0.615606 -0.232321
DOCKED: USER    NEWDPF axisangle0 0.547736 -0.547169 0.632924 -153.132514
DOCKED: USER    NEWDPF quat0 0.547736 -0.547169 0.632924 -153.132514
DOCKED: USER    NEWDPF dihe0 168.06 -179.78 -169.58 178.50 -162.30 -180.00 -33.81 -45.09 176.24 20.35 
DOCKED: USER  keepresnum = 1 
DOCKED: USER  
DOCKED: REMARK  Name = 
DOCKED: REMARK  10 active torsions:
DOCKED: REMARK  status: ('A' for Active; 'I' for Inactive)
DOCKED: REMARK    1  A    between atoms: C_2  and  C_5
DOCKED: REMARK    2  A    between atoms: C_6  and  C_7
DOCKED: REMARK    3  A    between atoms: C_10  and  C_11
DOCKED: REMARK    4  A    between atoms: C_11  and  N_12
DOCKED: REMARK    5  A    between atoms: N_12  and  C_13
DOCKED: REMARK    6  A    between atoms: N_12  and  C_16
DOCKED: REMARK    7  A    between atoms: C_13  and  C_14
DOCKED: REMARK    8  A    between atoms: C_14  and  O_15
DOCKED: REMARK    9  A    between atoms: C_16  and  C_17
DOCKED: REMARK   10  A    between atoms: C_17  and  C_18
DOCKED: REMARK                            x       y       z     vdW  Elec       q    Type
DOCKED: REMARK                         _______ _______ _______ _____ _____    ______ ____
DOCKED: USER                              x       y       z     vdW  Elec       q    Type
DOCKED: USER                           _______ _______ _______ _____ _____    ______ ____
DOCKED: ROOT
DOCKED: ATOM      1  N   UNL     1      21.739  -9.740  -7.269 -0.21 -0.00    +0.000 N 
DOCKED: ATOM      2  H   UNL     1      21.629  -9.349  -8.204 +0.00 -0.00    +0.000 HD
DOCKED: ENDROOT
DOCKED: BRANCH   1   3
DOCKED: ATOM      3  C   UNL     1      20.449  -9.426  -6.602 -0.21 -0.00    +0.000 C 
DOCKED: BRANCH   3   7
DOCKED: ATOM      4  C   UNL     1      20.538  -9.925  -2.289 -0.47 -0.00    +0.000 A 
DOCKED: ATOM      5  C   UNL     1      20.148 -10.983  -3.124 -0.36 -0.00    +0.000 A 
DOCKED: ATOM      6  C   UNL     1      20.122 -10.824  -4.512 -0.42 -0.00    +0.000 A 
DOCKED: ATOM      7  C   UNL     1      20.458  -9.592  -5.095 -0.27 -0.00    +0.000 A 
DOCKED: ATOM      8  C   UNL     1      20.861  -8.534  -4.263 -0.29 -0.00    +0.000 A 
DOCKED: ATOM      9  C   UNL     1      20.889  -8.692  -2.874 -0.40 -0.00    +0.000 A 
DOCKED: BRANCH   4  11
DOCKED: ATOM     10  C   UNL     1      20.131 -11.276  -0.234 -0.50 -0.00    +0.000 C 
DOCKED: ATOM     11  C   UNL     1      20.538 -10.141  -0.820 -0.63 -0.00    +0.000 C 
DOCKED: BRANCH  10  13
DOCKED: ATOM     12  O   UNL     1      19.699 -12.510   1.756 -1.67 -0.00    +0.000 OA
DOCKED: ATOM     13  C   UNL     1      20.137 -11.449   1.232 -0.73 -0.00    +0.000 C 
DOCKED: ATOM     14  N   UNL     1      20.642 -10.405   2.066 -0.50 -0.00    +0.000 N 
DOCKED: ATOM     15  O   UNL     1      20.654 -10.548   3.413 -1.12 -0.00    +0.000 OA
DOCKED: ATOM     16  H   UNL     1      20.984  -9.576   1.660 -0.51 -0.00    +0.000 HD
DOCKED: ENDBRANCH  10  13
DOCKED: ENDBRANCH   4  11
DOCKED: ENDBRANCH   3   7
DOCKED: ENDBRANCH   1   3
DOCKED: BRANCH   1  17
DOCKED: ATOM     17  C   UNL     1      21.988 -11.182  -7.503 -0.28 -0.00    +0.000 C 
DOCKED: BRANCH  17  18
DOCKED: ATOM     18  C   UNL     1      22.904 -11.778  -6.431 -0.48 -0.00    +0.000 C 
DOCKED: BRANCH  18  19
DOCKED: ATOM     19  O   UNL     1      24.009 -12.390  -7.037 -1.17 +0.00    +0.000 OA
DOCKED: ATOM     20  H   UNL     1      24.801 -11.852  -6.883 -0.04 +0.00    +0.000 HD
DOCKED: ENDBRANCH  18  19
DOCKED: ENDBRANCH  17  18
DOCKED: ENDBRANCH   1  17
DOCKED: BRANCH   1  21
DOCKED: ATOM     21  C   UNL     1      22.901  -9.045  -6.666 -0.26 -0.00    +0.000 C 
DOCKED: BRANCH  21  22
DOCKED: ATOM     22  C   UNL     1      23.770  -8.409  -7.756 -0.18 -0.00    +0.000 C 
DOCKED: BRANCH  22  23
DOCKED: ATOM     23  C   UNL     1      24.899  -9.321  -8.142 -0.22 -0.00    +0.000 A 
DOCKED: ATOM     24  C   UNL     1      24.931 -10.170  -9.243 -0.18 -0.00    +0.000 A 
DOCKED: ATOM     25  N   UNL     1      26.150 -10.743  -9.363 -0.28 -0.00    +0.000 N 
DOCKED: ATOM     26  C   UNL     1      26.893 -10.251  -8.356 -0.36 -0.00    +0.000 A 
DOCKED: ATOM     27  C   UNL     1      26.165  -9.376  -7.590 -0.31 -0.00    +0.000 A 
DOCKED: ATOM     28  C   UNL     1      26.730  -8.708  -6.503 -0.30 -0.00    +0.000 A 
DOCKED: ATOM     29  C   UNL     1      28.082  -8.960  -6.208 -0.40 -0.00    +0.000 A 
DOCKED: ATOM     30  C   UNL     1      28.831  -9.861  -6.996 -0.45 -0.00    +0.000 A 
DOCKED: ATOM     31  C   UNL     1      28.235 -10.517  -8.088 -0.44 -0.00    +0.000 A 
DOCKED: ATOM     32  H   UNL     1      26.437 -11.389 -10.048 -0.05 -0.00    +0.000 HD
DOCKED: ENDBRANCH  22  23
DOCKED: ENDBRANCH  21  22
DOCKED: ENDBRANCH   1  21
DOCKED: TORSDOF 10
DOCKED: TER
DOCKED: ENDMDL
________________________________________________________________________________


	BEGINNING GENETIC ALGORITHM DOCKING 16 of 100
Run: 16 Seed: 1434339352 273875415 [ Run 16 of 100 GA/GALS ]
Beginning LAMARCKIAN GENETIC ALGORITHM (LGA), with a maximum of 2500000 energy evaluations.

Final-Value: -14.679


	FINAL GENETIC ALGORITHM DOCKED STATE
	_______________________________________________


Detailed state:  trans 20.155 -9.248 -4.458 quatxyzw -0.414180 -0.512193 0.258568 -0.706581 center 0.288 0.007 -0.056 ntor 10 109.6603 -66.9880 61.2180 -81.8037 -39.9476 122.4338 -80.4072 -172.5700 162.1273 -9.3431
State:	 20.155  -9.248  -4.458  -0.585 -0.724  0.365 -90.085    109.66  -66.99   61.22  -81.80  -39.95  122.43  -80.41 -172.57  162.13   -9.34

DOCKED: MODEL       16
DOCKED: USER    Run = 16
DOCKED: USER    DPF = ligand_dock.biased.dpf
DOCKED: USER  
DOCKED: USER    Estimated Free Energy of Binding    =   -9.29 kcal/mol  [=(1)+(2)+(3)-(4)]
DOCKED: USER    Estimated Inhibition Constant, Ki   =  154.52 nM (nanomolar)  [Temperature = 298.15 K]
DOCKED: USER    
DOCKED: USER    (1) Final Intermolecular Energy     =  -12.27 kcal/mol
DOCKED: USER        vdW + Hbond + desolv Energy     =  -12.27 kcal/mol
DOCKED: USER        Electrostatic Energy            =   +0.00 kcal/mol
DOCKED: USER    (2) Final Total Internal Energy     =   -2.40 kcal/mol
DOCKED: USER    (3) Torsional Free Energy           =   +2.98 kcal/mol
DOCKED: USER    (4) Unbound System's Energy  [=(2)] =   -2.40 kcal/mol
DOCKED: USER    
DOCKED: USER    
DOCKED: USER    NEWDPF move ligand.pdbqt
DOCKED: USER    NEWDPF about 0.288000 0.007000 -0.056000
DOCKED: USER    NEWDPF tran0 20.154784 -9.248197 -4.457780
DOCKED: USER    NEWDPF quaternion0 -0.414180 -0.512193 0.258568 -0.706581
DOCKED: USER    NEWDPF axisangle0 -0.585304 -0.723812 0.365398 -90.085240
DOCKED: USER    NEWDPF quat0 -0.585304 -0.723812 0.365398 -90.085240
DOCKED: USER    NEWDPF dihe0 109.66 -66.99 61.22 -81.80 -39.95 122.43 -80.41 -172.57 162.13 -9.34 
DOCKED: USER  keepresnum = 1 
DOCKED: USER  
DOCKED: REMARK  Name = 
DOCKED: REMARK  10 active torsions:
DOCKED: REMARK  status: ('A' for Active; 'I' for Inactive)
DOCKED: REMARK    1  A    between atoms: C_2  and  C_5
DOCKED: REMARK    2  A    between atoms: C_6  and  C_7
DOCKED: REMARK    3  A    between atoms: C_10  and  C_11
DOCKED: REMARK    4  A    between atoms: C_11  and  N_12
DOCKED: REMARK    5  A    between atoms: N_12  and  C_13
DOCKED: REMARK    6  A    between atoms: N_12  and  C_16
DOCKED: REMARK    7  A    between atoms: C_13  and  C_14
DOCKED: REMARK    8  A    between atoms: C_14  and  O_15
DOCKED: REMARK    9  A    between atoms: C_16  and  C_17
DOCKED: REMARK   10  A    between atoms: C_17  and  C_18
DOCKED: REMARK                            x       y       z     vdW  Elec       q    Type
DOCKED: REMARK                         _______ _______ _______ _____ _____    ______ ____
DOCKED: USER                              x       y       z     vdW  Elec       q    Type
DOCKED: USER                           _______ _______ _______ _____ _____    ______ ____
DOCKED: ROOT
DOCKED: ATOM      1  N   UNL     1      19.692 -10.434  -4.861 -0.32 -0.00    +0.000 N 
DOCKED: ATOM      2  H   UNL     1      19.654 -11.065  -5.661 -0.03 -0.00    +0.000 HD
DOCKED: ENDROOT
DOCKED: BRANCH   1   3
DOCKED: ATOM      3  C   UNL     1      20.898  -9.606  -5.123 -0.33 -0.00    +0.000 C 
DOCKED: BRANCH   3   7
DOCKED: ATOM      4  C   UNL     1      21.108  -6.000  -2.712 -0.36 -0.00    +0.000 A 
DOCKED: ATOM      5  C   UNL     1      20.773  -5.932  -4.073 -0.21 -0.00    +0.000 A 
DOCKED: ATOM      6  C   UNL     1      20.703  -7.093  -4.848 -0.18 -0.00    +0.000 A 
DOCKED: ATOM      7  C   UNL     1      20.994  -8.346  -4.286 -0.29 -0.00    +0.000 A 
DOCKED: ATOM      8  C   UNL     1      21.317  -8.418  -2.921 -0.40 -0.00    +0.000 A 
DOCKED: ATOM      9  C   UNL     1      21.387  -7.258  -2.144 -0.43 -0.00    +0.000 A 
DOCKED: BRANCH   4  11
DOCKED: ATOM     10  C   UNL     1      20.409  -4.472  -0.870 -0.41 +0.00    +0.000 C 
DOCKED: ATOM     11  C   UNL     1      21.180  -4.737  -1.935 -0.42 -0.00    +0.000 C 
DOCKED: BRANCH  10  13
DOCKED: ATOM     12  O   UNL     1      21.385  -3.036   0.759 -1.10 +0.00    +0.000 OA
DOCKED: ATOM     13  C   UNL     1      20.504  -3.199  -0.129 -0.44 +0.00    +0.000 C 
DOCKED: ATOM     14  N   UNL     1      19.589  -2.141  -0.419 -0.24 -0.00    +0.000 N 
DOCKED: ATOM     15  O   UNL     1      19.662  -0.967   0.252 -0.18 -0.00    +0.000 OA
DOCKED: ATOM     16  H   UNL     1      18.899  -2.265  -1.112 -0.01 -0.00    +0.000 HD
DOCKED: ENDBRANCH  10  13
DOCKED: ENDBRANCH   4  11
DOCKED: ENDBRANCH   3   7
DOCKED: ENDBRANCH   1   3
DOCKED: BRANCH   1  17
DOCKED: ATOM     17  C   UNL     1      18.406  -9.701  -4.914 -0.25 -0.00    +0.000 C 
DOCKED: BRANCH  17  18
DOCKED: ATOM     18  C   UNL     1      17.372 -10.435  -5.772 -0.27 -0.00    +0.000 C 
DOCKED: BRANCH  18  19
DOCKED: ATOM     19  O   UNL     1      17.996 -11.457  -6.499 -0.44 -0.00    +0.000 OA
DOCKED: ATOM     20  H   UNL     1      18.545 -11.989  -5.902 -0.07 -0.00    +0.000 HD
DOCKED: ENDBRANCH  18  19
DOCKED: ENDBRANCH  17  18
DOCKED: ENDBRANCH   1  17
DOCKED: BRANCH   1  21
DOCKED: ATOM     21  C   UNL     1      19.816 -11.297  -3.662 -0.44 -0.00    +0.000 C 
DOCKED: BRANCH  21  22
DOCKED: ATOM     22  C   UNL     1      19.101 -10.659  -2.466 -0.42 -0.00    +0.000 C 
DOCKED: BRANCH  22  23
DOCKED: ATOM     23  C   UNL     1      19.878 -10.876  -1.199 -0.43 -0.00    +0.000 A 
DOCKED: ATOM     24  C   UNL     1      21.258 -10.792  -1.056 -0.45 -0.00    +0.000 A 
DOCKED: ATOM     25  N   UNL     1      21.607 -10.912   0.245 -0.56 -0.00    +0.000 N 
DOCKED: ATOM     26  C   UNL     1      20.457 -11.055   0.926 -0.63 -0.00    +0.000 A 
DOCKED: ATOM     27  C   UNL     1      19.378 -11.034   0.080 -0.50 -0.00    +0.000 A 
DOCKED: ATOM     28  C   UNL     1      18.070 -11.132   0.556 -0.42 -0.00    +0.000 A 
DOCKED: ATOM     29  C   UNL     1      17.885 -11.255   1.945 -0.44 +0.00    +0.000 A 
DOCKED: ATOM     30  C   UNL     1      18.996 -11.277   2.816 -0.56 -0.00    +0.000 A 
DOCKED: ATOM     31  C   UNL     1      20.303 -11.173   2.307 -0.66 -0.00    +0.000 A 
DOCKED: ATOM     32  H   UNL     1      22.518 -10.898   0.618 -0.40 -0.00    +0.000 HD
DOCKED: ENDBRANCH  22  23
DOCKED: ENDBRANCH  21  22
DOCKED: ENDBRANCH   1  21
DOCKED: TORSDOF 10
DOCKED: TER
DOCKED: ENDMDL
________________________________________________________________________________


	BEGINNING GENETIC ALGORITHM DOCKING 17 of 100
Run: 17 Seed: 791925601 860646210 [ Run 17 of 100 GA/GALS ]
Beginning LAMARCKIAN GENETIC ALGORITHM (LGA), with a maximum of 2500000 energy evaluations.

Final-Value: -14.684


	FINAL GENETIC ALGORITHM DOCKED STATE
	_______________________________________________


Detailed state:  trans 19.602 -9.850 -5.186 quatxyzw -0.130194 -0.484008 -0.640557 -0.581784 center 0.288 0.007 -0.056 ntor 10 -32.1775 -47.3987 8.6862 159.8893 80.4781 29.3191 175.4090 92.5645 177.1316 -42.9468
State:	 19.602  -9.850  -5.186  -0.160 -0.595 -0.788 -108.848    -32.18  -47.40    8.69  159.89   80.48   29.32  175.41   92.56  177.13  -42.95

DOCKED: MODEL       17
DOCKED: USER    Run = 17
DOCKED: USER    DPF = ligand_dock.biased.dpf
DOCKED: USER  
DOCKED: USER    Estimated Free Energy of Binding    =   -9.27 kcal/mol  [=(1)+(2)+(3)-(4)]
DOCKED: USER    Estimated Inhibition Constant, Ki   =  161.54 nM (nanomolar)  [Temperature = 298.15 K]
DOCKED: USER    
DOCKED: USER    (1) Final Intermolecular Energy     =  -12.25 kcal/mol
DOCKED: USER        vdW + Hbond + desolv Energy     =  -12.25 kcal/mol
DOCKED: USER        Electrostatic Energy            =   +0.00 kcal/mol
DOCKED: USER    (2) Final Total Internal Energy     =   -2.44 kcal/mol
DOCKED: USER    (3) Torsional Free Energy           =   +2.98 kcal/mol
DOCKED: USER    (4) Unbound System's Energy  [=(2)] =   -2.44 kcal/mol
DOCKED: USER    
DOCKED: USER    
DOCKED: USER    NEWDPF move ligand.pdbqt
DOCKED: USER    NEWDPF about 0.288000 0.007000 -0.056000
DOCKED: USER    NEWDPF tran0 19.601669 -9.849505 -5.186459
DOCKED: USER    NEWDPF quaternion0 -0.130194 -0.484008 -0.640557 -0.581784
DOCKED: USER    NEWDPF axisangle0 -0.160073 -0.595085 -0.787560 -108.847746
DOCKED: USER    NEWDPF quat0 -0.160073 -0.595085 -0.787560 -108.847746
DOCKED: USER    NEWDPF dihe0 -32.18 -47.40 8.69 159.89 80.48 29.32 175.41 92.56 177.13 -42.95 
DOCKED: USER  keepresnum = 1 
DOCKED: USER  
DOCKED: REMARK  Name = 
DOCKED: REMARK  10 active torsions:
DOCKED: REMARK  status: ('A' for Active; 'I' for Inactive)
DOCKED: REMARK    1  A    between atoms: C_2  and  C_5
DOCKED: REMARK    2  A    between atoms: C_6  and  C_7
DOCKED: REMARK    3  A    between atoms: C_10  and  C_11
DOCKED: REMARK    4  A    between atoms: C_11  and  N_12
DOCKED: REMARK    5  A    between atoms: N_12  and  C_13
DOCKED: REMARK    6  A    between atoms: N_12  and  C_16
DOCKED: REMARK    7  A    between atoms: C_13  and  C_14
DOCKED: REMARK    8  A    between atoms: C_14  and  O_15
DOCKED: REMARK    9  A    between atoms: C_16  and  C_17
DOCKED: REMARK   10  A    between atoms: C_17  and  C_18
DOCKED: REMARK                            x       y       z     vdW  Elec       q    Type
DOCKED: REMARK                         _______ _______ _______ _____ _____    ______ ____
DOCKED: USER                              x       y       z     vdW  Elec       q    Type
DOCKED: USER                           _______ _______ _______ _____ _____    ______ ____
DOCKED: ROOT
DOCKED: ATOM      1  N   UNL     1      19.711  -9.088  -6.278 -0.14 -0.00    +0.000 N 
DOCKED: ATOM      2  H   UNL     1      20.389  -8.679  -6.921 +0.01 -0.00    +0.000 HD
DOCKED: ENDROOT
DOCKED: BRANCH   1   3
DOCKED: ATOM      3  C   UNL     1      20.433 -10.255  -5.705 -0.34 -0.00    +0.000 C 
DOCKED: BRANCH   3   7
DOCKED: ATOM      4  C   UNL     1      20.248 -10.471  -1.371 -0.49 -0.00    +0.000 A 
DOCKED: ATOM      5  C   UNL     1      21.292  -9.786  -2.009 -0.51 -0.00    +0.000 A 
DOCKED: ATOM      6  C   UNL     1      21.350  -9.713  -3.404 -0.43 -0.00    +0.000 A 
DOCKED: ATOM      7  C   UNL     1      20.380 -10.350  -4.193 -0.39 -0.00    +0.000 A 
DOCKED: ATOM      8  C   UNL     1      19.325 -11.026  -3.557 -0.35 -0.00    +0.000 A 
DOCKED: ATOM      9  C   UNL     1      19.265 -11.099  -2.162 -0.33 -0.00    +0.000 A 
DOCKED: BRANCH   4  11
DOCKED: ATOM     10  C   UNL     1      20.275 -11.670   0.814 -0.65 -0.00    +0.000 C 
DOCKED: ATOM     11  C   UNL     1      20.237 -10.528   0.112 -0.64 -0.00    +0.000 C 
DOCKED: BRANCH  10  13
DOCKED: ATOM     12  O   UNL     1      19.890 -12.718   2.918 -1.47 -0.00    +0.000 OA
DOCKED: ATOM     13  C   UNL     1      20.252 -11.685   2.290 -0.78 -0.00    +0.000 C 
DOCKED: ATOM     14  N   UNL     1      20.643 -10.518   3.017 -0.63 -0.00    +0.000 N 
DOCKED: ATOM     15  O   UNL     1      20.628 -10.516   4.371 -0.88 -0.00    +0.000 OA
DOCKED: ATOM     16  H   UNL     1      20.926  -9.710   2.530 -0.58 -0.00    +0.000 HD
DOCKED: ENDBRANCH  10  13
DOCKED: ENDBRANCH   4  11
DOCKED: ENDBRANCH   3   7
DOCKED: ENDBRANCH   1   3
DOCKED: BRANCH   1  17
DOCKED: ATOM     17  C   UNL     1      19.418  -8.000  -5.316 -0.17 -0.00    +0.000 C 
DOCKED: BRANCH  17  18
DOCKED: ATOM     18  C   UNL     1      20.647  -7.122  -5.065 -0.19 -0.00    +0.000 C 
DOCKED: BRANCH  18  19
DOCKED: ATOM     19  O   UNL     1      21.677  -7.482  -5.944 -0.17 -0.00    +0.000 OA
DOCKED: ATOM     20  H   UNL     1      22.245  -8.144  -5.521 -0.02 -0.00    +0.000 HD
DOCKED: ENDBRANCH  18  19
DOCKED: ENDBRANCH  17  18
DOCKED: ENDBRANCH   1  17
DOCKED: BRANCH   1  21
DOCKED: ATOM     21  C   UNL     1      18.537  -9.464  -7.100 -0.17 -0.00    +0.000 C 
DOCKED: BRANCH  21  22
DOCKED: ATOM     22  C   UNL     1      18.306 -10.978  -7.044 -0.35 -0.00    +0.000 C 
DOCKED: BRANCH  22  23
DOCKED: ATOM     23  C   UNL     1      17.009 -11.297  -6.359 -0.31 -0.00    +0.000 A 
DOCKED: ATOM     24  C   UNL     1      16.602 -10.836  -5.112 -0.19 -0.00    +0.000 A 
DOCKED: ATOM     25  N   UNL     1      15.326 -11.208  -4.863 -0.26 -0.00    +0.000 N 
DOCKED: ATOM     26  C   UNL     1      14.918 -11.888  -5.949 -0.27 -0.00    +0.000 A 
DOCKED: ATOM     27  C   UNL     1      15.917 -11.960  -6.887 -0.29 -0.00    +0.000 A 
DOCKED: ATOM     28  C   UNL     1      15.722 -12.589  -8.118 -0.29 +0.00    +0.000 A 
DOCKED: ATOM     29  C   UNL     1      14.460 -13.154  -8.374 -0.36 +0.00    +0.000 A 
DOCKED: ATOM     30  C   UNL     1      13.433 -13.080  -7.409 -0.32 -0.00    +0.000 A 
DOCKED: ATOM     31  C   UNL     1      13.657 -12.437  -6.178 -0.28 -0.00    +0.000 A 
DOCKED: ATOM     32  H   UNL     1      14.801 -11.021  -4.052 -0.01 -0.00    +0.000 HD
DOCKED: ENDBRANCH  22  23
DOCKED: ENDBRANCH  21  22
DOCKED: ENDBRANCH   1  21
DOCKED: TORSDOF 10
DOCKED: TER
DOCKED: ENDMDL
________________________________________________________________________________


	BEGINNING GENETIC ALGORITHM DOCKING 18 of 100
Run: 18 Seed: 149992348 403680307 [ Run 18 of 100 GA/GALS ]
Beginning LAMARCKIAN GENETIC ALGORITHM (LGA), with a maximum of 2500000 energy evaluations.

Final-Value: -14.663


	FINAL GENETIC ALGORITHM DOCKED STATE
	_______________________________________________


Detailed state:  trans 15.589 -12.427 2.480 quatxyzw 0.735535 -0.577898 0.240732 -0.258980 center 0.288 0.007 -0.056 ntor 10 110.5800 -30.6555 59.5981 -166.4085 -92.0362 -178.8185 -141.7505 -159.5645 -33.4954 167.1956
State:	 15.589 -12.427   2.480   0.762 -0.598  0.249 -149.981    110.58  -30.66   59.60 -166.41  -92.04 -178.82 -141.75 -159.56  -33.50  167.20

DOCKED: MODEL       18
DOCKED: USER    Run = 18
DOCKED: USER    DPF = ligand_dock.biased.dpf
DOCKED: USER  
DOCKED: USER    Estimated Free Energy of Binding    =   -9.42 kcal/mol  [=(1)+(2)+(3)-(4)]
DOCKED: USER    Estimated Inhibition Constant, Ki   =  123.88 nM (nanomolar)  [Temperature = 298.15 K]
DOCKED: USER    
DOCKED: USER    (1) Final Intermolecular Energy     =  -12.41 kcal/mol
DOCKED: USER        vdW + Hbond + desolv Energy     =  -12.41 kcal/mol
DOCKED: USER        Electrostatic Energy            =   +0.00 kcal/mol
DOCKED: USER    (2) Final Total Internal Energy     =   -2.26 kcal/mol
DOCKED: USER    (3) Torsional Free Energy           =   +2.98 kcal/mol
DOCKED: USER    (4) Unbound System's Energy  [=(2)] =   -2.26 kcal/mol
DOCKED: USER    
DOCKED: USER    
DOCKED: USER    NEWDPF move ligand.pdbqt
DOCKED: USER    NEWDPF about 0.288000 0.007000 -0.056000
DOCKED: USER    NEWDPF tran0 15.588929 -12.426965 2.480391
DOCKED: USER    NEWDPF quaternion0 0.735535 -0.577898 0.240732 -0.258980
DOCKED: USER    NEWDPF axisangle0 0.761516 -0.598311 0.249235 -149.980962
DOCKED: USER    NEWDPF quat0 0.761516 -0.598311 0.249235 -149.980962
DOCKED: USER    NEWDPF dihe0 110.58 -30.66 59.60 -166.41 -92.04 -178.82 -141.75 -159.56 -33.50 167.20 
DOCKED: USER  keepresnum = 1 
DOCKED: USER  
DOCKED: REMARK  Name = 
DOCKED: REMARK  10 active torsions:
DOCKED: REMARK  status: ('A' for Active; 'I' for Inactive)
DOCKED: REMARK    1  A    between atoms: C_2  and  C_5
DOCKED: REMARK    2  A    between atoms: C_6  and  C_7
DOCKED: REMARK    3  A    between atoms: C_10  and  C_11
DOCKED: REMARK    4  A    between atoms: C_11  and  N_12
DOCKED: REMARK    5  A    between atoms: N_12  and  C_13
DOCKED: REMARK    6  A    between atoms: N_12  and  C_16
DOCKED: REMARK    7  A    between atoms: C_13  and  C_14
DOCKED: REMARK    8  A    between atoms: C_14  and  O_15
DOCKED: REMARK    9  A    between atoms: C_16  and  C_17
DOCKED: REMARK   10  A    between atoms: C_17  and  C_18
DOCKED: REMARK                            x       y       z     vdW  Elec       q    Type
DOCKED: REMARK                         _______ _______ _______ _____ _____    ______ ____
DOCKED: USER                              x       y       z     vdW  Elec       q    Type
DOCKED: USER                           _______ _______ _______ _____ _____    ______ ____
DOCKED: ROOT
DOCKED: ATOM      1  N   UNL     1      15.605 -11.424   1.599 -0.38 +0.00    +0.000 N 
DOCKED: ATOM      2  H   UNL     1      15.052 -10.646   1.239 +0.00 +0.00    +0.000 HD
DOCKED: ENDROOT
DOCKED: BRANCH   1   3
DOCKED: ATOM      3  C   UNL     1      15.049 -11.650   2.958 -0.52 +0.00    +0.000 C 
DOCKED: BRANCH   3   7
DOCKED: ATOM      4  C   UNL     1      12.753  -8.350   4.601 -0.27 +0.00    +0.000 A 
DOCKED: ATOM      5  C   UNL     1      12.376  -8.950   3.390 -0.18 +0.00    +0.000 A 
DOCKED: ATOM      6  C   UNL     1      13.113 -10.014   2.863 -0.22 +0.00    +0.000 A 
DOCKED: ATOM      7  C   UNL     1      14.261 -10.483   3.521 -0.35 +0.00    +0.000 A 
DOCKED: ATOM      8  C   UNL     1      14.633  -9.893   4.740 -0.39 +0.00    +0.000 A 
DOCKED: ATOM      9  C   UNL     1      13.896  -8.829   5.269 -0.43 +0.00    +0.000 A 
DOCKED: BRANCH   4  11
DOCKED: ATOM     10  C   UNL     1      10.678  -7.336   5.540 -0.25 +0.00    +0.000 C 
DOCKED: ATOM     11  C   UNL     1      11.943  -7.215   5.113 -0.27 +0.00    +0.000 C 
DOCKED: BRANCH  10  13
DOCKED: ATOM     12  O   UNL     1       8.810  -6.351   6.640 -0.39 +0.00    +0.000 OA
DOCKED: ATOM     13  C   UNL     1       9.903  -6.180   6.033 -0.28 +0.00    +0.000 C 
DOCKED: ATOM     14  N   UNL     1      10.393  -4.855   5.821 -0.35 +0.00    +0.000 N 
DOCKED: ATOM     15  O   UNL     1       9.693  -3.785   6.266 -1.10 +0.00    +0.000 OA
DOCKED: ATOM     16  H   UNL     1      11.246  -4.718   5.347 -0.01 +0.00    +0.000 HD
DOCKED: ENDBRANCH  10  13
DOCKED: ENDBRANCH   4  11
DOCKED: ENDBRANCH   3   7
DOCKED: ENDBRANCH   1   3
DOCKED: BRANCH   1  17
DOCKED: ATOM     17  C   UNL     1      15.364 -12.521   0.633 -0.49 +0.00    +0.000 C 
DOCKED: BRANCH  17  18
DOCKED: ATOM     18  C   UNL     1      14.787 -11.997  -0.684 -0.45 +0.00    +0.000 C 
DOCKED: BRANCH  18  19
DOCKED: ATOM     19  O   UNL     1      15.139 -10.652  -0.856 -0.29 +0.00    +0.000 OA
DOCKED: ATOM     20  H   UNL     1      16.094 -10.548  -0.723 -0.00 -0.00    +0.000 HD
DOCKED: ENDBRANCH  18  19
DOCKED: ENDBRANCH  17  18
DOCKED: ENDBRANCH   1  17
DOCKED: BRANCH   1  21
DOCKED: ATOM     21  C   UNL     1      17.013 -10.960   1.606 -0.44 +0.00    +0.000 C 
DOCKED: BRANCH  21  22
DOCKED: ATOM     22  C   UNL     1      17.934 -12.033   1.015 -0.55 +0.00    +0.000 C 
DOCKED: BRANCH  22  23
DOCKED: ATOM     23  C   UNL     1      19.208 -11.424   0.505 -0.53 -0.00    +0.000 A 
DOCKED: ATOM     24  C   UNL     1      20.433 -11.406   1.164 -0.65 -0.00    +0.000 A 
DOCKED: ATOM     25  N   UNL     1      21.395 -10.897   0.361 -0.63 -0.00    +0.000 N 
DOCKED: ATOM     26  C   UNL     1      20.791 -10.608  -0.805 -0.55 -0.00    +0.000 A 
DOCKED: ATOM     27  C   UNL     1      19.455 -10.919  -0.758 -0.45 -0.00    +0.000 A 
DOCKED: ATOM     28  C   UNL     1      18.621 -10.739  -1.862 -0.33 -0.00    +0.000 A 
DOCKED: ATOM     29  C   UNL     1      19.192 -10.223  -3.039 -0.34 -0.00    +0.000 A 
DOCKED: ATOM     30  C   UNL     1      20.566  -9.903  -3.087 -0.43 -0.00    +0.000 A 
DOCKED: ATOM     31  C   UNL     1      21.384 -10.098  -1.959 -0.52 -0.00    +0.000 A 
DOCKED: ATOM     32  H   UNL     1      22.344 -10.765   0.584 -0.36 -0.00    +0.000 HD
DOCKED: ENDBRANCH  22  23
DOCKED: ENDBRANCH  21  22
DOCKED: ENDBRANCH   1  21
DOCKED: TORSDOF 10
DOCKED: TER
DOCKED: ENDMDL
________________________________________________________________________________


	BEGINNING GENETIC ALGORITHM DOCKING 19 of 100
Run: 19 Seed: 1875359053 110501288 [ Run 19 of 100 GA/GALS ]
Beginning LAMARCKIAN GENETIC ALGORITHM (LGA), with a maximum of 2500000 energy evaluations.

Final-Value: -13.652


	FINAL GENETIC ALGORITHM DOCKED STATE
	_______________________________________________


Detailed state:  trans 19.584 -10.016 -5.895 quatxyzw 0.499621 0.675129 -0.467834 0.275156 center 0.288 0.007 -0.056 ntor 10 53.5009 144.4797 -170.1728 -146.8460 -109.2998 -145.6322 -88.1570 74.2627 93.5225 -164.0831
State:	 19.584 -10.016  -5.895   0.520  0.702 -0.487 148.057     53.50  144.48 -170.17 -146.85 -109.30 -145.63  -88.16   74.26   93.52 -164.08

DOCKED: MODEL       19
DOCKED: USER    Run = 19
DOCKED: USER    DPF = ligand_dock.biased.dpf
DOCKED: USER  
DOCKED: USER    Estimated Free Energy of Binding    =   -9.28 kcal/mol  [=(1)+(2)+(3)-(4)]
DOCKED: USER    Estimated Inhibition Constant, Ki   =  156.46 nM (nanomolar)  [Temperature = 298.15 K]
DOCKED: USER    
DOCKED: USER    (1) Final Intermolecular Energy     =  -12.27 kcal/mol
DOCKED: USER        vdW + Hbond + desolv Energy     =  -12.27 kcal/mol
DOCKED: USER        Electrostatic Energy            =   +0.00 kcal/mol
DOCKED: USER    (2) Final Total Internal Energy     =   -1.38 kcal/mol
DOCKED: USER    (3) Torsional Free Energy           =   +2.98 kcal/mol
DOCKED: USER    (4) Unbound System's Energy  [=(2)] =   -1.38 kcal/mol
DOCKED: USER    
DOCKED: USER    
DOCKED: USER    NEWDPF move ligand.pdbqt
DOCKED: USER    NEWDPF about 0.288000 0.007000 -0.056000
DOCKED: USER    NEWDPF tran0 19.584031 -10.015723 -5.895361
DOCKED: USER    NEWDPF quaternion0 0.499621 0.675129 -0.467834 0.275156
DOCKED: USER    NEWDPF axisangle0 0.519681 0.702236 -0.486617 148.057428
DOCKED: USER    NEWDPF quat0 0.519681 0.702236 -0.486617 148.057428
DOCKED: USER    NEWDPF dihe0 53.50 144.48 -170.17 -146.85 -109.30 -145.63 -88.16 74.26 93.52 -164.08 
DOCKED: USER  keepresnum = 1 
DOCKED: USER  
DOCKED: REMARK  Name = 
DOCKED: REMARK  10 active torsions:
DOCKED: REMARK  status: ('A' for Active; 'I' for Inactive)
DOCKED: REMARK    1  A    between atoms: C_2  and  C_5
DOCKED: REMARK    2  A    between atoms: C_6  and  C_7
DOCKED: REMARK    3  A    between atoms: C_10  and  C_11
DOCKED: REMARK    4  A    between atoms: C_11  and  N_12
DOCKED: REMARK    5  A    between atoms: N_12  and  C_13
DOCKED: REMARK    6  A    between atoms: N_12  and  C_16
DOCKED: REMARK    7  A    between atoms: C_13  and  C_14
DOCKED: REMARK    8  A    between atoms: C_14  and  O_15
DOCKED: REMARK    9  A    between atoms: C_16  and  C_17
DOCKED: REMARK   10  A    between atoms: C_17  and  C_18
DOCKED: REMARK                            x       y       z     vdW  Elec       q    Type
DOCKED: REMARK                         _______ _______ _______ _____ _____    ______ ____
DOCKED: USER                              x       y       z     vdW  Elec       q    Type
DOCKED: USER                           _______ _______ _______ _____ _____    ______ ____
DOCKED: ROOT
DOCKED: ATOM      1  N   UNL     1      19.910 -11.247  -5.495 -0.42 -0.00    +0.000 N 
DOCKED: ATOM      2  H   UNL     1      20.605 -11.984  -5.610 -0.35 -0.00    +0.000 HD
DOCKED: ENDROOT
DOCKED: BRANCH   1   3
DOCKED: ATOM      3  C   UNL     1      20.644 -10.011  -5.873 -0.31 -0.00    +0.000 C 
DOCKED: BRANCH   3   7
DOCKED: ATOM      4  C   UNL     1      24.565 -10.698  -7.609 -0.32 -0.00    +0.000 A 
DOCKED: ATOM      5  C   UNL     1      24.129  -9.396  -7.321 -0.24 -0.00    +0.000 A 
DOCKED: ATOM      6  C   UNL     1      22.868  -9.175  -6.760 -0.23 -0.00    +0.000 A 
DOCKED: ATOM      7  C   UNL     1      22.004 -10.250  -6.500 -0.32 -0.00    +0.000 A 
DOCKED: ATOM      8  C   UNL     1      22.443 -11.556  -6.775 -0.36 -0.00    +0.000 A 
DOCKED: ATOM      9  C   UNL     1      23.704 -11.779  -7.336 -0.45 -0.00    +0.000 A 
DOCKED: BRANCH   4  11
DOCKED: ATOM     10  C   UNL     1      27.026 -10.317  -7.731 -0.39 -0.00    +0.000 C 
DOCKED: ATOM     11  C   UNL     1      25.908 -10.879  -8.215 -0.41 -0.00    +0.000 C 
DOCKED: BRANCH  10  13
DOCKED: ATOM     12  O   UNL     1      29.397 -10.527  -7.677 -0.58 -0.00    +0.000 OA
DOCKED: ATOM     13  C   UNL     1      28.343 -10.513  -8.369 -0.48 -0.00    +0.000 C 
DOCKED: ATOM     14  N   UNL     1      28.425 -10.687  -9.786 -0.31 -0.00    +0.000 N 
DOCKED: ATOM     15  O   UNL     1      29.625 -10.868 -10.386 -0.37 -0.00    +0.000 OA
DOCKED: ATOM     16  H   UNL     1      27.603 -10.676 -10.329 -0.01 -0.00    +0.000 HD
DOCKED: ENDBRANCH  10  13
DOCKED: ENDBRANCH   4  11
DOCKED: ENDBRANCH   3   7
DOCKED: ENDBRANCH   1   3
DOCKED: BRANCH   1  17
DOCKED: ATOM     17  C   UNL     1      18.815 -11.631  -6.415 -0.21 -0.00    +0.000 C 
DOCKED: BRANCH  17  18
DOCKED: ATOM     18  C   UNL     1      17.448 -11.202  -5.875 -0.34 -0.00    +0.000 C 
DOCKED: BRANCH  18  19
DOCKED: ATOM     19  O   UNL     1      16.435 -11.936  -6.505 -0.39 -0.00    +0.000 OA
DOCKED: ATOM     20  H   UNL     1      16.820 -12.473  -7.216 -0.05 -0.00    +0.000 HD
DOCKED: ENDBRANCH  18  19
DOCKED: ENDBRANCH  17  18
DOCKED: ENDBRANCH   1  17
DOCKED: BRANCH   1  21
DOCKED: ATOM     21  C   UNL     1      19.506 -11.282  -4.069 -0.46 -0.00    +0.000 C 
DOCKED: BRANCH  21  22
DOCKED: ATOM     22  C   UNL     1      20.235 -10.191  -3.278 -0.46 -0.00    +0.000 C 
DOCKED: BRANCH  22  23
DOCKED: ATOM     23  C   UNL     1      20.458 -10.618  -1.856 -0.44 -0.00    +0.000 A 
DOCKED: ATOM     24  C   UNL     1      21.648 -10.516  -1.143 -0.50 -0.00    +0.000 A 
DOCKED: ATOM     25  N   UNL     1      21.458 -10.868   0.148 -0.64 -0.00    +0.000 N 
DOCKED: ATOM     26  C   UNL     1      20.155 -11.177   0.261 -0.57 -0.00    +0.000 A 
DOCKED: ATOM     27  C   UNL     1      19.509 -11.033  -0.941 -0.42 -0.00    +0.000 A 
DOCKED: ATOM     28  C   UNL     1      18.138 -11.264  -1.070 -0.35 -0.00    +0.000 A 
DOCKED: ATOM     29  C   UNL     1      17.428 -11.655   0.079 -0.42 -0.00    +0.000 A 
DOCKED: ATOM     30  C   UNL     1      18.093 -11.804   1.316 -0.47 -0.00    +0.000 A 
DOCKED: ATOM     31  C   UNL     1      19.474 -11.561   1.416 -0.61 -0.00    +0.000 A 
DOCKED: ATOM     32  H   UNL     1      22.136 -10.894   0.862 -0.40 -0.00    +0.000 HD
DOCKED: ENDBRANCH  22  23
DOCKED: ENDBRANCH  21  22
DOCKED: ENDBRANCH   1  21
DOCKED: TORSDOF 10
DOCKED: TER
DOCKED: ENDMDL
________________________________________________________________________________


	BEGINNING GENETIC ALGORITHM DOCKING 20 of 100
Run: 20 Seed: 359015364 606026019 [ Run 20 of 100 GA/GALS ]
Beginning LAMARCKIAN GENETIC ALGORITHM (LGA), with a maximum of 2500000 energy evaluations.

Final-Value: -15.527


	FINAL GENETIC ALGORITHM DOCKED STATE
	_______________________________________________


Detailed state:  trans 20.206 -9.560 -5.043 quatxyzw 0.511569 0.453307 -0.388043 0.618250 center 0.288 0.007 -0.056 ntor 10 8.8260 -7.2528 6.6629 -155.7173 -63.2393 -179.0807 -95.9985 -179.3907 -179.9295 -175.4571
State:	 20.206  -9.560  -5.043   0.651  0.577 -0.494 103.623      8.83   -7.25    6.66 -155.72  -63.24 -179.08  -96.00 -179.39 -179.93 -175.46

DOCKED: MODEL       20
DOCKED: USER    Run = 20
DOCKED: USER    DPF = ligand_dock.biased.dpf
DOCKED: USER  
DOCKED: USER    Estimated Free Energy of Binding    =  -10.43 kcal/mol  [=(1)+(2)+(3)-(4)]
DOCKED: USER    Estimated Inhibition Constant, Ki   =   22.78 nM (nanomolar)  [Temperature = 298.15 K]
DOCKED: USER    
DOCKED: USER    (1) Final Intermolecular Energy     =  -13.41 kcal/mol
DOCKED: USER        vdW + Hbond + desolv Energy     =  -13.41 kcal/mol
DOCKED: USER        Electrostatic Energy            =   +0.00 kcal/mol
DOCKED: USER    (2) Final Total Internal Energy     =   -2.12 kcal/mol
DOCKED: USER    (3) Torsional Free Energy           =   +2.98 kcal/mol
DOCKED: USER    (4) Unbound System's Energy  [=(2)] =   -2.12 kcal/mol
DOCKED: USER    
DOCKED: USER    
DOCKED: USER    NEWDPF move ligand.pdbqt
DOCKED: USER    NEWDPF about 0.288000 0.007000 -0.056000
DOCKED: USER    NEWDPF tran0 20.205566 -9.559554 -5.042771
DOCKED: USER    NEWDPF quaternion0 0.511569 0.453307 -0.388043 0.618250
DOCKED: USER    NEWDPF axisangle0 0.650866 0.576740 -0.493705 103.623053
DOCKED: USER    NEWDPF quat0 0.650866 0.576740 -0.493705 103.623053
DOCKED: USER    NEWDPF dihe0 8.83 -7.25 6.66 -155.72 -63.24 -179.08 -96.00 -179.39 -179.93 -175.46 
DOCKED: USER  keepresnum = 1 
DOCKED: USER  
DOCKED: REMARK  Name = 
DOCKED: REMARK  10 active torsions:
DOCKED: REMARK  status: ('A' for Active; 'I' for Inactive)
DOCKED: REMARK    1  A    between atoms: C_2  and  C_5
DOCKED: REMARK    2  A    between atoms: C_6  and  C_7
DOCKED: REMARK    3  A    between atoms: C_10  and  C_11
DOCKED: REMARK    4  A    between atoms: C_11  and  N_12
DOCKED: REMARK    5  A    between atoms: N_12  and  C_13
DOCKED: REMARK    6  A    between atoms: N_12  and  C_16
DOCKED: REMARK    7  A    between atoms: C_13  and  C_14
DOCKED: REMARK    8  A    between atoms: C_14  and  O_15
DOCKED: REMARK    9  A    between atoms: C_16  and  C_17
DOCKED: REMARK   10  A    between atoms: C_17  and  C_18
DOCKED: REMARK                            x       y       z     vdW  Elec       q    Type
DOCKED: REMARK                         _______ _______ _______ _____ _____    ______ ____
DOCKED: USER                              x       y       z     vdW  Elec       q    Type
DOCKED: USER                           _______ _______ _______ _____ _____    ______ ____
DOCKED: ROOT
DOCKED: ATOM      1  N   UNL     1      19.835 -10.839  -4.955 -0.38 -0.00    +0.000 N 
DOCKED: ATOM      2  H   UNL     1      19.827 -11.722  -5.466 -0.11 -0.00    +0.000 HD
DOCKED: ENDROOT
DOCKED: BRANCH   1   3
DOCKED: ATOM      3  C   UNL     1      20.955 -10.085  -5.577 -0.36 -0.00    +0.000 C 
DOCKED: BRANCH   3   7
DOCKED: ATOM      4  C   UNL     1      23.031 -12.288  -8.692 -0.35 -0.00    +0.000 A 
DOCKED: ATOM      5  C   UNL     1      23.418 -12.412  -7.349 -0.39 -0.00    +0.000 A 
DOCKED: ATOM      6  C   UNL     1      22.748 -11.705  -6.347 -0.40 -0.00    +0.000 A 
DOCKED: ATOM      7  C   UNL     1      21.694 -10.837  -6.668 -0.34 -0.00    +0.000 A 
DOCKED: ATOM      8  C   UNL     1      21.295 -10.721  -8.010 -0.23 -0.00    +0.000 A 
DOCKED: ATOM      9  C   UNL     1      21.963 -11.428  -9.014 -0.21 -0.00    +0.000 A 
DOCKED: BRANCH   4  11
DOCKED: ATOM     10  C   UNL     1      23.391 -14.242 -10.198 -0.47 +0.00    +0.000 C 
DOCKED: ATOM     11  C   UNL     1      23.781 -13.052  -9.720 -0.41 -0.00    +0.000 C 
DOCKED: BRANCH  10  13
DOCKED: ATOM     12  O   UNL     1      23.619 -15.836 -11.952 -0.81 +0.00    +0.000 OA
DOCKED: ATOM     13  C   UNL     1      24.171 -14.975 -11.214 -0.39 +0.00    +0.000 C 
DOCKED: ATOM     14  N   UNL     1      25.568 -14.709 -11.363 -0.31 -0.00    +0.000 N 
DOCKED: ATOM     15  O   UNL     1      26.298 -15.373 -12.290 -0.31 -0.00    +0.000 OA
DOCKED: ATOM     16  H   UNL     1      26.003 -14.038 -10.788 -0.57 -0.00    +0.000 HD
DOCKED: ENDBRANCH  10  13
DOCKED: ENDBRANCH   4  11
DOCKED: ENDBRANCH   3   7
DOCKED: ENDBRANCH   1   3
DOCKED: BRANCH   1  17
DOCKED: ATOM     17  C   UNL     1      18.489 -10.268  -5.190 -0.30 -0.00    +0.000 C 
DOCKED: BRANCH  17  18
DOCKED: ATOM     18  C   UNL     1      17.981 -10.582  -6.600 -0.31 -0.00    +0.000 C 
DOCKED: BRANCH  18  19
DOCKED: ATOM     19  O   UNL     1      18.169 -11.941  -6.882 -0.40 -0.00    +0.000 OA
DOCKED: ATOM     20  H   UNL     1      19.089 -12.186  -6.696 -0.21 -0.00    +0.000 HD
DOCKED: ENDBRANCH  18  19
DOCKED: ENDBRANCH  17  18
DOCKED: ENDBRANCH   1  17
DOCKED: BRANCH   1  21
DOCKED: ATOM     21  C   UNL     1      20.075 -11.188  -3.535 -0.43 -0.00    +0.000 C 
DOCKED: BRANCH  21  22
DOCKED: ATOM     22  C   UNL     1      19.491 -10.113  -2.612 -0.40 -0.00    +0.000 C 
DOCKED: BRANCH  22  23
DOCKED: ATOM     23  C   UNL     1      20.168 -10.130  -1.272 -0.48 -0.00    +0.000 A 
DOCKED: ATOM     24  C   UNL     1      21.183  -9.277  -0.852 -0.56 -0.00    +0.000 A 
DOCKED: ATOM     25  N   UNL     1      21.465  -9.485   0.454 -0.51 -0.00    +0.000 N 
DOCKED: ATOM     26  C   UNL     1      20.625 -10.451   0.866 -0.59 -0.00    +0.000 A 
DOCKED: ATOM     27  C   UNL     1      19.815 -10.869  -0.158 -0.52 -0.00    +0.000 A 
DOCKED: ATOM     28  C   UNL     1      18.835 -11.844   0.032 -0.48 -0.00    +0.000 A 
DOCKED: ATOM     29  C   UNL     1      18.699 -12.395   1.319 -0.50 -0.00    +0.000 A 
DOCKED: ATOM     30  C   UNL     1      19.534 -11.965   2.374 -0.63 -0.00    +0.000 A 
DOCKED: ATOM     31  C   UNL     1      20.511 -10.978   2.152 -0.61 -0.00    +0.000 A 
DOCKED: ATOM     32  H   UNL     1      22.145  -9.023   0.995 -0.42 -0.00    +0.000 HD
DOCKED: ENDBRANCH  22  23
DOCKED: ENDBRANCH  21  22
DOCKED: ENDBRANCH   1  21
DOCKED: TORSDOF 10
DOCKED: TER
DOCKED: ENDMDL
________________________________________________________________________________


	BEGINNING GENETIC ALGORITHM DOCKING 21 of 100
Run: 21 Seed: 2122132420 256022344 [ Run 21 of 100 GA/GALS ]
Beginning LAMARCKIAN GENETIC ALGORITHM (LGA), with a maximum of 2500000 energy evaluations.

Final-Value: -14.918


	FINAL GENETIC ALGORITHM DOCKED STATE
	_______________________________________________


Detailed state:  trans 22.372 -7.602 -6.545 quatxyzw 0.879214 0.434370 0.145254 -0.131174 center 0.288 0.007 -0.056 ntor 10 180.0000 -103.2108 54.4792 -11.5207 178.7732 -104.5225 -19.1466 47.0242 137.5206 167.6488
State:	 22.372  -7.602  -6.545   0.887  0.438  0.147 -164.925    180.00 -103.21   54.48  -11.52  178.77 -104.52  -19.15   47.02  137.52  167.65

DOCKED: MODEL       21
DOCKED: USER    Run = 21
DOCKED: USER    DPF = ligand_dock.biased.dpf
DOCKED: USER  
DOCKED: USER    Estimated Free Energy of Binding    =   -8.78 kcal/mol  [=(1)+(2)+(3)-(4)]
DOCKED: USER    Estimated Inhibition Constant, Ki   =  368.16 nM (nanomolar)  [Temperature = 298.15 K]
DOCKED: USER    
DOCKED: USER    (1) Final Intermolecular Energy     =  -11.76 kcal/mol
DOCKED: USER        vdW + Hbond + desolv Energy     =  -11.76 kcal/mol
DOCKED: USER        Electrostatic Energy            =   +0.00 kcal/mol
DOCKED: USER    (2) Final Total Internal Energy     =   -3.16 kcal/mol
DOCKED: USER    (3) Torsional Free Energy           =   +2.98 kcal/mol
DOCKED: USER    (4) Unbound System's Energy  [=(2)] =   -3.16 kcal/mol
DOCKED: USER    
DOCKED: USER    
DOCKED: USER    NEWDPF move ligand.pdbqt
DOCKED: USER    NEWDPF about 0.288000 0.007000 -0.056000
DOCKED: USER    NEWDPF tran0 22.371659 -7.602224 -6.544821
DOCKED: USER    NEWDPF quaternion0 0.879214 0.434370 0.145254 -0.131174
DOCKED: USER    NEWDPF axisangle0 0.886877 0.438156 0.146520 -164.925140
DOCKED: USER    NEWDPF quat0 0.886877 0.438156 0.146520 -164.925140
DOCKED: USER    NEWDPF dihe0 180.00 -103.21 54.48 -11.52 178.77 -104.52 -19.15 47.02 137.52 167.65 
DOCKED: USER  keepresnum = 1 
DOCKED: USER  
DOCKED: REMARK  Name = 
DOCKED: REMARK  10 active torsions:
DOCKED: REMARK  status: ('A' for Active; 'I' for Inactive)
DOCKED: REMARK    1  A    between atoms: C_2  and  C_5
DOCKED: REMARK    2  A    between atoms: C_6  and  C_7
DOCKED: REMARK    3  A    between atoms: C_10  and  C_11
DOCKED: REMARK    4  A    between atoms: C_11  and  N_12
DOCKED: REMARK    5  A    between atoms: N_12  and  C_13
DOCKED: REMARK    6  A    between atoms: N_12  and  C_16
DOCKED: REMARK    7  A    between atoms: C_13  and  C_14
DOCKED: REMARK    8  A    between atoms: C_14  and  O_15
DOCKED: REMARK    9  A    between atoms: C_16  and  C_17
DOCKED: REMARK   10  A    between atoms: C_17  and  C_18
DOCKED: REMARK                            x       y       z     vdW  Elec       q    Type
DOCKED: REMARK                         _______ _______ _______ _____ _____    ______ ____
DOCKED: USER                              x       y       z     vdW  Elec       q    Type
DOCKED: USER                           _______ _______ _______ _____ _____    ______ ____
DOCKED: ROOT
DOCKED: ATOM      1  N   UNL     1      21.396  -8.465  -6.838 -0.13 -0.00    +0.000 N 
DOCKED: ATOM      2  H   UNL     1      21.014  -9.379  -6.592 +0.01 -0.00    +0.000 HD
DOCKED: ENDROOT
DOCKED: BRANCH   1   3
DOCKED: ATOM      3  C   UNL     1      22.132  -8.052  -5.615 -0.22 -0.00    +0.000 C 
DOCKED: BRANCH   3   7
DOCKED: ATOM      4  C   UNL     1      20.941 -10.192  -2.029 -0.52 -0.00    +0.000 A 
DOCKED: ATOM      5  C   UNL     1      21.007  -8.791  -2.036 -0.47 -0.00    +0.000 A 
DOCKED: ATOM      6  C   UNL     1      21.388  -8.102  -3.191 -0.37 -0.00    +0.000 A 
DOCKED: ATOM      7  C   UNL     1      21.738  -8.801  -4.357 -0.27 -0.00    +0.000 A 
DOCKED: ATOM      8  C   UNL     1      21.660 -10.203  -4.357 -0.39 -0.00    +0.000 A 
DOCKED: ATOM      9  C   UNL     1      21.278 -10.894  -3.202 -0.37 -0.00    +0.000 A 
DOCKED: BRANCH   4  11
DOCKED: ATOM     10  C   UNL     1      20.645 -10.324   0.443 -0.68 -0.00    +0.000 C 
DOCKED: ATOM     11  C   UNL     1      20.542 -10.877  -0.774 -0.56 -0.00    +0.000 C 
DOCKED: BRANCH  10  13
DOCKED: ATOM     12  O   UNL     1      19.574 -12.108   1.601 -1.59 -0.00    +0.000 OA
DOCKED: ATOM     13  C   UNL     1      20.247 -11.043   1.669 -0.74 -0.00    +0.000 C 
DOCKED: ATOM     14  N   UNL     1      20.624 -10.527   2.947 -0.63 -0.00    +0.000 N 
DOCKED: ATOM     15  O   UNL     1      20.267 -11.174   4.082 -1.14 -0.00    +0.000 OA
DOCKED: ATOM     16  H   UNL     1      21.149  -9.695   3.004 -0.59 -0.00    +0.000 HD
DOCKED: ENDBRANCH  10  13
DOCKED: ENDBRANCH   4  11
DOCKED: ENDBRANCH   3   7
DOCKED: ENDBRANCH   1   3
DOCKED: BRANCH   1  17
DOCKED: ATOM     17  C   UNL     1      22.248  -8.732  -8.021 -0.13 -0.00    +0.000 C 
DOCKED: BRANCH  17  18
DOCKED: ATOM     18  C   UNL     1      22.003 -10.133  -8.588 -0.21 -0.00    +0.000 C 
DOCKED: BRANCH  18  19
DOCKED: ATOM     19  O   UNL     1      22.033 -11.077  -7.553 -0.36 -0.00    +0.000 OA
DOCKED: ATOM     20  H   UNL     1      21.179 -11.533  -7.507 -0.38 -0.00    +0.000 HD
DOCKED: ENDBRANCH  18  19
DOCKED: ENDBRANCH  17  18
DOCKED: ENDBRANCH   1  17
DOCKED: BRANCH   1  21
DOCKED: ATOM     21  C   UNL     1      20.232  -7.603  -7.148 -0.07 -0.00    +0.000 C 
DOCKED: BRANCH  21  22
DOCKED: ATOM     22  C   UNL     1      19.477  -7.239  -5.865 -0.11 -0.00    +0.000 C 
DOCKED: BRANCH  22  23
DOCKED: ATOM     23  C   UNL     1      18.576  -8.361  -5.437 -0.14 -0.00    +0.000 A 
DOCKED: ATOM     24  C   UNL     1      17.837  -8.419  -4.260 -0.12 -0.00    +0.000 A 
DOCKED: ATOM     25  N   UNL     1      17.033  -9.507  -4.259 -0.20 -0.00    +0.000 N 
DOCKED: ATOM     26  C   UNL     1      17.248 -10.128  -5.433 -0.21 -0.00    +0.000 A 
DOCKED: ATOM     27  C   UNL     1      18.180  -9.457  -6.182 -0.15 -0.00    +0.000 A 
DOCKED: ATOM     28  C   UNL     1      18.547  -9.890  -7.457 -0.19 -0.00    +0.000 A 
DOCKED: ATOM     29  C   UNL     1      17.928 -11.049  -7.960 -0.23 -0.00    +0.000 A 
DOCKED: ATOM     30  C   UNL     1      16.968 -11.740  -7.188 -0.33 -0.00    +0.000 A 
DOCKED: ATOM     31  C   UNL     1      16.616 -11.278  -5.907 -0.27 -0.00    +0.000 A 
DOCKED: ATOM     32  H   UNL     1      16.417  -9.789  -3.545 -0.01 -0.00    +0.000 HD
DOCKED: ENDBRANCH  22  23
DOCKED: ENDBRANCH  21  22
DOCKED: ENDBRANCH   1  21
DOCKED: TORSDOF 10
DOCKED: TER
DOCKED: ENDMDL
________________________________________________________________________________


	BEGINNING GENETIC ALGORITHM DOCKING 22 of 100
Run: 22 Seed: 1809771738 1144183383 [ Run 22 of 100 GA/GALS ]
Beginning LAMARCKIAN GENETIC ALGORITHM (LGA), with a maximum of 2500000 energy evaluations.

Final-Value: -13.641


	FINAL GENETIC ALGORITHM DOCKED STATE
	_______________________________________________


Detailed state:  trans 11.847 -10.613 -0.272 quatxyzw -0.923821 0.230141 0.035720 -0.303833 center 0.288 0.007 -0.056 ntor 10 -13.7283 -68.0042 29.6978 58.2494 102.3966 -73.1653 -99.4611 -179.4601 -5.1211 33.0500
State:	 11.847 -10.613  -0.272  -0.970  0.242  0.037 -144.624    -13.73  -68.00   29.70   58.25  102.40  -73.17  -99.46 -179.46   -5.12   33.05

DOCKED: MODEL       22
DOCKED: USER    Run = 22
DOCKED: USER    DPF = ligand_dock.biased.dpf
DOCKED: USER  
DOCKED: USER    Estimated Free Energy of Binding    =   -7.94 kcal/mol  [=(1)+(2)+(3)-(4)]
DOCKED: USER    Estimated Inhibition Constant, Ki   =    1.50 uM (micromolar)  [Temperature = 298.15 K]
DOCKED: USER    
DOCKED: USER    (1) Final Intermolecular Energy     =  -10.93 kcal/mol
DOCKED: USER        vdW + Hbond + desolv Energy     =  -10.93 kcal/mol
DOCKED: USER        Electrostatic Energy            =   +0.00 kcal/mol
DOCKED: USER    (2) Final Total Internal Energy     =   -2.71 kcal/mol
DOCKED: USER    (3) Torsional Free Energy           =   +2.98 kcal/mol
DOCKED: USER    (4) Unbound System's Energy  [=(2)] =   -2.71 kcal/mol
DOCKED: USER    
DOCKED: USER    
DOCKED: USER    NEWDPF move ligand.pdbqt
DOCKED: USER    NEWDPF about 0.288000 0.007000 -0.056000
DOCKED: USER    NEWDPF tran0 11.846984 -10.613192 -0.271966
DOCKED: USER    NEWDPF quaternion0 -0.923821 0.230141 0.035720 -0.303833
DOCKED: USER    NEWDPF axisangle0 -0.969661 0.241561 0.037492 -144.624088
DOCKED: USER    NEWDPF quat0 -0.969661 0.241561 0.037492 -144.624088
DOCKED: USER    NEWDPF dihe0 -13.73 -68.00 29.70 58.25 102.40 -73.17 -99.46 -179.46 -5.12 33.05 
DOCKED: USER  keepresnum = 1 
DOCKED: USER  
DOCKED: REMARK  Name = 
DOCKED: REMARK  10 active torsions:
DOCKED: REMARK  status: ('A' for Active; 'I' for Inactive)
DOCKED: REMARK    1  A    between atoms: C_2  and  C_5
DOCKED: REMARK    2  A    between atoms: C_6  and  C_7
DOCKED: REMARK    3  A    between atoms: C_10  and  C_11
DOCKED: REMARK    4  A    between atoms: C_11  and  N_12
DOCKED: REMARK    5  A    between atoms: N_12  and  C_13
DOCKED: REMARK    6  A    between atoms: N_12  and  C_16
DOCKED: REMARK    7  A    between atoms: C_13  and  C_14
DOCKED: REMARK    8  A    between atoms: C_14  and  O_15
DOCKED: REMARK    9  A    between atoms: C_16  and  C_17
DOCKED: REMARK   10  A    between atoms: C_17  and  C_18
DOCKED: REMARK                            x       y       z     vdW  Elec       q    Type
DOCKED: REMARK                         _______ _______ _______ _____ _____    ______ ____
DOCKED: USER                              x       y       z     vdW  Elec       q    Type
DOCKED: USER                           _______ _______ _______ _____ _____    ______ ____
DOCKED: ROOT
DOCKED: ATOM      1  N   UNL     1      10.824  -9.872   0.161 -0.17 +0.00    +0.000 N 
DOCKED: ATOM      2  H   UNL     1       9.829  -9.905   0.382 -0.00 +0.00    +0.000 HD
DOCKED: ENDROOT
DOCKED: BRANCH   1   3
DOCKED: ATOM      3  C   UNL     1      11.264 -11.284   0.305 -0.35 +0.00    +0.000 C 
DOCKED: BRANCH   3   7
DOCKED: ATOM      4  C   UNL     1      15.443 -11.845   1.346 -0.41 +0.00    +0.000 A 
DOCKED: ATOM      5  C   UNL     1      14.476 -11.662   2.345 -0.43 +0.00    +0.000 A 
DOCKED: ATOM      6  C   UNL     1      13.130 -11.485   2.011 -0.34 +0.00    +0.000 A 
DOCKED: ATOM      7  C   UNL     1      12.726 -11.457   0.667 -0.37 +0.00    +0.000 A 
DOCKED: ATOM      8  C   UNL     1      13.691 -11.653  -0.336 -0.36 +0.00    +0.000 A 
DOCKED: ATOM      9  C   UNL     1      15.037 -11.832  -0.003 -0.39 +0.00    +0.000 A 
DOCKED: BRANCH   4  11
DOCKED: ATOM     10  C   UNL     1      17.764 -11.028   1.747 -0.49 +0.00    +0.000 C 
DOCKED: ATOM     11  C   UNL     1      16.860 -12.019   1.752 -0.32 +0.00    +0.000 C 
DOCKED: BRANCH  10  13
DOCKED: ATOM     12  O   UNL     1      19.878 -12.109   1.568 -1.71 -0.00    +0.000 OA
DOCKED: ATOM     13  C   UNL     1      19.168 -11.244   2.149 -0.66 -0.00    +0.000 C 
DOCKED: ATOM     14  N   UNL     1      19.729 -10.465   3.208 -0.66 -0.00    +0.000 N 
DOCKED: ATOM     15  O   UNL     1      21.015 -10.651   3.590 -0.95 -0.00    +0.000 OA
DOCKED: ATOM     16  H   UNL     1      19.177  -9.789   3.664 -0.10 -0.00    +0.000 HD
DOCKED: ENDBRANCH  10  13
DOCKED: ENDBRANCH   4  11
DOCKED: ENDBRANCH   3   7
DOCKED: ENDBRANCH   1   3
DOCKED: BRANCH   1  17
DOCKED: ATOM     17  C   UNL     1      10.873  -9.339  -1.220 -0.17 -0.00    +0.000 C 
DOCKED: BRANCH  17  18
DOCKED: ATOM     18  C   UNL     1       9.490  -9.346  -1.877 -0.13 -0.00    +0.000 C 
DOCKED: BRANCH  18  19
DOCKED: ATOM     19  O   UNL     1       8.606 -10.122  -1.117 -0.17 -0.00    +0.000 OA
DOCKED: ATOM     20  H   UNL     1       8.811 -11.061  -1.242 -0.02 -0.00    +0.000 HD
DOCKED: ENDBRANCH  18  19
DOCKED: ENDBRANCH  17  18
DOCKED: ENDBRANCH   1  17
DOCKED: BRANCH   1  21
DOCKED: ATOM     21  C   UNL     1      11.436  -8.958   1.154 -0.12 +0.00    +0.000 C 
DOCKED: BRANCH  21  22
DOCKED: ATOM     22  C   UNL     1      12.712  -8.326   0.587 -0.12 +0.00    +0.000 C 
DOCKED: BRANCH  22  23
DOCKED: ATOM     23  C   UNL     1      13.581  -7.792   1.689 -0.17 +0.00    +0.000 A 
DOCKED: ATOM     24  C   UNL     1      14.513  -6.765   1.578 -0.16 +0.00    +0.000 A 
DOCKED: ATOM     25  N   UNL     1      15.018  -6.451   2.792 -0.26 +0.00    +0.000 N 
DOCKED: ATOM     26  C   UNL     1      14.401  -7.260   3.672 -0.27 +0.00    +0.000 A 
DOCKED: ATOM     27  C   UNL     1      13.513  -8.091   3.037 -0.18 +0.00    +0.000 A 
DOCKED: ATOM     28  C   UNL     1      12.726  -9.001   3.745 -0.22 +0.00    +0.000 A 
DOCKED: ATOM     29  C   UNL     1      12.870  -9.045   5.143 -0.34 +0.00    +0.000 A 
DOCKED: ATOM     30  C   UNL     1      13.784  -8.190   5.796 -0.44 +0.00    +0.000 A 
DOCKED: ATOM     31  C   UNL     1      14.562  -7.280   5.057 -0.39 +0.00    +0.000 A 
DOCKED: ATOM     32  H   UNL     1      15.699  -5.769   2.993 -0.03 +0.00    +0.000 HD
DOCKED: ENDBRANCH  22  23
DOCKED: ENDBRANCH  21  22
DOCKED: ENDBRANCH   1  21
DOCKED: TORSDOF 10
DOCKED: TER
DOCKED: ENDMDL
________________________________________________________________________________


	BEGINNING GENETIC ALGORITHM DOCKING 23 of 100
Run: 23 Seed: 1553158271 13316306 [ Run 23 of 100 GA/GALS ]
Beginning LAMARCKIAN GENETIC ALGORITHM (LGA), with a maximum of 2500000 energy evaluations.

Final-Value: -14.166


	FINAL GENETIC ALGORITHM DOCKED STATE
	_______________________________________________


Detailed state:  trans 20.708 -8.852 -6.146 quatxyzw -0.153689 0.552222 0.818296 0.042675 center 0.288 0.007 -0.056 ntor 10 113.5706 170.0624 74.5371 78.7508 167.2992 119.4524 135.3868 -46.9122 -131.6994 -102.9372
State:	 20.708  -8.852  -6.146  -0.154  0.553  0.819 175.108    113.57  170.06   74.54   78.75  167.30  119.45  135.39  -46.91 -131.70 -102.94

DOCKED: MODEL       23
DOCKED: USER    Run = 23
DOCKED: USER    DPF = ligand_dock.biased.dpf
DOCKED: USER  
DOCKED: USER    Estimated Free Energy of Binding    =   -9.51 kcal/mol  [=(1)+(2)+(3)-(4)]
DOCKED: USER    Estimated Inhibition Constant, Ki   =  107.65 nM (nanomolar)  [Temperature = 298.15 K]
DOCKED: USER    
DOCKED: USER    (1) Final Intermolecular Energy     =  -12.49 kcal/mol
DOCKED: USER        vdW + Hbond + desolv Energy     =  -12.49 kcal/mol
DOCKED: USER        Electrostatic Energy            =   +0.00 kcal/mol
DOCKED: USER    (2) Final Total Internal Energy     =   -1.68 kcal/mol
DOCKED: USER    (3) Torsional Free Energy           =   +2.98 kcal/mol
DOCKED: USER    (4) Unbound System's Energy  [=(2)] =   -1.68 kcal/mol
DOCKED: USER    
DOCKED: USER    
DOCKED: USER    NEWDPF move ligand.pdbqt
DOCKED: USER    NEWDPF about 0.288000 0.007000 -0.056000
DOCKED: USER    NEWDPF tran0 20.707838 -8.852217 -6.146186
DOCKED: USER    NEWDPF quaternion0 -0.153689 0.552222 0.818296 0.042675
DOCKED: USER    NEWDPF axisangle0 -0.153829 0.552726 0.819042 175.108350
DOCKED: USER    NEWDPF quat0 -0.153829 0.552726 0.819042 175.108350
DOCKED: USER    NEWDPF dihe0 113.57 170.06 74.54 78.75 167.30 119.45 135.39 -46.91 -131.70 -102.94 
DOCKED: USER  keepresnum = 1 
DOCKED: USER  
DOCKED: REMARK  Name = 
DOCKED: REMARK  10 active torsions:
DOCKED: REMARK  status: ('A' for Active; 'I' for Inactive)
DOCKED: REMARK    1  A    between atoms: C_2  and  C_5
DOCKED: REMARK    2  A    between atoms: C_6  and  C_7
DOCKED: REMARK    3  A    between atoms: C_10  and  C_11
DOCKED: REMARK    4  A    between atoms: C_11  and  N_12
DOCKED: REMARK    5  A    between atoms: N_12  and  C_13
DOCKED: REMARK    6  A    between atoms: N_12  and  C_16
DOCKED: REMARK    7  A    between atoms: C_13  and  C_14
DOCKED: REMARK    8  A    between atoms: C_14  and  O_15
DOCKED: REMARK    9  A    between atoms: C_16  and  C_17
DOCKED: REMARK   10  A    between atoms: C_17  and  C_18
DOCKED: REMARK                            x       y       z     vdW  Elec       q    Type
DOCKED: REMARK                         _______ _______ _______ _____ _____    ______ ____
DOCKED: USER                              x       y       z     vdW  Elec       q    Type
DOCKED: USER                           _______ _______ _______ _____ _____    ______ ____
DOCKED: ROOT
DOCKED: ATOM      1  N   UNL     1      21.972  -8.422  -6.160 -0.20 -0.00    +0.000 N 
DOCKED: ATOM      2  H   UNL     1      22.891  -8.579  -5.746 -0.02 -0.00    +0.000 HD
DOCKED: ENDROOT
DOCKED: BRANCH   1   3
DOCKED: ATOM      3  C   UNL     1      21.284  -9.729  -5.993 -0.31 -0.00    +0.000 C 
DOCKED: BRANCH   3   7
DOCKED: ATOM      4  C   UNL     1      20.165 -10.628  -1.894 -0.43 -0.00    +0.000 A 
DOCKED: ATOM      5  C   UNL     1      21.394 -10.017  -2.182 -0.50 -0.00    +0.000 A 
DOCKED: ATOM      6  C   UNL     1      21.753  -9.725  -3.500 -0.31 -0.00    +0.000 A 
DOCKED: ATOM      7  C   UNL     1      20.902 -10.064  -4.564 -0.38 -0.00    +0.000 A 
DOCKED: ATOM      8  C   UNL     1      19.665 -10.664  -4.278 -0.38 -0.00    +0.000 A 
DOCKED: ATOM      9  C   UNL     1      19.304 -10.957  -2.959 -0.36 -0.00    +0.000 A 
DOCKED: BRANCH   4  11
DOCKED: ATOM     10  C   UNL     1      20.746 -11.271   0.444 -0.64 -0.00    +0.000 C 
DOCKED: ATOM     11  C   UNL     1      19.835 -10.928  -0.478 -0.56 -0.00    +0.000 C 
DOCKED: BRANCH  10  13
DOCKED: ATOM     12  O   UNL     1      19.861 -12.682   2.145 -1.62 -0.00    +0.000 OA
DOCKED: ATOM     13  C   UNL     1      20.377 -11.572   1.841 -0.78 -0.00    +0.000 C 
DOCKED: ATOM     14  N   UNL     1      20.602 -10.595   2.859 -0.63 -0.00    +0.000 N 
DOCKED: ATOM     15  O   UNL     1      20.268 -10.855   4.146 -1.03 -0.00    +0.000 OA
DOCKED: ATOM     16  H   UNL     1      21.004  -9.727   2.625 -0.59 -0.00    +0.000 HD
DOCKED: ENDBRANCH  10  13
DOCKED: ENDBRANCH   4  11
DOCKED: ENDBRANCH   3   7
DOCKED: ENDBRANCH   1   3
DOCKED: BRANCH   1  17
DOCKED: ATOM     17  C   UNL     1      21.401  -7.308  -5.368 -0.20 -0.00    +0.000 C 
DOCKED: BRANCH  17  18
DOCKED: ATOM     18  C   UNL     1      22.488  -6.345  -4.883 -0.15 -0.00    +0.000 C 
DOCKED: BRANCH  18  19
DOCKED: ATOM     19  O   UNL     1      22.275  -6.026  -3.536 -0.27 -0.00    +0.000 OA
DOCKED: ATOM     20  H   UNL     1      22.199  -6.843  -3.018 -0.03 -0.00    +0.000 HD
DOCKED: ENDBRANCH  18  19
DOCKED: ENDBRANCH  17  18
DOCKED: ENDBRANCH   1  17
DOCKED: BRANCH   1  21
DOCKED: ATOM     21  C   UNL     1      22.214  -8.058  -7.576 -0.12 -0.00    +0.000 C 
DOCKED: BRANCH  21  22
DOCKED: ATOM     22  C   UNL     1      23.645  -7.539  -7.759 -0.13 -0.00    +0.000 C 
DOCKED: BRANCH  22  23
DOCKED: ATOM     23  C   UNL     1      24.635  -8.666  -7.703 -0.20 -0.00    +0.000 A 
DOCKED: ATOM     24  C   UNL     1      24.461  -9.941  -8.229 -0.24 -0.00    +0.000 A 
DOCKED: ATOM     25  N   UNL     1      25.603 -10.659  -8.119 -0.37 -0.00    +0.000 N 
DOCKED: ATOM     26  C   UNL     1      26.501  -9.841  -7.542 -0.35 -0.00    +0.000 A 
DOCKED: ATOM     27  C   UNL     1      25.949  -8.614  -7.276 -0.27 -0.00    +0.000 A 
DOCKED: ATOM     28  C   UNL     1      26.697  -7.581  -6.707 -0.24 -0.00    +0.000 A 
DOCKED: ATOM     29  C   UNL     1      28.047  -7.836  -6.408 -0.33 -0.00    +0.000 A 
DOCKED: ATOM     30  C   UNL     1      28.615  -9.100  -6.681 -0.41 -0.00    +0.000 A 
DOCKED: ATOM     31  C   UNL     1      27.837 -10.120  -7.259 -0.42 -0.00    +0.000 A 
DOCKED: ATOM     32  H   UNL     1      25.748 -11.590  -8.403 -0.04 -0.00    +0.000 HD
DOCKED: ENDBRANCH  22  23
DOCKED: ENDBRANCH  21  22
DOCKED: ENDBRANCH   1  21
DOCKED: TORSDOF 10
DOCKED: TER
DOCKED: ENDMDL
________________________________________________________________________________


	BEGINNING GENETIC ALGORITHM DOCKING 24 of 100
Run: 24 Seed: 1500148270 1939662925 [ Run 24 of 100 GA/GALS ]
Beginning LAMARCKIAN GENETIC ALGORITHM (LGA), with a maximum of 2500000 energy evaluations.

Final-Value: -14.055


	FINAL GENETIC ALGORITHM DOCKED STATE
	_______________________________________________


Detailed state:  trans 13.477 -8.288 3.359 quatxyzw -0.116136 0.393044 0.684979 -0.602356 center 0.288 0.007 -0.056 ntor 10 -94.7235 -153.8296 -154.9347 -179.5410 -126.3121 -2.1966 -148.8843 -17.1606 -179.4701 86.5071
State:	 13.477  -8.288   3.359  -0.145  0.492  0.858 -105.922    -94.72 -153.83 -154.93 -179.54 -126.31   -2.20 -148.88  -17.16 -179.47   86.51

DOCKED: MODEL       24
DOCKED: USER    Run = 24
DOCKED: USER    DPF = ligand_dock.biased.dpf
DOCKED: USER  
DOCKED: USER    Estimated Free Energy of Binding    =   -8.71 kcal/mol  [=(1)+(2)+(3)-(4)]
DOCKED: USER    Estimated Inhibition Constant, Ki   =  409.96 nM (nanomolar)  [Temperature = 298.15 K]
DOCKED: USER    
DOCKED: USER    (1) Final Intermolecular Energy     =  -11.70 kcal/mol
DOCKED: USER        vdW + Hbond + desolv Energy     =  -11.70 kcal/mol
DOCKED: USER        Electrostatic Energy            =   +0.00 kcal/mol
DOCKED: USER    (2) Final Total Internal Energy     =   -2.36 kcal/mol
DOCKED: USER    (3) Torsional Free Energy           =   +2.98 kcal/mol
DOCKED: USER    (4) Unbound System's Energy  [=(2)] =   -2.36 kcal/mol
DOCKED: USER    
DOCKED: USER    
DOCKED: USER    NEWDPF move ligand.pdbqt
DOCKED: USER    NEWDPF about 0.288000 0.007000 -0.056000
DOCKED: USER    NEWDPF tran0 13.476571 -8.287603 3.358556
DOCKED: USER    NEWDPF quaternion0 -0.116136 0.393044 0.684979 -0.602356
DOCKED: USER    NEWDPF axisangle0 -0.145493 0.492396 0.858124 -105.922373
DOCKED: USER    NEWDPF quat0 -0.145493 0.492396 0.858124 -105.922373
DOCKED: USER    NEWDPF dihe0 -94.72 -153.83 -154.93 -179.54 -126.31 -2.20 -148.88 -17.16 -179.47 86.51 
DOCKED: USER  keepresnum = 1 
DOCKED: USER  
DOCKED: REMARK  Name = 
DOCKED: REMARK  10 active torsions:
DOCKED: REMARK  status: ('A' for Active; 'I' for Inactive)
DOCKED: REMARK    1  A    between atoms: C_2  and  C_5
DOCKED: REMARK    2  A    between atoms: C_6  and  C_7
DOCKED: REMARK    3  A    between atoms: C_10  and  C_11
DOCKED: REMARK    4  A    between atoms: C_11  and  N_12
DOCKED: REMARK    5  A    between atoms: N_12  and  C_13
DOCKED: REMARK    6  A    between atoms: N_12  and  C_16
DOCKED: REMARK    7  A    between atoms: C_13  and  C_14
DOCKED: REMARK    8  A    between atoms: C_14  and  O_15
DOCKED: REMARK    9  A    between atoms: C_16  and  C_17
DOCKED: REMARK   10  A    between atoms: C_17  and  C_18
DOCKED: REMARK                            x       y       z     vdW  Elec       q    Type
DOCKED: REMARK                         _______ _______ _______ _____ _____    ______ ____
DOCKED: USER                              x       y       z     vdW  Elec       q    Type
DOCKED: USER                           _______ _______ _______ _____ _____    ______ ____
DOCKED: ROOT
DOCKED: ATOM      1  N   UNL     1      14.078  -9.252   4.060 -0.34 +0.00    +0.000 N 
DOCKED: ATOM      2  H   UNL     1      13.901 -10.099   4.599 -0.03 +0.00    +0.000 HD
DOCKED: ENDROOT
DOCKED: BRANCH   1   3
DOCKED: ATOM      3  C   UNL     1      12.898  -9.154   3.162 -0.24 +0.00    +0.000 C 
DOCKED: BRANCH   3   7
DOCKED: ATOM      4  C   UNL     1      13.639 -10.601  -0.865 -0.26 +0.00    +0.000 A 
DOCKED: ATOM      5  C   UNL     1      13.918  -9.270  -0.521 -0.19 -0.00    +0.000 A 
DOCKED: ATOM      6  C   UNL     1      13.682  -8.805   0.775 -0.17 +0.00    +0.000 A 
DOCKED: ATOM      7  C   UNL     1      13.135  -9.654   1.750 -0.19 +0.00    +0.000 A 
DOCKED: ATOM      8  C   UNL     1      12.866 -10.990   1.412 -0.33 +0.00    +0.000 A 
DOCKED: ATOM      9  C   UNL     1      13.102 -11.458   0.116 -0.35 +0.00    +0.000 A 
DOCKED: BRANCH   4  11
DOCKED: ATOM     10  C   UNL     1      14.890 -10.566  -3.021 -0.29 -0.00    +0.000 C 
DOCKED: ATOM     11  C   UNL     1      13.896 -11.044  -2.259 -0.33 -0.00    +0.000 C 
DOCKED: BRANCH  10  13
DOCKED: ATOM     12  O   UNL     1      16.043 -10.545  -5.104 -0.24 -0.00    +0.000 OA
DOCKED: ATOM     13  C   UNL     1      15.107 -11.025  -4.407 -0.26 -0.00    +0.000 C 
DOCKED: ATOM     14  N   UNL     1      14.249 -12.021  -4.967 -0.29 -0.00    +0.000 N 
DOCKED: ATOM     15  O   UNL     1      14.434 -12.452  -6.237 -0.38 -0.00    +0.000 OA
DOCKED: ATOM     16  H   UNL     1      13.517 -12.397  -4.425 -0.44 -0.00    +0.000 HD
DOCKED: ENDBRANCH  10  13
DOCKED: ENDBRANCH   4  11
DOCKED: ENDBRANCH   3   7
DOCKED: ENDBRANCH   1   3
DOCKED: BRANCH   1  17
DOCKED: ATOM     17  C   UNL     1      14.177  -8.184   5.082 -0.44 +0.00    +0.000 C 
DOCKED: BRANCH  17  18
DOCKED: ATOM     18  C   UNL     1      14.851  -6.928   4.521 -0.43 +0.00    +0.000 C 
DOCKED: BRANCH  18  19
DOCKED: ATOM     19  O   UNL     1      16.200  -6.904   4.897 -0.47 +0.00    +0.000 OA
DOCKED: ATOM     20  H   UNL     1      16.518  -5.988   4.903 -0.62 -0.00    +0.000 HD
DOCKED: ENDBRANCH  18  19
DOCKED: ENDBRANCH  17  18
DOCKED: ENDBRANCH   1  17
DOCKED: BRANCH   1  21
DOCKED: ATOM     21  C   UNL     1      15.352  -9.482   3.339 -0.42 +0.00    +0.000 C 
DOCKED: BRANCH  21  22
DOCKED: ATOM     22  C   UNL     1      15.805 -10.937   3.500 -0.54 +0.00    +0.000 C 
DOCKED: BRANCH  22  23
DOCKED: ATOM     23  C   UNL     1      16.586 -11.391   2.302 -0.35 +0.00    +0.000 A 
DOCKED: ATOM     24  C   UNL     1      16.057 -11.875   1.110 -0.41 +0.00    +0.000 A 
DOCKED: ATOM     25  N   UNL     1      17.039 -12.064   0.199 -0.44 +0.00    +0.000 N 
DOCKED: ATOM     26  C   UNL     1      18.181 -11.688   0.800 -0.48 -0.00    +0.000 A 
DOCKED: ATOM     27  C   UNL     1      17.946 -11.267   2.084 -0.44 +0.00    +0.000 A 
DOCKED: ATOM     28  C   UNL     1      18.974 -10.794   2.902 -0.56 -0.00    +0.000 A 
DOCKED: ATOM     29  C   UNL     1      20.275 -10.762   2.367 -0.61 -0.00    +0.000 A 
DOCKED: ATOM     30  C   UNL     1      20.517 -11.196   1.045 -0.65 -0.00    +0.000 A 
DOCKED: ATOM     31  C   UNL     1      19.460 -11.664   0.244 -0.53 -0.00    +0.000 A 
DOCKED: ATOM     32  H   UNL     1      16.938 -12.406  -0.718 -0.01 +0.00    +0.000 HD
DOCKED: ENDBRANCH  22  23
DOCKED: ENDBRANCH  21  22
DOCKED: ENDBRANCH   1  21
DOCKED: TORSDOF 10
DOCKED: TER
DOCKED: ENDMDL
________________________________________________________________________________


	BEGINNING GENETIC ALGORITHM DOCKING 25 of 100
Run: 25 Seed: 572818146 1188853379 [ Run 25 of 100 GA/GALS ]
Beginning LAMARCKIAN GENETIC ALGORITHM (LGA), with a maximum of 2500000 energy evaluations.

Final-Value: -13.524


	FINAL GENETIC ALGORITHM DOCKED STATE
	_______________________________________________


Detailed state:  trans 21.850 -5.790 -5.891 quatxyzw -0.058831 -0.712355 -0.634719 0.293634 center 0.288 0.007 -0.056 ntor 10 -2.3910 69.4466 -33.3336 180.0000 176.8321 -89.4392 178.3632 -71.2505 -176.6209 -160.3109
State:	 21.850  -5.790  -5.891  -0.062 -0.745 -0.664 145.849     -2.39   69.45  -33.33  180.00  176.83  -89.44  178.36  -71.25 -176.62 -160.31

DOCKED: MODEL       25
DOCKED: USER    Run = 25
DOCKED: USER    DPF = ligand_dock.biased.dpf
DOCKED: USER  
DOCKED: USER    Estimated Free Energy of Binding    =   -9.12 kcal/mol  [=(1)+(2)+(3)-(4)]
DOCKED: USER    Estimated Inhibition Constant, Ki   =  204.96 nM (nanomolar)  [Temperature = 298.15 K]
DOCKED: USER    
DOCKED: USER    (1) Final Intermolecular Energy     =  -12.11 kcal/mol
DOCKED: USER        vdW + Hbond + desolv Energy     =  -12.11 kcal/mol
DOCKED: USER        Electrostatic Energy            =   +0.00 kcal/mol
DOCKED: USER    (2) Final Total Internal Energy     =   -1.42 kcal/mol
DOCKED: USER    (3) Torsional Free Energy           =   +2.98 kcal/mol
DOCKED: USER    (4) Unbound System's Energy  [=(2)] =   -1.42 kcal/mol
DOCKED: USER    
DOCKED: USER    
DOCKED: USER    NEWDPF move ligand.pdbqt
DOCKED: USER    NEWDPF about 0.288000 0.007000 -0.056000
DOCKED: USER    NEWDPF tran0 21.849773 -5.790382 -5.891189
DOCKED: USER    NEWDPF quaternion0 -0.058831 -0.712355 -0.634719 0.293634
DOCKED: USER    NEWDPF axisangle0 -0.061544 -0.745205 -0.663989 145.848669
DOCKED: USER    NEWDPF quat0 -0.061544 -0.745205 -0.663989 145.848669
DOCKED: USER    NEWDPF dihe0 -2.39 69.45 -33.33 180.00 176.83 -89.44 178.36 -71.25 -176.62 -160.31 
DOCKED: USER  keepresnum = 1 
DOCKED: USER  
DOCKED: REMARK  Name = 
DOCKED: REMARK  10 active torsions:
DOCKED: REMARK  status: ('A' for Active; 'I' for Inactive)
DOCKED: REMARK    1  A    between atoms: C_2  and  C_5
DOCKED: REMARK    2  A    between atoms: C_6  and  C_7
DOCKED: REMARK    3  A    between atoms: C_10  and  C_11
DOCKED: REMARK    4  A    between atoms: C_11  and  N_12
DOCKED: REMARK    5  A    between atoms: N_12  and  C_13
DOCKED: REMARK    6  A    between atoms: N_12  and  C_16
DOCKED: REMARK    7  A    between atoms: C_13  and  C_14
DOCKED: REMARK    8  A    between atoms: C_14  and  O_15
DOCKED: REMARK    9  A    between atoms: C_16  and  C_17
DOCKED: REMARK   10  A    between atoms: C_17  and  C_18
DOCKED: REMARK                            x       y       z     vdW  Elec       q    Type
DOCKED: REMARK                         _______ _______ _______ _____ _____    ______ ____
DOCKED: USER                              x       y       z     vdW  Elec       q    Type
DOCKED: USER                           _______ _______ _______ _____ _____    ______ ____
DOCKED: ROOT
DOCKED: ATOM      1  N   UNL     1      23.005  -6.440  -5.731 -0.16 -0.00    +0.000 N 
DOCKED: ATOM      2  H   UNL     1      23.524  -7.032  -5.082 +0.02 -0.00    +0.000 HD
DOCKED: ENDROOT
DOCKED: BRANCH   1   3
DOCKED: ATOM      3  C   UNL     1      21.586  -6.662  -5.349 -0.18 -0.00    +0.000 C 
DOCKED: BRANCH   3   7
DOCKED: ATOM      4  C   UNL     1      21.095  -8.655  -1.522 -0.47 -0.00    +0.000 A 
DOCKED: ATOM      5  C   UNL     1      21.311  -9.398  -2.692 -0.45 -0.00    +0.000 A 
DOCKED: ATOM      6  C   UNL     1      21.472  -8.757  -3.923 -0.33 -0.00    +0.000 A 
DOCKED: ATOM      7  C   UNL     1      21.392  -7.358  -4.016 -0.29 -0.00    +0.000 A 
DOCKED: ATOM      8  C   UNL     1      21.188  -6.611  -2.844 -0.37 -0.00    +0.000 A 
DOCKED: ATOM      9  C   UNL     1      21.028  -7.251  -1.611 -0.29 -0.00    +0.000 A 
DOCKED: BRANCH   4  11
DOCKED: ATOM     10  C   UNL     1      20.499 -10.655  -0.157 -0.65 -0.00    +0.000 C 
DOCKED: ATOM     11  C   UNL     1      20.919  -9.384  -0.240 -0.60 -0.00    +0.000 C 
DOCKED: BRANCH  10  13
DOCKED: ATOM     12  O   UNL     1      19.906 -12.530   1.185 -1.44 -0.00    +0.000 OA
DOCKED: ATOM     13  C   UNL     1      20.326 -11.342   1.138 -0.73 -0.00    +0.000 C 
DOCKED: ATOM     14  N   UNL     1      20.636 -10.654   2.352 -0.62 -0.00    +0.000 N 
DOCKED: ATOM     15  O   UNL     1      20.483 -11.270   3.548 -1.30 -0.00    +0.000 OA
DOCKED: ATOM     16  H   UNL     1      20.964  -9.726   2.319 -0.57 -0.00    +0.000 HD
DOCKED: ENDBRANCH  10  13
DOCKED: ENDBRANCH   4  11
DOCKED: ENDBRANCH   3   7
DOCKED: ENDBRANCH   1   3
DOCKED: BRANCH   1  17
DOCKED: ATOM     17  C   UNL     1      23.517  -5.075  -5.470 -0.14 -0.00    +0.000 C 
DOCKED: BRANCH  17  18
DOCKED: ATOM     18  C   UNL     1      22.950  -4.499  -4.169 -0.18 -0.00    +0.000 C 
DOCKED: BRANCH  18  19
DOCKED: ATOM     19  O   UNL     1      23.997  -4.115  -3.322 -0.22 -0.00    +0.000 OA
DOCKED: ATOM     20  H   UNL     1      24.522  -4.894  -3.084 -0.01 -0.00    +0.000 HD
DOCKED: ENDBRANCH  18  19
DOCKED: ENDBRANCH  17  18
DOCKED: ENDBRANCH   1  17
DOCKED: BRANCH   1  21
DOCKED: ATOM     21  C   UNL     1      23.336  -6.931  -7.090 -0.13 -0.00    +0.000 C 
DOCKED: BRANCH  21  22
DOCKED: ATOM     22  C   UNL     1      24.845  -7.156  -7.226 -0.17 -0.00    +0.000 C 
DOCKED: BRANCH  22  23
DOCKED: ATOM     23  C   UNL     1      25.149  -8.602  -7.491 -0.22 -0.00    +0.000 A 
DOCKED: ATOM     24  C   UNL     1      26.409  -9.191  -7.493 -0.32 -0.00    +0.000 A 
DOCKED: ATOM     25  N   UNL     1      26.305 -10.532  -7.635 -0.39 -0.00    +0.000 N 
DOCKED: ATOM     26  C   UNL     1      24.989 -10.796  -7.706 -0.32 -0.00    +0.000 A 
DOCKED: ATOM     27  C   UNL     1      24.250  -9.644  -7.619 -0.25 -0.00    +0.000 A 
DOCKED: ATOM     28  C   UNL     1      22.854  -9.665  -7.635 -0.21 -0.00    +0.000 A 
DOCKED: ATOM     29  C   UNL     1      22.218 -10.914  -7.747 -0.30 -0.00    +0.000 A 
DOCKED: ATOM     30  C   UNL     1      22.978 -12.100  -7.837 -0.35 -0.00    +0.000 A 
DOCKED: ATOM     31  C   UNL     1      24.384 -12.048  -7.815 -0.40 -0.00    +0.000 A 
DOCKED: ATOM     32  H   UNL     1      27.042 -11.183  -7.677 -0.05 -0.00    +0.000 HD
DOCKED: ENDBRANCH  22  23
DOCKED: ENDBRANCH  21  22
DOCKED: ENDBRANCH   1  21
DOCKED: TORSDOF 10
DOCKED: TER
DOCKED: ENDMDL
________________________________________________________________________________


	BEGINNING GENETIC ALGORITHM DOCKING 26 of 100
Run: 26 Seed: 1360957593 331549232 [ Run 26 of 100 GA/GALS ]
Beginning LAMARCKIAN GENETIC ALGORITHM (LGA), with a maximum of 2500000 energy evaluations.

Final-Value: -15.805


	FINAL GENETIC ALGORITHM DOCKED STATE
	_______________________________________________


Detailed state:  trans 21.853 -9.674 -6.500 quatxyzw 0.504724 0.141558 0.591762 -0.612399 center 0.288 0.007 -0.056 ntor 10 -25.5497 -77.9885 110.9806 -39.5694 -55.5747 116.3668 169.9656 164.5869 -175.6389 -85.3015
State:	 21.853  -9.674  -6.500   0.638  0.179  0.749 -104.474    -25.55  -77.99  110.98  -39.57  -55.57  116.37  169.97  164.59 -175.64  -85.30

DOCKED: MODEL       26
DOCKED: USER    Run = 26
DOCKED: USER    DPF = ligand_dock.biased.dpf
DOCKED: USER  
DOCKED: USER    Estimated Free Energy of Binding    =  -10.99 kcal/mol  [=(1)+(2)+(3)-(4)]
DOCKED: USER    Estimated Inhibition Constant, Ki   =    8.82 nM (nanomolar)  [Temperature = 298.15 K]
DOCKED: USER    
DOCKED: USER    (1) Final Intermolecular Energy     =  -13.97 kcal/mol
DOCKED: USER        vdW + Hbond + desolv Energy     =  -13.97 kcal/mol
DOCKED: USER        Electrostatic Energy            =   +0.00 kcal/mol
DOCKED: USER    (2) Final Total Internal Energy     =   -1.83 kcal/mol
DOCKED: USER    (3) Torsional Free Energy           =   +2.98 kcal/mol
DOCKED: USER    (4) Unbound System's Energy  [=(2)] =   -1.83 kcal/mol
DOCKED: USER    
DOCKED: USER    
DOCKED: USER    NEWDPF move ligand.pdbqt
DOCKED: USER    NEWDPF about 0.288000 0.007000 -0.056000
DOCKED: USER    NEWDPF tran0 21.853437 -9.674358 -6.499564
DOCKED: USER    NEWDPF quaternion0 0.504724 0.141558 0.591762 -0.612399
DOCKED: USER    NEWDPF axisangle0 0.638448 0.179063 0.748546 -104.473604
DOCKED: USER    NEWDPF quat0 0.638448 0.179063 0.748546 -104.473604
DOCKED: USER    NEWDPF dihe0 -25.55 -77.99 110.98 -39.57 -55.57 116.37 169.97 164.59 -175.64 -85.30 
DOCKED: USER  keepresnum = 1 
DOCKED: USER  
DOCKED: REMARK  Name = 
DOCKED: REMARK  10 active torsions:
DOCKED: REMARK  status: ('A' for Active; 'I' for Inactive)
DOCKED: REMARK    1  A    between atoms: C_2  and  C_5
DOCKED: REMARK    2  A    between atoms: C_6  and  C_7
DOCKED: REMARK    3  A    between atoms: C_10  and  C_11
DOCKED: REMARK    4  A    between atoms: C_11  and  N_12
DOCKED: REMARK    5  A    between atoms: N_12  and  C_13
DOCKED: REMARK    6  A    between atoms: N_12  and  C_16
DOCKED: REMARK    7  A    between atoms: C_13  and  C_14
DOCKED: REMARK    8  A    between atoms: C_14  and  O_15
DOCKED: REMARK    9  A    between atoms: C_16  and  C_17
DOCKED: REMARK   10  A    between atoms: C_17  and  C_18
DOCKED: REMARK                            x       y       z     vdW  Elec       q    Type
DOCKED: REMARK                         _______ _______ _______ _____ _____    ______ ____
DOCKED: USER                              x       y       z     vdW  Elec       q    Type
DOCKED: USER                           _______ _______ _______ _____ _____    ______ ____
DOCKED: ROOT
DOCKED: ATOM      1  N   UNL     1      21.694 -10.739  -7.290 -0.30 -0.00    +0.000 N 
DOCKED: ATOM      2  H   UNL     1      21.043 -11.486  -7.529 -0.34 -0.00    +0.000 HD
DOCKED: ENDROOT
DOCKED: BRANCH   1   3
DOCKED: ATOM      3  C   UNL     1      20.819  -9.677  -6.729 -0.24 -0.00    +0.000 C 
DOCKED: BRANCH   3   7
DOCKED: ATOM      4  C   UNL     1      20.161 -10.028  -2.451 -0.43 -0.00    +0.000 A 
DOCKED: ATOM      5  C   UNL     1      19.387 -10.769  -3.356 -0.38 -0.00    +0.000 A 
DOCKED: ATOM      6  C   UNL     1      19.601 -10.658  -4.733 -0.36 -0.00    +0.000 A 
DOCKED: ATOM      7  C   UNL     1      20.575  -9.781  -5.237 -0.28 -0.00    +0.000 A 
DOCKED: ATOM      8  C   UNL     1      21.360  -9.048  -4.332 -0.33 -0.00    +0.000 A 
DOCKED: ATOM      9  C   UNL     1      21.148  -9.158  -2.954 -0.43 -0.00    +0.000 A 
DOCKED: BRANCH   4  11
DOCKED: ATOM     10  C   UNL     1      20.658 -10.883  -0.163 -0.65 -0.00    +0.000 C 
DOCKED: ATOM     11  C   UNL     1      19.888 -10.172  -0.999 -0.50 -0.00    +0.000 C 
DOCKED: BRANCH  10  13
DOCKED: ATOM     12  O   UNL     1      19.933 -10.019   1.934 -0.55 -0.00    +0.000 OA
DOCKED: ATOM     13  C   UNL     1      20.346 -11.011   1.275 -0.72 -0.00    +0.000 C 
DOCKED: ATOM     14  N   UNL     1      20.516 -12.272   1.927 -0.69 -0.00    +0.000 N 
DOCKED: ATOM     15  O   UNL     1      20.235 -12.406   3.245 -1.53 -0.00    +0.000 OA
DOCKED: ATOM     16  H   UNL     1      20.839 -13.049   1.415 -0.60 -0.00    +0.000 HD
DOCKED: ENDBRANCH  10  13
DOCKED: ENDBRANCH   4  11
DOCKED: ENDBRANCH   3   7
DOCKED: ENDBRANCH   1   3
DOCKED: BRANCH   1  17
DOCKED: ATOM     17  C   UNL     1      22.623 -11.361  -6.319 -0.43 -0.00    +0.000 C 
DOCKED: BRANCH  17  18
DOCKED: ATOM     18  C   UNL     1      23.511 -12.416  -6.984 -0.44 -0.00    +0.000 C 
DOCKED: BRANCH  18  19
DOCKED: ATOM     19  O   UNL     1      22.895 -12.891  -8.149 -0.43 -0.00    +0.000 OA
DOCKED: ATOM     20  H   UNL     1      22.288 -13.613  -7.922 -0.54 -0.00    +0.000 HD
DOCKED: ENDBRANCH  18  19
DOCKED: ENDBRANCH  17  18
DOCKED: ENDBRANCH   1  17
DOCKED: BRANCH   1  21
DOCKED: ATOM     21  C   UNL     1      22.358 -10.351  -8.557 -0.24 -0.00    +0.000 C 
DOCKED: BRANCH  21  22
DOCKED: ATOM     22  C   UNL     1      23.534  -9.408  -8.279 -0.19 -0.00    +0.000 C 
DOCKED: BRANCH  22  23
DOCKED: ATOM     23  C   UNL     1      24.844 -10.100  -8.521 -0.24 -0.00    +0.000 A 
DOCKED: ATOM     24  C   UNL     1      25.103 -11.053  -9.500 -0.24 -0.00    +0.000 A 
DOCKED: ATOM     25  N   UNL     1      26.419 -11.364  -9.522 -0.31 -0.00    +0.000 N 
DOCKED: ATOM     26  C   UNL     1      26.996 -10.604  -8.575 -0.36 -0.00    +0.000 A 
DOCKED: ATOM     27  C   UNL     1      26.068  -9.815  -7.944 -0.32 -0.00    +0.000 A 
DOCKED: ATOM     28  C   UNL     1      26.431  -8.912  -6.944 -0.32 -0.00    +0.000 A 
DOCKED: ATOM     29  C   UNL     1      27.791  -8.832  -6.595 -0.43 -0.00    +0.000 A 
DOCKED: ATOM     30  C   UNL     1      28.746  -9.645  -7.244 -0.46 -0.00    +0.000 A 
DOCKED: ATOM     31  C   UNL     1      28.351 -10.543  -8.251 -0.43 -0.00    +0.000 A 
DOCKED: ATOM     32  H   UNL     1      26.864 -12.015 -10.111 -0.26 -0.00    +0.000 HD
DOCKED: ENDBRANCH  22  23
DOCKED: ENDBRANCH  21  22
DOCKED: ENDBRANCH   1  21
DOCKED: TORSDOF 10
DOCKED: TER
DOCKED: ENDMDL
________________________________________________________________________________


	BEGINNING GENETIC ALGORITHM DOCKING 27 of 100
Run: 27 Seed: 878482682 1117366085 [ Run 27 of 100 GA/GALS ]
Beginning LAMARCKIAN GENETIC ALGORITHM (LGA), with a maximum of 2500000 energy evaluations.

Final-Value: -14.324


	FINAL GENETIC ALGORITHM DOCKED STATE
	_______________________________________________


Detailed state:  trans 20.073 -9.997 -5.243 quatxyzw -0.219781 -0.498517 -0.615172 -0.569860 center 0.288 0.007 -0.056 ntor 10 -23.1535 -31.3220 23.3900 123.9142 131.4169 -165.0616 -154.1572 98.0898 158.4267 -27.0775
State:	 20.073  -9.997  -5.243  -0.267 -0.607 -0.749 -110.519    -23.15  -31.32   23.39  123.91  131.42 -165.06 -154.16   98.09  158.43  -27.08

DOCKED: MODEL       27
DOCKED: USER    Run = 27
DOCKED: USER    DPF = ligand_dock.biased.dpf
DOCKED: USER  
DOCKED: USER    Estimated Free Energy of Binding    =   -8.79 kcal/mol  [=(1)+(2)+(3)-(4)]
DOCKED: USER    Estimated Inhibition Constant, Ki   =  363.14 nM (nanomolar)  [Temperature = 298.15 K]
DOCKED: USER    
DOCKED: USER    (1) Final Intermolecular Energy     =  -11.77 kcal/mol
DOCKED: USER        vdW + Hbond + desolv Energy     =  -11.77 kcal/mol
DOCKED: USER        Electrostatic Energy            =   +0.00 kcal/mol
DOCKED: USER    (2) Final Total Internal Energy     =   -2.56 kcal/mol
DOCKED: USER    (3) Torsional Free Energy           =   +2.98 kcal/mol
DOCKED: USER    (4) Unbound System's Energy  [=(2)] =   -2.56 kcal/mol
DOCKED: USER    
DOCKED: USER    
DOCKED: USER    NEWDPF move ligand.pdbqt
DOCKED: USER    NEWDPF about 0.288000 0.007000 -0.056000
DOCKED: USER    NEWDPF tran0 20.072605 -9.996995 -5.242839
DOCKED: USER    NEWDPF quaternion0 -0.219781 -0.498517 -0.615172 -0.569860
DOCKED: USER    NEWDPF axisangle0 -0.267458 -0.606658 -0.748620 -110.519074
DOCKED: USER    NEWDPF quat0 -0.267458 -0.606658 -0.748620 -110.519074
DOCKED: USER    NEWDPF dihe0 -23.15 -31.32 23.39 123.91 131.42 -165.06 -154.16 98.09 158.43 -27.08 
DOCKED: USER  keepresnum = 1 
DOCKED: USER  
DOCKED: REMARK  Name = 
DOCKED: REMARK  10 active torsions:
DOCKED: REMARK  status: ('A' for Active; 'I' for Inactive)
DOCKED: REMARK    1  A    between atoms: C_2  and  C_5
DOCKED: REMARK    2  A    between atoms: C_6  and  C_7
DOCKED: REMARK    3  A    between atoms: C_10  and  C_11
DOCKED: REMARK    4  A    between atoms: C_11  and  N_12
DOCKED: REMARK    5  A    between atoms: N_12  and  C_13
DOCKED: REMARK    6  A    between atoms: N_12  and  C_16
DOCKED: REMARK    7  A    between atoms: C_13  and  C_14
DOCKED: REMARK    8  A    between atoms: C_14  and  O_15
DOCKED: REMARK    9  A    between atoms: C_16  and  C_17
DOCKED: REMARK   10  A    between atoms: C_17  and  C_18
DOCKED: REMARK                            x       y       z     vdW  Elec       q    Type
DOCKED: REMARK                         _______ _______ _______ _____ _____    ______ ____
DOCKED: USER                              x       y       z     vdW  Elec       q    Type
DOCKED: USER                           _______ _______ _______ _____ _____    ______ ____
DOCKED: ROOT
DOCKED: ATOM      1  N   UNL     1      20.122  -9.414  -6.443 -0.16 -0.00    +0.000 N 
DOCKED: ATOM      2  H   UNL     1      20.757  -9.156  -7.199 +0.01 -0.00    +0.000 HD
DOCKED: ENDROOT
DOCKED: BRANCH   1   3
DOCKED: ATOM      3  C   UNL     1      20.822 -10.535  -5.764 -0.40 -0.00    +0.000 C 
DOCKED: BRANCH   3   7
DOCKED: ATOM      4  C   UNL     1      20.147 -10.686  -1.476 -0.44 -0.00    +0.000 A 
DOCKED: ATOM      5  C   UNL     1      21.398 -10.313  -1.991 -0.51 -0.00    +0.000 A 
DOCKED: ATOM      6  C   UNL     1      21.614 -10.262  -3.370 -0.40 -0.00    +0.000 A 
DOCKED: ATOM      7  C   UNL     1      20.592 -10.610  -4.267 -0.43 -0.00    +0.000 A 
DOCKED: ATOM      8  C   UNL     1      19.335 -10.971  -3.756 -0.37 -0.00    +0.000 A 
DOCKED: ATOM      9  C   UNL     1      19.116 -11.022  -2.376 -0.34 -0.00    +0.000 A 
DOCKED: BRANCH   4  11
DOCKED: ATOM     10  C   UNL     1      20.555 -11.647   0.787 -0.61 -0.00    +0.000 C 
DOCKED: ATOM     11  C   UNL     1      19.971 -10.735  -0.003 -0.61 -0.00    +0.000 C 
DOCKED: BRANCH  10  13
DOCKED: ATOM     12  O   UNL     1      19.892 -12.699   2.818 -1.50 -0.00    +0.000 OA
DOCKED: ATOM     13  C   UNL     1      20.347 -11.669   2.248 -0.77 -0.00    +0.000 C 
DOCKED: ATOM     14  N   UNL     1      20.660 -10.512   3.027 -0.61 -0.00    +0.000 N 
DOCKED: ATOM     15  O   UNL     1      20.474 -10.516   4.368 -0.78 -0.00    +0.000 OA
DOCKED: ATOM     16  H   UNL     1      21.015  -9.706   2.585 -0.59 -0.00    +0.000 HD
DOCKED: ENDBRANCH  10  13
DOCKED: ENDBRANCH   4  11
DOCKED: ENDBRANCH   3   7
DOCKED: ENDBRANCH   1   3
DOCKED: BRANCH   1  17
DOCKED: ATOM     17  C   UNL     1      19.991  -8.178  -5.638 -0.16 -0.00    +0.000 C 
DOCKED: BRANCH  17  18
DOCKED: ATOM     18  C   UNL     1      21.135  -7.200  -5.916 -0.15 -0.00    +0.000 C 
DOCKED: BRANCH  18  19
DOCKED: ATOM     19  O   UNL     1      21.681  -7.453  -7.181 -0.09 -0.00    +0.000 OA
DOCKED: ATOM     20  H   UNL     1      22.327  -8.173  -7.115 +0.00 -0.00    +0.000 HD
DOCKED: ENDBRANCH  18  19
DOCKED: ENDBRANCH  17  18
DOCKED: ENDBRANCH   1  17
DOCKED: BRANCH   1  21
DOCKED: ATOM     21  C   UNL     1      18.852  -9.817  -7.093 -0.22 -0.00    +0.000 C 
DOCKED: BRANCH  21  22
DOCKED: ATOM     22  C   UNL     1      18.464 -11.240  -6.676 -0.38 -0.00    +0.000 C 
DOCKED: BRANCH  22  23
DOCKED: ATOM     23  C   UNL     1      16.974 -11.375  -6.554 -0.32 -0.00    +0.000 A 
DOCKED: ATOM     24  C   UNL     1      16.150 -12.153  -7.361 -0.31 -0.00    +0.000 A 
DOCKED: ATOM     25  N   UNL     1      14.883 -12.148  -6.888 -0.31 -0.00    +0.000 N 
DOCKED: ATOM     26  C   UNL     1      14.903 -11.386  -5.780 -0.26 -0.00    +0.000 A 
DOCKED: ATOM     27  C   UNL     1      16.163 -10.899  -5.540 -0.24 -0.00    +0.000 A 
DOCKED: ATOM     28  C   UNL     1      16.444 -10.108  -4.426 -0.21 -0.00    +0.000 A 
DOCKED: ATOM     29  C   UNL     1      15.388  -9.818  -3.544 -0.21 -0.00    +0.000 A 
DOCKED: ATOM     30  C   UNL     1      14.091 -10.319  -3.790 -0.22 -0.00    +0.000 A 
DOCKED: ATOM     31  C   UNL     1      13.838 -11.117  -4.921 -0.22 -0.00    +0.000 A 
DOCKED: ATOM     32  H   UNL     1      14.104 -12.608  -7.275 -0.01 -0.00    +0.000 HD
DOCKED: ENDBRANCH  22  23
DOCKED: ENDBRANCH  21  22
DOCKED: ENDBRANCH   1  21
DOCKED: TORSDOF 10
DOCKED: TER
DOCKED: ENDMDL
________________________________________________________________________________


	BEGINNING GENETIC ALGORITHM DOCKING 28 of 100
Run: 28 Seed: 1992049646 49504239 [ Run 28 of 100 GA/GALS ]
Beginning LAMARCKIAN GENETIC ALGORITHM (LGA), with a maximum of 2500000 energy evaluations.

Final-Value: -14.683


	FINAL GENETIC ALGORITHM DOCKED STATE
	_______________________________________________


Detailed state:  trans 18.963 -10.946 1.858 quatxyzw -0.847636 -0.249589 -0.342915 0.318790 center 0.288 0.007 -0.056 ntor 10 122.6689 18.2854 -106.8967 173.9922 7.3662 24.1194 121.5347 -39.0100 -154.8220 119.7556
State:	 18.963 -10.946   1.858  -0.894 -0.263 -0.362 142.820    122.67   18.29 -106.90  173.99    7.37   24.12  121.53  -39.01 -154.82  119.76

DOCKED: MODEL       28
DOCKED: USER    Run = 28
DOCKED: USER    DPF = ligand_dock.biased.dpf
DOCKED: USER  
DOCKED: USER    Estimated Free Energy of Binding    =   -9.28 kcal/mol  [=(1)+(2)+(3)-(4)]
DOCKED: USER    Estimated Inhibition Constant, Ki   =  158.36 nM (nanomolar)  [Temperature = 298.15 K]
DOCKED: USER    
DOCKED: USER    (1) Final Intermolecular Energy     =  -12.26 kcal/mol
DOCKED: USER        vdW + Hbond + desolv Energy     =  -12.26 kcal/mol
DOCKED: USER        Electrostatic Energy            =   +0.00 kcal/mol
DOCKED: USER    (2) Final Total Internal Energy     =   -2.42 kcal/mol
DOCKED: USER    (3) Torsional Free Energy           =   +2.98 kcal/mol
DOCKED: USER    (4) Unbound System's Energy  [=(2)] =   -2.42 kcal/mol
DOCKED: USER    
DOCKED: USER    
DOCKED: USER    NEWDPF move ligand.pdbqt
DOCKED: USER    NEWDPF about 0.288000 0.007000 -0.056000
DOCKED: USER    NEWDPF tran0 18.963335 -10.946113 1.857652
DOCKED: USER    NEWDPF quaternion0 -0.847636 -0.249589 -0.342915 0.318790
DOCKED: USER    NEWDPF axisangle0 -0.894296 -0.263328 -0.361791 142.820426
DOCKED: USER    NEWDPF quat0 -0.894296 -0.263328 -0.361791 142.820426
DOCKED: USER    NEWDPF dihe0 122.67 18.29 -106.90 173.99 7.37 24.12 121.53 -39.01 -154.82 119.76 
DOCKED: USER  keepresnum = 1 
DOCKED: USER  
DOCKED: REMARK  Name = 
DOCKED: REMARK  10 active torsions:
DOCKED: REMARK  status: ('A' for Active; 'I' for Inactive)
DOCKED: REMARK    1  A    between atoms: C_2  and  C_5
DOCKED: REMARK    2  A    between atoms: C_6  and  C_7
DOCKED: REMARK    3  A    between atoms: C_10  and  C_11
DOCKED: REMARK    4  A    between atoms: C_11  and  N_12
DOCKED: REMARK    5  A    between atoms: N_12  and  C_13
DOCKED: REMARK    6  A    between atoms: N_12  and  C_16
DOCKED: REMARK    7  A    between atoms: C_13  and  C_14
DOCKED: REMARK    8  A    between atoms: C_14  and  O_15
DOCKED: REMARK    9  A    between atoms: C_16  and  C_17
DOCKED: REMARK   10  A    between atoms: C_17  and  C_18
DOCKED: REMARK                            x       y       z     vdW  Elec       q    Type
DOCKED: REMARK                         _______ _______ _______ _____ _____    ______ ____
DOCKED: USER                              x       y       z     vdW  Elec       q    Type
DOCKED: USER                           _______ _______ _______ _____ _____    ______ ____
DOCKED: ROOT
DOCKED: ATOM      1  N   UNL     1      18.069 -11.576   1.091 -0.46 -0.00    +0.000 N 
DOCKED: ATOM      2  H   UNL     1      17.350 -12.299   1.104 -0.02 +0.00    +0.000 HD
DOCKED: ENDROOT
DOCKED: BRANCH   1   3
DOCKED: ATOM      3  C   UNL     1      18.148 -11.134   2.508 -0.52 +0.00    +0.000 C 
DOCKED: BRANCH   3   7
DOCKED: ATOM      4  C   UNL     1      14.548  -9.166   3.934 -0.34 +0.00    +0.000 A 
DOCKED: ATOM      5  C   UNL     1      15.298  -8.612   2.886 -0.31 +0.00    +0.000 A 
DOCKED: ATOM      6  C   UNL     1      16.455  -9.247   2.425 -0.26 +0.00    +0.000 A 
DOCKED: ATOM      7  C   UNL     1      16.903 -10.436   3.022 -0.43 +0.00    +0.000 A 
DOCKED: ATOM      8  C   UNL     1      16.147 -10.999   4.063 -0.43 +0.00    +0.000 A 
DOCKED: ATOM      9  C   UNL     1      14.989 -10.366   4.525 -0.38 +0.00    +0.000 A 
DOCKED: BRANCH   4  11
DOCKED: ATOM     10  C   UNL     1      12.405  -8.991   5.195 -0.33 +0.00    +0.000 C 
DOCKED: ATOM     11  C   UNL     1      13.333  -8.448   4.395 -0.33 +0.00    +0.000 C 
DOCKED: BRANCH  10  13
DOCKED: ATOM     12  O   UNL     1      10.283  -8.824   6.262 -0.44 +0.00    +0.000 OA
DOCKED: ATOM     13  C   UNL     1      11.204  -8.246   5.624 -0.29 +0.00    +0.000 C 
DOCKED: ATOM     14  N   UNL     1      11.082  -6.857   5.310 -0.23 +0.00    +0.000 N 
DOCKED: ATOM     15  O   UNL     1       9.987  -6.160   5.695 -0.30 +0.00    +0.000 OA
DOCKED: ATOM     16  H   UNL     1      11.800  -6.403   4.811 -0.00 +0.00    +0.000 HD
DOCKED: ENDBRANCH  10  13
DOCKED: ENDBRANCH   4  11
DOCKED: ENDBRANCH   3   7
DOCKED: ENDBRANCH   1   3
DOCKED: BRANCH   1  17
DOCKED: ATOM     17  C   UNL     1      19.276 -12.270   0.585 -0.48 -0.00    +0.000 C 
DOCKED: BRANCH  17  18
DOCKED: ATOM     18  C   UNL     1      20.559 -11.668   1.165 -0.72 -0.00    +0.000 C 
DOCKED: BRANCH  18  19
DOCKED: ATOM     19  O   UNL     1      20.691 -12.036   2.510 -1.83 -0.00    +0.000 OA
DOCKED: ATOM     20  H   UNL     1      20.770 -13.001   2.575 -0.60 -0.00    +0.000 HD
DOCKED: ENDBRANCH  18  19
DOCKED: ENDBRANCH  17  18
DOCKED: ENDBRANCH   1  17
DOCKED: BRANCH   1  21
DOCKED: ATOM     21  C   UNL     1      17.579 -10.524   0.170 -0.29 -0.00    +0.000 C 
DOCKED: BRANCH  21  22
DOCKED: ATOM     22  C   UNL     1      16.395 -11.042  -0.654 -0.35 +0.00    +0.000 C 
DOCKED: BRANCH  22  23
DOCKED: ATOM     23  C   UNL     1      15.255 -11.441   0.238 -0.35 +0.00    +0.000 A 
DOCKED: ATOM     24  C   UNL     1      15.302 -12.378   1.264 -0.39 +0.00    +0.000 A 
DOCKED: ATOM     25  N   UNL     1      14.136 -12.391   1.947 -0.32 +0.00    +0.000 N 
DOCKED: ATOM     26  C   UNL     1      13.358 -11.458   1.371 -0.38 +0.00    +0.000 A 
DOCKED: ATOM     27  C   UNL     1      14.007 -10.852   0.326 -0.28 +0.00    +0.000 A 
DOCKED: ATOM     28  C   UNL     1      13.415  -9.824  -0.409 -0.18 +0.00    +0.000 A 
DOCKED: ATOM     29  C   UNL     1      12.118  -9.421  -0.046 -0.14 +0.00    +0.000 A 
DOCKED: ATOM     30  C   UNL     1      11.449 -10.044   1.030 -0.19 +0.00    +0.000 A 
DOCKED: ATOM     31  C   UNL     1      12.072 -11.076   1.755 -0.29 +0.00    +0.000 A 
DOCKED: ATOM     32  H   UNL     1      13.902 -12.966   2.712 -0.41 +0.00    +0.000 HD
DOCKED: ENDBRANCH  22  23
DOCKED: ENDBRANCH  21  22
DOCKED: ENDBRANCH   1  21
DOCKED: TORSDOF 10
DOCKED: TER
DOCKED: ENDMDL
________________________________________________________________________________


	BEGINNING GENETIC ALGORITHM DOCKING 29 of 100
Run: 29 Seed: 213423652 1746788005 [ Run 29 of 100 GA/GALS ]
Beginning LAMARCKIAN GENETIC ALGORITHM (LGA), with a maximum of 2500000 energy evaluations.

Final-Value: -15.431


	FINAL GENETIC ALGORITHM DOCKED STATE
	_______________________________________________


Detailed state:  trans 21.875 -8.864 -6.134 quatxyzw -0.653394 -0.319917 -0.439275 0.527036 center 0.288 0.007 -0.056 ntor 10 -165.7751 -102.5953 49.6202 40.0989 44.3206 36.4732 -50.1796 -62.5450 171.0715 -126.1832
State:	 21.875  -8.864  -6.134  -0.769 -0.376 -0.517 116.389   -165.78 -102.60   49.62   40.10   44.32   36.47  -50.18  -62.55  171.07 -126.18

DOCKED: MODEL       29
DOCKED: USER    Run = 29
DOCKED: USER    DPF = ligand_dock.biased.dpf
DOCKED: USER  
DOCKED: USER    Estimated Free Energy of Binding    =   -9.97 kcal/mol  [=(1)+(2)+(3)-(4)]
DOCKED: USER    Estimated Inhibition Constant, Ki   =   49.54 nM (nanomolar)  [Temperature = 298.15 K]
DOCKED: USER    
DOCKED: USER    (1) Final Intermolecular Energy     =  -12.95 kcal/mol
DOCKED: USER        vdW + Hbond + desolv Energy     =  -12.95 kcal/mol
DOCKED: USER        Electrostatic Energy            =   +0.00 kcal/mol
DOCKED: USER    (2) Final Total Internal Energy     =   -2.48 kcal/mol
DOCKED: USER    (3) Torsional Free Energy           =   +2.98 kcal/mol
DOCKED: USER    (4) Unbound System's Energy  [=(2)] =   -2.48 kcal/mol
DOCKED: USER    
DOCKED: USER    
DOCKED: USER    NEWDPF move ligand.pdbqt
DOCKED: USER    NEWDPF about 0.288000 0.007000 -0.056000
DOCKED: USER    NEWDPF tran0 21.875124 -8.863928 -6.134483
DOCKED: USER    NEWDPF quaternion0 -0.653394 -0.319917 -0.439275 0.527036
DOCKED: USER    NEWDPF axisangle0 -0.768841 -0.376442 -0.516889 116.389194
DOCKED: USER    NEWDPF quat0 -0.768841 -0.376442 -0.516889 116.389194
DOCKED: USER    NEWDPF dihe0 -165.78 -102.60 49.62 40.10 44.32 36.47 -50.18 -62.55 171.07 -126.18 
DOCKED: USER  keepresnum = 1 
DOCKED: USER  
DOCKED: REMARK  Name = 
DOCKED: REMARK  10 active torsions:
DOCKED: REMARK  status: ('A' for Active; 'I' for Inactive)
DOCKED: REMARK    1  A    between atoms: C_2  and  C_5
DOCKED: REMARK    2  A    between atoms: C_6  and  C_7
DOCKED: REMARK    3  A    between atoms: C_10  and  C_11
DOCKED: REMARK    4  A    between atoms: C_11  and  N_12
DOCKED: REMARK    5  A    between atoms: N_12  and  C_13
DOCKED: REMARK    6  A    between atoms: N_12  and  C_16
DOCKED: REMARK    7  A    between atoms: C_13  and  C_14
DOCKED: REMARK    8  A    between atoms: C_14  and  O_15
DOCKED: REMARK    9  A    between atoms: C_16  and  C_17
DOCKED: REMARK   10  A    between atoms: C_17  and  C_18
DOCKED: REMARK                            x       y       z     vdW  Elec       q    Type
DOCKED: REMARK                         _______ _______ _______ _____ _____    ______ ____
DOCKED: USER                              x       y       z     vdW  Elec       q    Type
DOCKED: USER                           _______ _______ _______ _____ _____    ______ ____
DOCKED: ROOT
DOCKED: ATOM      1  N   UNL     1      21.358  -9.937  -6.738 -0.24 -0.00    +0.000 N 
DOCKED: ATOM      2  H   UNL     1      20.717 -10.718  -6.602 -0.03 -0.00    +0.000 HD
DOCKED: ENDROOT
DOCKED: BRANCH   1   3
DOCKED: ATOM      3  C   UNL     1      20.885  -8.922  -5.760 -0.23 -0.00    +0.000 C 
DOCKED: BRANCH   3   7
DOCKED: ATOM      4  C   UNL     1      20.190 -10.519  -1.781 -0.46 -0.00    +0.000 A 
DOCKED: ATOM      5  C   UNL     1      19.130 -10.374  -2.689 -0.34 -0.00    +0.000 A 
DOCKED: ATOM      6  C   UNL     1      19.354  -9.863  -3.970 -0.29 -0.00    +0.000 A 
DOCKED: ATOM      7  C   UNL     1      20.640  -9.458  -4.363 -0.32 -0.00    +0.000 A 
DOCKED: ATOM      8  C   UNL     1      21.705  -9.615  -3.461 -0.31 -0.00    +0.000 A 
DOCKED: ATOM      9  C   UNL     1      21.483 -10.127  -2.179 -0.44 -0.00    +0.000 A 
DOCKED: BRANCH   4  11
DOCKED: ATOM     10  C   UNL     1      20.668 -10.831   0.646 -0.71 -0.00    +0.000 C 
DOCKED: ATOM     11  C   UNL     1      19.898 -11.056  -0.428 -0.54 -0.00    +0.000 C 
DOCKED: BRANCH  10  13
DOCKED: ATOM     12  O   UNL     1      19.887 -12.561   2.083 -1.71 -0.00    +0.000 OA
DOCKED: ATOM     13  C   UNL     1      20.349 -11.392   1.973 -0.77 -0.00    +0.000 C 
DOCKED: ATOM     14  N   UNL     1      20.562 -10.604   3.146 -0.66 -0.00    +0.000 N 
DOCKED: ATOM     15  O   UNL     1      20.274 -11.104   4.371 -0.98 -0.00    +0.000 OA
DOCKED: ATOM     16  H   UNL     1      20.922  -9.691   3.063 -0.60 -0.00    +0.000 HD
DOCKED: ENDBRANCH  10  13
DOCKED: ENDBRANCH   4  11
DOCKED: ENDBRANCH   3   7
DOCKED: ENDBRANCH   1   3
DOCKED: BRANCH   1  17
DOCKED: ATOM     17  C   UNL     1      22.695 -10.506  -6.453 -0.32 -0.00    +0.000 C 
DOCKED: BRANCH  17  18
DOCKED: ATOM     18  C   UNL     1      22.631 -12.023  -6.256 -0.49 -0.00    +0.000 C 
DOCKED: BRANCH  18  19
DOCKED: ATOM     19  O   UNL     1      21.589 -12.347  -5.379 -0.80 -0.00    +0.000 OA
DOCKED: ATOM     20  H   UNL     1      21.078 -13.086  -5.742 -0.66 -0.00    +0.000 HD
DOCKED: ENDBRANCH  18  19
DOCKED: ENDBRANCH  17  18
DOCKED: ENDBRANCH   1  17
DOCKED: BRANCH   1  21
DOCKED: ATOM     21  C   UNL     1      21.199  -9.515  -8.150 -0.18 -0.00    +0.000 C 
DOCKED: BRANCH  21  22
DOCKED: ATOM     22  C   UNL     1      20.982 -10.734  -9.053 -0.16 -0.00    +0.000 C 
DOCKED: BRANCH  22  23
DOCKED: ATOM     23  C   UNL     1      22.165 -10.955  -9.949 -0.18 -0.00    +0.000 A 
DOCKED: ATOM     24  C   UNL     1      22.844  -9.979 -10.672 -0.07 -0.00    +0.000 A 
DOCKED: ATOM     25  N   UNL     1      23.940 -10.505 -11.264 -0.07 -0.00    +0.000 N 
DOCKED: ATOM     26  C   UNL     1      23.968 -11.802 -10.909 -0.15 -0.00    +0.000 A 
DOCKED: ATOM     27  C   UNL     1      22.903 -12.114 -10.103 -0.25 -0.00    +0.000 A 
DOCKED: ATOM     28  C   UNL     1      22.732 -13.396  -9.576 -0.23 -0.00    +0.000 A 
DOCKED: ATOM     29  C   UNL     1      23.693 -14.371  -9.900 -0.22 +0.00    +0.000 A 
DOCKED: ATOM     30  C   UNL     1      24.789 -14.050 -10.730 -0.33 -0.00    +0.000 A 
DOCKED: ATOM     31  C   UNL     1      24.936 -12.748 -11.243 -0.19 -0.00    +0.000 A 
DOCKED: ATOM     32  H   UNL     1      24.586 -10.036 -11.839 +0.00 -0.00    +0.000 HD
DOCKED: ENDBRANCH  22  23
DOCKED: ENDBRANCH  21  22
DOCKED: ENDBRANCH   1  21
DOCKED: TORSDOF 10
DOCKED: TER
DOCKED: ENDMDL
________________________________________________________________________________


	BEGINNING GENETIC ALGORITHM DOCKING 30 of 100
Run: 30 Seed: 1283876193 333617848 [ Run 30 of 100 GA/GALS ]
Beginning LAMARCKIAN GENETIC ALGORITHM (LGA), with a maximum of 2500000 energy evaluations.

Final-Value: -15.899


	FINAL GENETIC ALGORITHM DOCKED STATE
	_______________________________________________


Detailed state:  trans 21.755 -8.341 -6.199 quatxyzw 0.648806 0.527438 0.292029 -0.464305 center 0.288 0.007 -0.056 ntor 10 -162.3253 -105.1539 71.5763 179.0775 -150.2395 -173.7236 177.5487 -40.2278 -125.4756 -150.5802
State:	 21.755  -8.341  -6.199   0.733  0.596  0.330 -124.669   -162.33 -105.15   71.58  179.08 -150.24 -173.72  177.55  -40.23 -125.48 -150.58

DOCKED: MODEL       30
DOCKED: USER    Run = 30
DOCKED: USER    DPF = ligand_dock.biased.dpf
DOCKED: USER  
DOCKED: USER    Estimated Free Energy of Binding    =  -10.21 kcal/mol  [=(1)+(2)+(3)-(4)]
DOCKED: USER    Estimated Inhibition Constant, Ki   =   33.01 nM (nanomolar)  [Temperature = 298.15 K]
DOCKED: USER    
DOCKED: USER    (1) Final Intermolecular Energy     =  -13.19 kcal/mol
DOCKED: USER        vdW + Hbond + desolv Energy     =  -13.19 kcal/mol
DOCKED: USER        Electrostatic Energy            =   +0.00 kcal/mol
DOCKED: USER    (2) Final Total Internal Energy     =   -2.71 kcal/mol
DOCKED: USER    (3) Torsional Free Energy           =   +2.98 kcal/mol
DOCKED: USER    (4) Unbound System's Energy  [=(2)] =   -2.71 kcal/mol
DOCKED: USER    
DOCKED: USER    
DOCKED: USER    NEWDPF move ligand.pdbqt
DOCKED: USER    NEWDPF about 0.288000 0.007000 -0.056000
DOCKED: USER    NEWDPF tran0 21.754668 -8.340547 -6.198636
DOCKED: USER    NEWDPF quaternion0 0.648806 0.527438 0.292029 -0.464305
DOCKED: USER    NEWDPF axisangle0 0.732555 0.595521 0.329725 -124.669461
DOCKED: USER    NEWDPF quat0 0.732555 0.595521 0.329725 -124.669461
DOCKED: USER    NEWDPF dihe0 -162.33 -105.15 71.58 179.08 -150.24 -173.72 177.55 -40.23 -125.48 -150.58 
DOCKED: USER  keepresnum = 1 
DOCKED: USER  
DOCKED: REMARK  Name = 
DOCKED: REMARK  10 active torsions:
DOCKED: REMARK  status: ('A' for Active; 'I' for Inactive)
DOCKED: REMARK    1  A    between atoms: C_2  and  C_5
DOCKED: REMARK    2  A    between atoms: C_6  and  C_7
DOCKED: REMARK    3  A    between atoms: C_10  and  C_11
DOCKED: REMARK    4  A    between atoms: C_11  and  N_12
DOCKED: REMARK    5  A    between atoms: N_12  and  C_13
DOCKED: REMARK    6  A    between atoms: N_12  and  C_16
DOCKED: REMARK    7  A    between atoms: C_13  and  C_14
DOCKED: REMARK    8  A    between atoms: C_14  and  O_15
DOCKED: REMARK    9  A    between atoms: C_16  and  C_17
DOCKED: REMARK   10  A    between atoms: C_17  and  C_18
DOCKED: REMARK                            x       y       z     vdW  Elec       q    Type
DOCKED: REMARK                         _______ _______ _______ _____ _____    ______ ____
DOCKED: USER                              x       y       z     vdW  Elec       q    Type
DOCKED: USER                           _______ _______ _______ _____ _____    ______ ____
DOCKED: ROOT
DOCKED: ATOM      1  N   UNL     1      21.275  -9.579  -6.333 -0.23 -0.00    +0.000 N 
DOCKED: ATOM      2  H   UNL     1      20.930 -10.381  -5.805 -0.00 -0.00    +0.000 HD
DOCKED: ENDROOT
DOCKED: BRANCH   1   3
DOCKED: ATOM      3  C   UNL     1      21.047  -8.432  -5.415 -0.24 -0.00    +0.000 C 
DOCKED: BRANCH   3   7
DOCKED: ATOM      4  C   UNL     1      20.859  -9.528  -1.217 -0.54 -0.00    +0.000 A 
DOCKED: ATOM      5  C   UNL     1      20.381 -10.401  -2.206 -0.47 -0.00    +0.000 A 
DOCKED: ATOM      6  C   UNL     1      20.444 -10.050  -3.557 -0.41 -0.00    +0.000 A 
DOCKED: ATOM      7  C   UNL     1      20.961  -8.804  -3.948 -0.34 -0.00    +0.000 A 
DOCKED: ATOM      8  C   UNL     1      21.452  -7.934  -2.961 -0.36 -0.00    +0.000 A 
DOCKED: ATOM      9  C   UNL     1      21.391  -8.284  -1.609 -0.44 -0.00    +0.000 A 
DOCKED: BRANCH   4  11
DOCKED: ATOM     10  C   UNL     1      20.401 -11.173   0.599 -0.69 -0.00    +0.000 C 
DOCKED: ATOM     11  C   UNL     1      20.760  -9.943   0.205 -0.66 -0.00    +0.000 C 
DOCKED: BRANCH  10  13
DOCKED: ATOM     12  O   UNL     1      19.923 -12.698   2.365 -1.58 -0.00    +0.000 OA
DOCKED: ATOM     13  C   UNL     1      20.303 -11.544   2.025 -0.78 -0.00    +0.000 C 
DOCKED: ATOM     14  N   UNL     1      20.641 -10.587   3.031 -0.64 -0.00    +0.000 N 
DOCKED: ATOM     15  O   UNL     1      20.557 -10.911   4.343 -0.94 -0.00    +0.000 OA
DOCKED: ATOM     16  H   UNL     1      20.938  -9.685   2.769 -0.59 -0.00    +0.000 HD
DOCKED: ENDBRANCH  10  13
DOCKED: ENDBRANCH   4  11
DOCKED: ENDBRANCH   3   7
DOCKED: ENDBRANCH   1   3
DOCKED: BRANCH   1  17
DOCKED: ATOM     17  C   UNL     1      22.697  -9.898  -6.595 -0.31 -0.00    +0.000 C 
DOCKED: BRANCH  17  18
DOCKED: ATOM     18  C   UNL     1      22.930 -11.409  -6.683 -0.45 -0.00    +0.000 C 
DOCKED: BRANCH  18  19
DOCKED: ATOM     19  O   UNL     1      22.361 -12.044  -5.572 -0.71 -0.00    +0.000 OA
DOCKED: ATOM     20  H   UNL     1      21.905 -12.850  -5.859 -0.58 -0.00    +0.000 HD
DOCKED: ENDBRANCH  18  19
DOCKED: ENDBRANCH  17  18
DOCKED: ENDBRANCH   1  17
DOCKED: BRANCH   1  21
DOCKED: ATOM     21  C   UNL     1      20.459  -9.519  -7.568 -0.19 -0.00    +0.000 C 
DOCKED: BRANCH  21  22
DOCKED: ATOM     22  C   UNL     1      19.698 -10.833  -7.774 -0.23 -0.00    +0.000 C 
DOCKED: BRANCH  22  23
DOCKED: ATOM     23  C   UNL     1      18.214 -10.609  -7.711 -0.26 -0.00    +0.000 A 
DOCKED: ATOM     24  C   UNL     1      17.339 -10.588  -8.791 -0.15 -0.00    +0.000 A 
DOCKED: ATOM     25  N   UNL     1      16.060 -10.496  -8.362 -0.16 -0.00    +0.000 N 
DOCKED: ATOM     26  C   UNL     1      16.119 -10.475  -7.019 -0.19 -0.00    +0.000 A 
DOCKED: ATOM     27  C   UNL     1      17.418 -10.546  -6.583 -0.26 -0.00    +0.000 A 
DOCKED: ATOM     28  C   UNL     1      17.735 -10.575  -5.224 -0.26 -0.00    +0.000 A 
DOCKED: ATOM     29  C   UNL     1      16.674 -10.526  -4.301 -0.16 -0.00    +0.000 A 
DOCKED: ATOM     30  C   UNL     1      15.337 -10.453  -4.750 -0.21 -0.00    +0.000 A 
DOCKED: ATOM     31  C   UNL     1      15.048 -10.430  -6.127 -0.17 -0.00    +0.000 A 
DOCKED: ATOM     32  H   UNL     1      15.249 -10.454  -8.919 +0.00 -0.00    +0.000 HD
DOCKED: ENDBRANCH  22  23
DOCKED: ENDBRANCH  21  22
DOCKED: ENDBRANCH   1  21
DOCKED: TORSDOF 10
DOCKED: TER
DOCKED: ENDMDL
________________________________________________________________________________


	BEGINNING GENETIC ALGORITHM DOCKING 31 of 100
Run: 31 Seed: 1701515454 126059980 [ Run 31 of 100 GA/GALS ]
Beginning LAMARCKIAN GENETIC ALGORITHM (LGA), with a maximum of 2500000 energy evaluations.

Final-Value: -14.907


	FINAL GENETIC ALGORITHM DOCKED STATE
	_______________________________________________


Detailed state:  trans 20.747 -9.664 -7.475 quatxyzw 0.536367 -0.735388 -0.385899 0.150325 center 0.288 0.007 -0.056 ntor 10 115.8795 -58.6200 24.8654 83.5157 -160.3723 -39.4653 -132.4291 76.5401 -167.8611 180.0000
State:	 20.747  -9.664  -7.475   0.543 -0.744 -0.390 162.708    115.88  -58.62   24.87   83.52 -160.37  -39.47 -132.43   76.54 -167.86  180.00

DOCKED: MODEL       31
DOCKED: USER    Run = 31
DOCKED: USER    DPF = ligand_dock.biased.dpf
DOCKED: USER  
DOCKED: USER    Estimated Free Energy of Binding    =   -9.68 kcal/mol  [=(1)+(2)+(3)-(4)]
DOCKED: USER    Estimated Inhibition Constant, Ki   =   80.09 nM (nanomolar)  [Temperature = 298.15 K]
DOCKED: USER    
DOCKED: USER    (1) Final Intermolecular Energy     =  -12.66 kcal/mol
DOCKED: USER        vdW + Hbond + desolv Energy     =  -12.66 kcal/mol
DOCKED: USER        Electrostatic Energy            =   +0.00 kcal/mol
DOCKED: USER    (2) Final Total Internal Energy     =   -2.24 kcal/mol
DOCKED: USER    (3) Torsional Free Energy           =   +2.98 kcal/mol
DOCKED: USER    (4) Unbound System's Energy  [=(2)] =   -2.24 kcal/mol
DOCKED: USER    
DOCKED: USER    
DOCKED: USER    NEWDPF move ligand.pdbqt
DOCKED: USER    NEWDPF about 0.288000 0.007000 -0.056000
DOCKED: USER    NEWDPF tran0 20.746901 -9.664309 -7.474513
DOCKED: USER    NEWDPF quaternion0 0.536367 -0.735388 -0.385899 0.150325
DOCKED: USER    NEWDPF axisangle0 0.542532 -0.743840 -0.390334 162.708449
DOCKED: USER    NEWDPF quat0 0.542532 -0.743840 -0.390334 162.708449
DOCKED: USER    NEWDPF dihe0 115.88 -58.62 24.87 83.52 -160.37 -39.47 -132.43 76.54 -167.86 180.00 
DOCKED: USER  keepresnum = 1 
DOCKED: USER  
DOCKED: REMARK  Name = 
DOCKED: REMARK  10 active torsions:
DOCKED: REMARK  status: ('A' for Active; 'I' for Inactive)
DOCKED: REMARK    1  A    between atoms: C_2  and  C_5
DOCKED: REMARK    2  A    between atoms: C_6  and  C_7
DOCKED: REMARK    3  A    between atoms: C_10  and  C_11
DOCKED: REMARK    4  A    between atoms: C_11  and  N_12
DOCKED: REMARK    5  A    between atoms: N_12  and  C_13
DOCKED: REMARK    6  A    between atoms: N_12  and  C_16
DOCKED: REMARK    7  A    between atoms: C_13  and  C_14
DOCKED: REMARK    8  A    between atoms: C_14  and  O_15
DOCKED: REMARK    9  A    between atoms: C_16  and  C_17
DOCKED: REMARK   10  A    between atoms: C_17  and  C_18
DOCKED: REMARK                            x       y       z     vdW  Elec       q    Type
DOCKED: REMARK                         _______ _______ _______ _____ _____    ______ ____
DOCKED: USER                              x       y       z     vdW  Elec       q    Type
DOCKED: USER                           _______ _______ _______ _____ _____    ______ ____
DOCKED: ROOT
DOCKED: ATOM      1  N   UNL     1      21.516  -8.828  -6.774 -0.16 -0.00    +0.000 N 
DOCKED: ATOM      2  H   UNL     1      21.602  -8.364  -5.869 -0.00 -0.00    +0.000 HD
DOCKED: ENDROOT
DOCKED: BRANCH   1   3
DOCKED: ATOM      3  C   UNL     1      20.678 -10.019  -6.478 -0.28 -0.00    +0.000 C 
DOCKED: BRANCH   3   7
DOCKED: ATOM      4  C   UNL     1      19.829 -10.559  -2.253 -0.42 -0.00    +0.000 A 
DOCKED: ATOM      5  C   UNL     1      21.093 -10.876  -2.775 -0.34 -0.00    +0.000 A 
DOCKED: ATOM      6  C   UNL     1      21.367 -10.700  -4.134 -0.46 -0.00    +0.000 A 
DOCKED: ATOM      7  C   UNL     1      20.374 -10.229  -5.007 -0.34 -0.00    +0.000 A 
DOCKED: ATOM      8  C   UNL     1      19.112  -9.899  -4.486 -0.26 -0.00    +0.000 A 
DOCKED: ATOM      9  C   UNL     1      18.836 -10.074  -3.126 -0.29 -0.00    +0.000 A 
DOCKED: BRANCH   4  11
DOCKED: ATOM     10  C   UNL     1      20.498 -11.278   0.038 -0.53 -0.00    +0.000 C 
DOCKED: ATOM     11  C   UNL     1      19.585 -10.775  -0.805 -0.52 -0.00    +0.000 C 
DOCKED: BRANCH  10  13
DOCKED: ATOM     12  O   UNL     1      19.603 -12.521   1.862 -1.61 -0.00    +0.000 OA
DOCKED: ATOM     13  C   UNL     1      20.212 -11.487   1.472 -0.75 -0.00    +0.000 C 
DOCKED: ATOM     14  N   UNL     1      20.628 -10.509   2.427 -0.59 -0.00    +0.000 N 
DOCKED: ATOM     15  O   UNL     1      20.373 -10.686   3.746 -1.10 -0.00    +0.000 OA
DOCKED: ATOM     16  H   UNL     1      21.103  -9.701   2.126 -0.57 -0.00    +0.000 HD
DOCKED: ENDBRANCH  10  13
DOCKED: ENDBRANCH   4  11
DOCKED: ENDBRANCH   3   7
DOCKED: ENDBRANCH   1   3
DOCKED: BRANCH   1  17
DOCKED: ATOM     17  C   UNL     1      20.877  -7.814  -7.644 -0.07 -0.00    +0.000 C 
DOCKED: BRANCH  17  18
DOCKED: ATOM     18  C   UNL     1      20.219  -6.700  -6.824 -0.06 -0.00    +0.000 C 
DOCKED: BRANCH  18  19
DOCKED: ATOM     19  O   UNL     1      20.326  -6.988  -5.458 -0.13 -0.00    +0.000 OA
DOCKED: ATOM     20  H   UNL     1      21.259  -7.122  -5.228 -0.00 -0.00    +0.000 HD
DOCKED: ENDBRANCH  18  19
DOCKED: ENDBRANCH  17  18
DOCKED: ENDBRANCH   1  17
DOCKED: BRANCH   1  21
DOCKED: ATOM     21  C   UNL     1      22.896  -9.165  -7.196 -0.24 -0.00    +0.000 C 
DOCKED: BRANCH  21  22
DOCKED: ATOM     22  C   UNL     1      23.183 -10.650  -6.953 -0.34 -0.00    +0.000 C 
DOCKED: BRANCH  22  23
DOCKED: ATOM     23  C   UNL     1      24.434 -11.078  -7.665 -0.37 -0.00    +0.000 A 
DOCKED: ATOM     24  C   UNL     1      24.532 -12.075  -8.630 -0.41 -0.00    +0.000 A 
DOCKED: ATOM     25  N   UNL     1      25.777 -12.104  -9.156 -0.38 -0.00    +0.000 N 
DOCKED: ATOM     26  C   UNL     1      26.462 -11.123  -8.544 -0.33 -0.00    +0.000 A 
DOCKED: ATOM     27  C   UNL     1      25.675 -10.470  -7.629 -0.29 -0.00    +0.000 A 
DOCKED: ATOM     28  C   UNL     1      26.154  -9.388  -6.889 -0.21 -0.00    +0.000 A 
DOCKED: ATOM     29  C   UNL     1      27.483  -8.980  -7.107 -0.39 -0.00    +0.000 A 
DOCKED: ATOM     30  C   UNL     1      28.292  -9.652  -8.049 -0.38 -0.00    +0.000 A 
DOCKED: ATOM     31  C   UNL     1      27.781 -10.738  -8.783 -0.35 -0.00    +0.000 A 
DOCKED: ATOM     32  H   UNL     1      26.114 -12.718  -9.847 -0.47 -0.00    +0.000 HD
DOCKED: ENDBRANCH  22  23
DOCKED: ENDBRANCH  21  22
DOCKED: ENDBRANCH   1  21
DOCKED: TORSDOF 10
DOCKED: TER
DOCKED: ENDMDL
________________________________________________________________________________


	BEGINNING GENETIC ALGORITHM DOCKING 32 of 100
Run: 32 Seed: 1887455019 1571012336 [ Run 32 of 100 GA/GALS ]
Beginning LAMARCKIAN GENETIC ALGORITHM (LGA), with a maximum of 2500000 energy evaluations.

Final-Value: -14.961


	FINAL GENETIC ALGORITHM DOCKED STATE
	_______________________________________________


Detailed state:  trans 15.491 -9.784 3.650 quatxyzw 0.188523 -0.599384 0.440442 -0.641255 center 0.288 0.007 -0.056 ntor 10 130.6748 -12.3183 41.0433 134.9757 -32.7750 153.1971 180.0000 -56.6590 -177.1704 -60.4087
State:	 15.491  -9.784   3.650   0.246 -0.781  0.574 -100.229    130.67  -12.32   41.04  134.98  -32.77  153.20  180.00  -56.66 -177.17  -60.41

DOCKED: MODEL       32
DOCKED: USER    Run = 32
DOCKED: USER    DPF = ligand_dock.biased.dpf
DOCKED: USER  
DOCKED: USER    Estimated Free Energy of Binding    =   -9.76 kcal/mol  [=(1)+(2)+(3)-(4)]
DOCKED: USER    Estimated Inhibition Constant, Ki   =   69.61 nM (nanomolar)  [Temperature = 298.15 K]
DOCKED: USER    
DOCKED: USER    (1) Final Intermolecular Energy     =  -12.75 kcal/mol
DOCKED: USER        vdW + Hbond + desolv Energy     =  -12.75 kcal/mol
DOCKED: USER        Electrostatic Energy            =   +0.00 kcal/mol
DOCKED: USER    (2) Final Total Internal Energy     =   -2.21 kcal/mol
DOCKED: USER    (3) Torsional Free Energy           =   +2.98 kcal/mol
DOCKED: USER    (4) Unbound System's Energy  [=(2)] =   -2.21 kcal/mol
DOCKED: USER    
DOCKED: USER    
DOCKED: USER    NEWDPF move ligand.pdbqt
DOCKED: USER    NEWDPF about 0.288000 0.007000 -0.056000
DOCKED: USER    NEWDPF tran0 15.490767 -9.784043 3.649708
DOCKED: USER    NEWDPF quaternion0 0.188523 -0.599384 0.440442 -0.641255
DOCKED: USER    NEWDPF axisangle0 0.245688 -0.781132 0.573994 -100.229005
DOCKED: USER    NEWDPF quat0 0.245688 -0.781132 0.573994 -100.229005
DOCKED: USER    NEWDPF dihe0 130.67 -12.32 41.04 134.98 -32.77 153.20 180.00 -56.66 -177.17 -60.41 
DOCKED: USER  keepresnum = 1 
DOCKED: USER  
DOCKED: REMARK  Name = 
DOCKED: REMARK  10 active torsions:
DOCKED: REMARK  status: ('A' for Active; 'I' for Inactive)
DOCKED: REMARK    1  A    between atoms: C_2  and  C_5
DOCKED: REMARK    2  A    between atoms: C_6  and  C_7
DOCKED: REMARK    3  A    between atoms: C_10  and  C_11
DOCKED: REMARK    4  A    between atoms: C_11  and  N_12
DOCKED: REMARK    5  A    between atoms: N_12  and  C_13
DOCKED: REMARK    6  A    between atoms: N_12  and  C_16
DOCKED: REMARK    7  A    between atoms: C_13  and  C_14
DOCKED: REMARK    8  A    between atoms: C_14  and  O_15
DOCKED: REMARK    9  A    between atoms: C_16  and  C_17
DOCKED: REMARK   10  A    between atoms: C_17  and  C_18
DOCKED: REMARK                            x       y       z     vdW  Elec       q    Type
DOCKED: REMARK                         _______ _______ _______ _____ _____    ______ ____
DOCKED: USER                              x       y       z     vdW  Elec       q    Type
DOCKED: USER                           _______ _______ _______ _____ _____    ______ ____
DOCKED: ROOT
DOCKED: ATOM      1  N   UNL     1      15.870 -10.390   2.522 -0.37 +0.00    +0.000 N 
DOCKED: ATOM      2  H   UNL     1      15.857 -10.303   1.506 +0.00 +0.00    +0.000 HD
DOCKED: ENDROOT
DOCKED: BRANCH   1   3
DOCKED: ATOM      3  C   UNL     1      15.739  -8.988   2.996 -0.40 +0.00    +0.000 C 
DOCKED: BRANCH   3   7
DOCKED: ATOM      4  C   UNL     1      12.012  -8.185   5.077 -0.27 +0.00    +0.000 A 
DOCKED: ATOM      5  C   UNL     1      12.079  -8.115   3.677 -0.15 +0.00    +0.000 A 
DOCKED: ATOM      6  C   UNL     1      13.277  -8.376   3.007 -0.18 +0.00    +0.000 A 
DOCKED: ATOM      7  C   UNL     1      14.444  -8.685   3.724 -0.30 +0.00    +0.000 A 
DOCKED: ATOM      8  C   UNL     1      14.377  -8.769   5.125 -0.36 +0.00    +0.000 A 
DOCKED: ATOM      9  C   UNL     1      13.179  -8.508   5.797 -0.41 +0.00    +0.000 A 
DOCKED: BRANCH   4  11
DOCKED: ATOM     10  C   UNL     1      10.122  -8.713   6.613 -0.32 +0.00    +0.000 C 
DOCKED: ATOM     11  C   UNL     1      10.719  -7.887   5.742 -0.25 +0.00    +0.000 C 
DOCKED: BRANCH  10  13
DOCKED: ATOM     12  O   UNL     1       7.905  -9.243   7.304 -0.42 +0.00    +0.000 OA
DOCKED: ATOM     13  C   UNL     1       8.829  -8.385   7.246 -0.50 +0.00    +0.000 C 
DOCKED: ATOM     14  N   UNL     1       8.619  -7.083   7.797 -0.49 +0.00    +0.000 N 
DOCKED: ATOM     15  O   UNL     1       7.438  -6.767   8.381 -1.07 +0.00    +0.000 OA
DOCKED: ATOM     16  H   UNL     1       9.338  -6.411   7.753 -0.04 +0.00    +0.000 HD
DOCKED: ENDBRANCH  10  13
DOCKED: ENDBRANCH   4  11
DOCKED: ENDBRANCH   3   7
DOCKED: ENDBRANCH   1   3
DOCKED: BRANCH   1  17
DOCKED: ATOM     17  C   UNL     1      14.714 -11.265   2.828 -0.49 +0.00    +0.000 C 
DOCKED: BRANCH  17  18
DOCKED: ATOM     18  C   UNL     1      13.955 -11.662   1.559 -0.46 +0.00    +0.000 C 
DOCKED: BRANCH  18  19
DOCKED: ATOM     19  O   UNL     1      14.863 -11.986   0.543 -0.48 +0.00    +0.000 OA
DOCKED: ATOM     20  H   UNL     1      15.302 -12.824   0.757 -0.03 +0.00    +0.000 HD
DOCKED: ENDBRANCH  18  19
DOCKED: ENDBRANCH  17  18
DOCKED: ENDBRANCH   1  17
DOCKED: BRANCH   1  21
DOCKED: ATOM     21  C   UNL     1      17.171 -11.011   2.865 -0.45 +0.00    +0.000 C 
DOCKED: BRANCH  21  22
DOCKED: ATOM     22  C   UNL     1      17.629 -11.951   1.745 -0.33 +0.00    +0.000 C 
DOCKED: BRANCH  22  23
DOCKED: ATOM     23  C   UNL     1      18.937 -11.495   1.164 -0.54 -0.00    +0.000 A 
DOCKED: ATOM     24  C   UNL     1      20.181 -11.568   1.781 -0.68 -0.00    +0.000 A 
DOCKED: ATOM     25  N   UNL     1      21.157 -11.195   0.924 -0.59 -0.00    +0.000 N 
DOCKED: ATOM     26  C   UNL     1      20.542 -10.903  -0.235 -0.56 -0.00    +0.000 A 
DOCKED: ATOM     27  C   UNL     1      19.185 -11.077  -0.130 -0.47 -0.00    +0.000 A 
DOCKED: ATOM     28  C   UNL     1      18.332 -10.868  -1.214 -0.35 -0.00    +0.000 A 
DOCKED: ATOM     29  C   UNL     1      18.907 -10.467  -2.434 -0.33 -0.00    +0.000 A 
DOCKED: ATOM     30  C   UNL     1      20.303 -10.286  -2.542 -0.45 -0.00    +0.000 A 
DOCKED: ATOM     31  C   UNL     1      21.138 -10.508  -1.433 -0.55 -0.00    +0.000 A 
DOCKED: ATOM     32  H   UNL     1      22.123 -11.147   1.109 -0.47 -0.00    +0.000 HD
DOCKED: ENDBRANCH  22  23
DOCKED: ENDBRANCH  21  22
DOCKED: ENDBRANCH   1  21
DOCKED: TORSDOF 10
DOCKED: TER
DOCKED: ENDMDL
________________________________________________________________________________


	BEGINNING GENETIC ALGORITHM DOCKING 33 of 100
Run: 33 Seed: 566406387 869492655 [ Run 33 of 100 GA/GALS ]
Beginning LAMARCKIAN GENETIC ALGORITHM (LGA), with a maximum of 2500000 energy evaluations.

Final-Value: -15.455


	FINAL GENETIC ALGORITHM DOCKED STATE
	_______________________________________________


Detailed state:  trans 20.613 -8.762 -6.314 quatxyzw -0.710073 -0.621292 -0.171230 0.283678 center 0.288 0.007 -0.056 ntor 10 164.9886 -55.3722 20.5310 179.9520 117.4215 57.7928 -179.3449 -49.1515 -145.2737 -177.1931
State:	 20.613  -8.762  -6.314  -0.740 -0.648 -0.179 147.040    164.99  -55.37   20.53  179.95  117.42   57.79 -179.34  -49.15 -145.27 -177.19

DOCKED: MODEL       33
DOCKED: USER    Run = 33
DOCKED: USER    DPF = ligand_dock.biased.dpf
DOCKED: USER  
DOCKED: USER    Estimated Free Energy of Binding    =   -9.98 kcal/mol  [=(1)+(2)+(3)-(4)]
DOCKED: USER    Estimated Inhibition Constant, Ki   =   47.97 nM (nanomolar)  [Temperature = 298.15 K]
DOCKED: USER    
DOCKED: USER    (1) Final Intermolecular Energy     =  -12.97 kcal/mol
DOCKED: USER        vdW + Hbond + desolv Energy     =  -12.97 kcal/mol
DOCKED: USER        Electrostatic Energy            =   +0.00 kcal/mol
DOCKED: USER    (2) Final Total Internal Energy     =   -2.49 kcal/mol
DOCKED: USER    (3) Torsional Free Energy           =   +2.98 kcal/mol
DOCKED: USER    (4) Unbound System's Energy  [=(2)] =   -2.49 kcal/mol
DOCKED: USER    
DOCKED: USER    
DOCKED: USER    NEWDPF move ligand.pdbqt
DOCKED: USER    NEWDPF about 0.288000 0.007000 -0.056000
DOCKED: USER    NEWDPF tran0 20.612981 -8.762182 -6.314445
DOCKED: USER    NEWDPF quaternion0 -0.710073 -0.621292 -0.171230 0.283678
DOCKED: USER    NEWDPF axisangle0 -0.740493 -0.647908 -0.178566 147.040276
DOCKED: USER    NEWDPF quat0 -0.740493 -0.647908 -0.178566 147.040276
DOCKED: USER    NEWDPF dihe0 164.99 -55.37 20.53 179.95 117.42 57.79 -179.34 -49.15 -145.27 -177.19 
DOCKED: USER  keepresnum = 1 
DOCKED: USER  
DOCKED: REMARK  Name = 
DOCKED: REMARK  10 active torsions:
DOCKED: REMARK  status: ('A' for Active; 'I' for Inactive)
DOCKED: REMARK    1  A    between atoms: C_2  and  C_5
DOCKED: REMARK    2  A    between atoms: C_6  and  C_7
DOCKED: REMARK    3  A    between atoms: C_10  and  C_11
DOCKED: REMARK    4  A    between atoms: C_11  and  N_12
DOCKED: REMARK    5  A    between atoms: N_12  and  C_13
DOCKED: REMARK    6  A    between atoms: N_12  and  C_16
DOCKED: REMARK    7  A    between atoms: C_13  and  C_14
DOCKED: REMARK    8  A    between atoms: C_14  and  O_15
DOCKED: REMARK    9  A    between atoms: C_16  and  C_17
DOCKED: REMARK   10  A    between atoms: C_17  and  C_18
DOCKED: REMARK                            x       y       z     vdW  Elec       q    Type
DOCKED: REMARK                         _______ _______ _______ _____ _____    ______ ____
DOCKED: USER                              x       y       z     vdW  Elec       q    Type
DOCKED: USER                           _______ _______ _______ _____ _____    ______ ____
DOCKED: ROOT
DOCKED: ATOM      1  N   UNL     1      20.154 -10.015  -6.361 -0.23 -0.00    +0.000 N 
DOCKED: ATOM      2  H   UNL     1      20.109 -10.887  -5.833 -0.02 -0.00    +0.000 HD
DOCKED: ENDROOT
DOCKED: BRANCH   1   3
DOCKED: ATOM      3  C   UNL     1      20.346  -8.980  -5.312 -0.23 -0.00    +0.000 C 
DOCKED: BRANCH   3   7
DOCKED: ATOM      4  C   UNL     1      20.332 -10.551  -1.263 -0.49 -0.00    +0.000 A 
DOCKED: ATOM      5  C   UNL     1      19.274 -10.829  -2.142 -0.38 -0.00    +0.000 A 
DOCKED: ATOM      6  C   UNL     1      19.280 -10.326  -3.446 -0.34 -0.00    +0.000 A 
DOCKED: ATOM      7  C   UNL     1      20.331  -9.509  -3.891 -0.34 -0.00    +0.000 A 
DOCKED: ATOM      8  C   UNL     1      21.397  -9.240  -3.018 -0.42 -0.00    +0.000 A 
DOCKED: ATOM      9  C   UNL     1      21.394  -9.743  -1.713 -0.53 -0.00    +0.000 A 
DOCKED: BRANCH   4  11
DOCKED: ATOM     10  C   UNL     1      19.605 -10.518   1.121 -0.61 -0.00    +0.000 C 
DOCKED: ATOM     11  C   UNL     1      20.273 -11.100   0.115 -0.63 -0.00    +0.000 C 
DOCKED: BRANCH  10  13
DOCKED: ATOM     12  O   UNL     1      18.962 -10.506   3.414 -0.58 -0.00    +0.000 OA
DOCKED: ATOM     13  C   UNL     1      19.579 -11.090   2.482 -0.71 -0.00    +0.000 C 
DOCKED: ATOM     14  N   UNL     1      20.261 -12.318   2.747 -0.68 -0.00    +0.000 N 
DOCKED: ATOM     15  O   UNL     1      20.248 -12.856   3.990 -0.99 -0.00    +0.000 OA
DOCKED: ATOM     16  H   UNL     1      20.745 -12.776   2.022 -0.60 -0.00    +0.000 HD
DOCKED: ENDBRANCH  10  13
DOCKED: ENDBRANCH   4  11
DOCKED: ENDBRANCH   3   7
DOCKED: ENDBRANCH   1   3
DOCKED: BRANCH   1  17
DOCKED: ATOM     17  C   UNL     1      21.304 -10.201  -7.275 -0.28 -0.00    +0.000 C 
DOCKED: BRANCH  17  18
DOCKED: ATOM     18  C   UNL     1      22.266 -11.275  -6.761 -0.44 -0.00    +0.000 C 
DOCKED: BRANCH  18  19
DOCKED: ATOM     19  O   UNL     1      21.799 -11.790  -5.545 -0.64 -0.00    +0.000 OA
DOCKED: ATOM     20  H   UNL     1      21.418 -12.670  -5.691 -0.60 -0.00    +0.000 HD
DOCKED: ENDBRANCH  18  19
DOCKED: ENDBRANCH  17  18
DOCKED: ENDBRANCH   1  17
DOCKED: BRANCH   1  21
DOCKED: ATOM     21  C   UNL     1      18.861  -9.900  -7.076 -0.23 -0.00    +0.000 C 
DOCKED: BRANCH  21  22
DOCKED: ATOM     22  C   UNL     1      18.225 -11.282  -7.260 -0.35 -0.00    +0.000 C 
DOCKED: BRANCH  22  23
DOCKED: ATOM     23  C   UNL     1      16.887 -11.351  -6.583 -0.32 -0.00    +0.000 A 
DOCKED: ATOM     24  C   UNL     1      16.458 -10.557  -5.525 -0.22 -0.00    +0.000 A 
DOCKED: ATOM     25  N   UNL     1      15.155 -10.794  -5.253 -0.23 -0.00    +0.000 N 
DOCKED: ATOM     26  C   UNL     1      14.753 -11.720  -6.141 -0.28 -0.00    +0.000 A 
DOCKED: ATOM     27  C   UNL     1      15.781 -12.083  -6.974 -0.29 -0.00    +0.000 A 
DOCKED: ATOM     28  C   UNL     1      15.599 -13.007  -8.004 -0.36 +0.00    +0.000 A 
DOCKED: ATOM     29  C   UNL     1      14.318 -13.565  -8.166 -0.38 +0.00    +0.000 A 
DOCKED: ATOM     30  C   UNL     1      13.260 -13.192  -7.309 -0.32 -0.00    +0.000 A 
DOCKED: ATOM     31  C   UNL     1      13.472 -12.255  -6.282 -0.26 -0.00    +0.000 A 
DOCKED: ATOM     32  H   UNL     1      14.611 -10.375  -4.548 -0.00 -0.00    +0.000 HD
DOCKED: ENDBRANCH  22  23
DOCKED: ENDBRANCH  21  22
DOCKED: ENDBRANCH   1  21
DOCKED: TORSDOF 10
DOCKED: TER
DOCKED: ENDMDL
________________________________________________________________________________


	BEGINNING GENETIC ALGORITHM DOCKING 34 of 100
Run: 34 Seed: 837508017 1032518263 [ Run 34 of 100 GA/GALS ]
Beginning LAMARCKIAN GENETIC ALGORITHM (LGA), with a maximum of 2500000 energy evaluations.

Final-Value: -15.758


	FINAL GENETIC ALGORITHM DOCKED STATE
	_______________________________________________


Detailed state:  trans 21.347 -8.850 -6.889 quatxyzw 0.063862 -0.975027 -0.121806 0.174379 center 0.288 0.007 -0.056 ntor 10 155.8465 -52.5925 75.7635 -153.4454 175.7474 75.0413 -173.9252 -176.5543 -170.6868 137.3804
State:	 21.347  -8.850  -6.889   0.065 -0.990 -0.124 159.915    155.85  -52.59   75.76 -153.45  175.75   75.04 -173.93 -176.55 -170.69  137.38

DOCKED: MODEL       34
DOCKED: USER    Run = 34
DOCKED: USER    DPF = ligand_dock.biased.dpf
DOCKED: USER  
DOCKED: USER    Estimated Free Energy of Binding    =  -10.59 kcal/mol  [=(1)+(2)+(3)-(4)]
DOCKED: USER    Estimated Inhibition Constant, Ki   =   17.30 nM (nanomolar)  [Temperature = 298.15 K]
DOCKED: USER    
DOCKED: USER    (1) Final Intermolecular Energy     =  -13.57 kcal/mol
DOCKED: USER        vdW + Hbond + desolv Energy     =  -13.57 kcal/mol
DOCKED: USER        Electrostatic Energy            =   +0.00 kcal/mol
DOCKED: USER    (2) Final Total Internal Energy     =   -2.19 kcal/mol
DOCKED: USER    (3) Torsional Free Energy           =   +2.98 kcal/mol
DOCKED: USER    (4) Unbound System's Energy  [=(2)] =   -2.19 kcal/mol
DOCKED: USER    
DOCKED: USER    
DOCKED: USER    NEWDPF move ligand.pdbqt
DOCKED: USER    NEWDPF about 0.288000 0.007000 -0.056000
DOCKED: USER    NEWDPF tran0 21.347111 -8.850468 -6.888701
DOCKED: USER    NEWDPF quaternion0 0.063862 -0.975027 -0.121806 0.174379
DOCKED: USER    NEWDPF axisangle0 0.064856 -0.990198 -0.123701 159.914921
DOCKED: USER    NEWDPF quat0 0.064856 -0.990198 -0.123701 159.914921
DOCKED: USER    NEWDPF dihe0 155.85 -52.59 75.76 -153.45 175.75 75.04 -173.93 -176.55 -170.69 137.38 
DOCKED: USER  keepresnum = 1 
DOCKED: USER  
DOCKED: REMARK  Name = 
DOCKED: REMARK  10 active torsions:
DOCKED: REMARK  status: ('A' for Active; 'I' for Inactive)
DOCKED: REMARK    1  A    between atoms: C_2  and  C_5
DOCKED: REMARK    2  A    between atoms: C_6  and  C_7
DOCKED: REMARK    3  A    between atoms: C_10  and  C_11
DOCKED: REMARK    4  A    between atoms: C_11  and  N_12
DOCKED: REMARK    5  A    between atoms: N_12  and  C_13
DOCKED: REMARK    6  A    between atoms: N_12  and  C_16
DOCKED: REMARK    7  A    between atoms: C_13  and  C_14
DOCKED: REMARK    8  A    between atoms: C_14  and  O_15
DOCKED: REMARK    9  A    between atoms: C_16  and  C_17
DOCKED: REMARK   10  A    between atoms: C_17  and  C_18
DOCKED: REMARK                            x       y       z     vdW  Elec       q    Type
DOCKED: REMARK                         _______ _______ _______ _____ _____    ______ ____
DOCKED: USER                              x       y       z     vdW  Elec       q    Type
DOCKED: USER                           _______ _______ _______ _____ _____    ______ ____
DOCKED: ROOT
DOCKED: ATOM      1  N   UNL     1      22.609  -9.037  -6.493 -0.24 -0.00    +0.000 N 
DOCKED: ATOM      2  H   UNL     1      23.318  -8.698  -5.843 -0.02 -0.00    +0.000 HD
DOCKED: ENDROOT
DOCKED: BRANCH   1   3
DOCKED: ATOM      3  C   UNL     1      21.327  -8.648  -5.848 -0.23 -0.00    +0.000 C 
DOCKED: BRANCH   3   7
DOCKED: ATOM      4  C   UNL     1      21.081  -9.729  -1.649 -0.55 -0.00    +0.000 A 
DOCKED: ATOM      5  C   UNL     1      20.876 -10.692  -2.649 -0.42 -0.00    +0.000 A 
DOCKED: ATOM      6  C   UNL     1      20.958 -10.345  -4.000 -0.43 -0.00    +0.000 A 
DOCKED: ATOM      7  C   UNL     1      21.219  -9.020  -4.382 -0.32 -0.00    +0.000 A 
DOCKED: ATOM      8  C   UNL     1      21.437  -8.056  -3.384 -0.34 -0.00    +0.000 A 
DOCKED: ATOM      9  C   UNL     1      21.356  -8.401  -2.031 -0.44 -0.00    +0.000 A 
DOCKED: BRANCH   4  11
DOCKED: ATOM     10  C   UNL     1      20.249 -11.196   0.187 -0.63 -0.00    +0.000 C 
DOCKED: ATOM     11  C   UNL     1      20.971 -10.146  -0.229 -0.69 -0.00    +0.000 C 
DOCKED: BRANCH  10  13
DOCKED: ATOM     12  O   UNL     1      19.902 -12.761   1.948 -1.60 -0.00    +0.000 OA
DOCKED: ATOM     13  C   UNL     1      20.158 -11.573   1.611 -0.76 -0.00    +0.000 C 
DOCKED: ATOM     14  N   UNL     1      20.358 -10.581   2.621 -0.65 -0.00    +0.000 N 
DOCKED: ATOM     15  O   UNL     1      20.277 -10.910   3.932 -1.16 -0.00    +0.000 OA
DOCKED: ATOM     16  H   UNL     1      20.557  -9.652   2.361 -0.53 -0.00    +0.000 HD
DOCKED: ENDBRANCH  10  13
DOCKED: ENDBRANCH   4  11
DOCKED: ENDBRANCH   3   7
DOCKED: ENDBRANCH   1   3
DOCKED: BRANCH   1  17
DOCKED: ATOM     17  C   UNL     1      22.910  -8.334  -7.761 -0.15 -0.00    +0.000 C 
DOCKED: BRANCH  17  18
DOCKED: ATOM     18  C   UNL     1      24.413  -8.103  -7.935 -0.16 -0.00    +0.000 C 
DOCKED: BRANCH  18  19
DOCKED: ATOM     19  O   UNL     1      25.110  -8.669  -6.860 -0.30 -0.00    +0.000 OA
DOCKED: ATOM     20  H   UNL     1      25.415  -9.556  -7.105 -0.03 -0.00    +0.000 HD
DOCKED: ENDBRANCH  18  19
DOCKED: ENDBRANCH  17  18
DOCKED: ENDBRANCH   1  17
DOCKED: BRANCH   1  21
DOCKED: ATOM     21  C   UNL     1      22.803 -10.503  -6.585 -0.33 -0.00    +0.000 C 
DOCKED: BRANCH  21  22
DOCKED: ATOM     22  C   UNL     1      22.357 -11.018  -7.958 -0.34 -0.00    +0.000 C 
DOCKED: BRANCH  22  23
DOCKED: ATOM     23  C   UNL     1      23.462 -11.780  -8.630 -0.36 -0.00    +0.000 A 
DOCKED: ATOM     24  C   UNL     1      24.770 -11.907  -8.174 -0.41 -0.00    +0.000 A 
DOCKED: ATOM     25  N   UNL     1      25.460 -12.771  -8.951 -0.38 -0.00    +0.000 N 
DOCKED: ATOM     26  C   UNL     1      24.595 -13.204  -9.885 -0.35 -0.00    +0.000 A 
DOCKED: ATOM     27  C   UNL     1      23.363 -12.625  -9.720 -0.33 -0.00    +0.000 A 
DOCKED: ATOM     28  C   UNL     1      22.286 -12.942 -10.550 -0.06 -0.00    +0.000 A 
DOCKED: ATOM     29  C   UNL     1      22.501 -13.882 -11.574 -0.29 +0.00    +0.000 A 
DOCKED: ATOM     30  C   UNL     1      23.770 -14.478 -11.744 -0.27 +0.00    +0.000 A 
DOCKED: ATOM     31  C   UNL     1      24.835 -14.141 -10.890 -0.32 -0.00    +0.000 A 
DOCKED: ATOM     32  H   UNL     1      26.405 -13.032  -8.854 -0.50 -0.00    +0.000 HD
DOCKED: ENDBRANCH  22  23
DOCKED: ENDBRANCH  21  22
DOCKED: ENDBRANCH   1  21
DOCKED: TORSDOF 10
DOCKED: TER
DOCKED: ENDMDL
________________________________________________________________________________


	BEGINNING GENETIC ALGORITHM DOCKING 35 of 100
Run: 35 Seed: 748035714 326109897 [ Run 35 of 100 GA/GALS ]
Beginning LAMARCKIAN GENETIC ALGORITHM (LGA), with a maximum of 2500000 energy evaluations.

Final-Value: -14.839


	FINAL GENETIC ALGORITHM DOCKED STATE
	_______________________________________________


Detailed state:  trans 20.283 -9.879 -6.838 quatxyzw -0.123950 0.855608 0.430020 -0.260103 center 0.288 0.007 -0.056 ntor 10 150.2676 -93.9676 34.5299 -73.2292 32.3291 180.0000 -171.0078 -142.4130 69.6171 -170.3285
State:	 20.283  -9.879  -6.838  -0.128  0.886  0.445 -149.848    150.27  -93.97   34.53  -73.23   32.33  180.00 -171.01 -142.41   69.62 -170.33

DOCKED: MODEL       35
DOCKED: USER    Run = 35
DOCKED: USER    DPF = ligand_dock.biased.dpf
DOCKED: USER  
DOCKED: USER    Estimated Free Energy of Binding    =   -9.54 kcal/mol  [=(1)+(2)+(3)-(4)]
DOCKED: USER    Estimated Inhibition Constant, Ki   =  102.39 nM (nanomolar)  [Temperature = 298.15 K]
DOCKED: USER    
DOCKED: USER    (1) Final Intermolecular Energy     =  -12.52 kcal/mol
DOCKED: USER        vdW + Hbond + desolv Energy     =  -12.52 kcal/mol
DOCKED: USER        Electrostatic Energy            =   +0.00 kcal/mol
DOCKED: USER    (2) Final Total Internal Energy     =   -2.32 kcal/mol
DOCKED: USER    (3) Torsional Free Energy           =   +2.98 kcal/mol
DOCKED: USER    (4) Unbound System's Energy  [=(2)] =   -2.32 kcal/mol
DOCKED: USER    
DOCKED: USER    
DOCKED: USER    NEWDPF move ligand.pdbqt
DOCKED: USER    NEWDPF about 0.288000 0.007000 -0.056000
DOCKED: USER    NEWDPF tran0 20.282554 -9.878833 -6.837840
DOCKED: USER    NEWDPF quaternion0 -0.123950 0.855608 0.430020 -0.260103
DOCKED: USER    NEWDPF axisangle0 -0.128368 0.886107 0.445349 -149.847627
DOCKED: USER    NEWDPF quat0 -0.128368 0.886107 0.445349 -149.847627
DOCKED: USER    NEWDPF dihe0 150.27 -93.97 34.53 -73.23 32.33 180.00 -171.01 -142.41 69.62 -170.33 
DOCKED: USER  keepresnum = 1 
DOCKED: USER  
DOCKED: REMARK  Name = 
DOCKED: REMARK  10 active torsions:
DOCKED: REMARK  status: ('A' for Active; 'I' for Inactive)
DOCKED: REMARK    1  A    between atoms: C_2  and  C_5
DOCKED: REMARK    2  A    between atoms: C_6  and  C_7
DOCKED: REMARK    3  A    between atoms: C_10  and  C_11
DOCKED: REMARK    4  A    between atoms: C_11  and  N_12
DOCKED: REMARK    5  A    between atoms: N_12  and  C_13
DOCKED: REMARK    6  A    between atoms: N_12  and  C_16
DOCKED: REMARK    7  A    between atoms: C_13  and  C_14
DOCKED: REMARK    8  A    between atoms: C_14  and  O_15
DOCKED: REMARK    9  A    between atoms: C_16  and  C_17
DOCKED: REMARK   10  A    between atoms: C_17  and  C_18
DOCKED: REMARK                            x       y       z     vdW  Elec       q    Type
DOCKED: REMARK                         _______ _______ _______ _____ _____    ______ ____
DOCKED: USER                              x       y       z     vdW  Elec       q    Type
DOCKED: USER                           _______ _______ _______ _____ _____    ______ ____
DOCKED: ROOT
DOCKED: ATOM      1  N   UNL     1      21.500 -10.076  -6.326 -0.29 -0.00    +0.000 N 
DOCKED: ATOM      2  H   UNL     1      22.022 -10.096  -5.450 -0.02 -0.00    +0.000 HD
DOCKED: ENDROOT
DOCKED: BRANCH   1   3
DOCKED: ATOM      3  C   UNL     1      20.101 -10.350  -5.906 -0.33 -0.00    +0.000 C 
DOCKED: BRANCH   3   7
DOCKED: ATOM      4  C   UNL     1      19.522 -10.763  -1.622 -0.40 -0.00    +0.000 A 
DOCKED: ATOM      5  C   UNL     1      18.432 -10.517  -2.470 -0.29 -0.00    +0.000 A 
DOCKED: ATOM      6  C   UNL     1      18.618 -10.387  -3.849 -0.29 -0.00    +0.000 A 
DOCKED: ATOM      7  C   UNL     1      19.903 -10.472  -4.408 -0.37 -0.00    +0.000 A 
DOCKED: ATOM      8  C   UNL     1      20.994 -10.731  -3.562 -0.44 -0.00    +0.000 A 
DOCKED: ATOM      9  C   UNL     1      20.811 -10.862  -2.183 -0.34 -0.00    +0.000 A 
DOCKED: BRANCH   4  11
DOCKED: ATOM     10  C   UNL     1      20.246 -10.891   0.760 -0.68 -0.00    +0.000 C 
DOCKED: ATOM     11  C   UNL     1      19.274 -10.882  -0.163 -0.53 -0.00    +0.000 C 
DOCKED: BRANCH  10  13
DOCKED: ATOM     12  O   UNL     1      19.482 -10.052   2.854 -0.70 -0.00    +0.000 OA
DOCKED: ATOM     13  C   UNL     1      19.959 -11.022   2.202 -0.73 -0.00    +0.000 C 
DOCKED: ATOM     14  N   UNL     1      20.224 -12.258   2.869 -0.68 -0.00    +0.000 N 
DOCKED: ATOM     15  O   UNL     1      19.966 -12.394   4.191 -1.01 -0.00    +0.000 OA
DOCKED: ATOM     16  H   UNL     1      20.596 -13.017   2.363 -0.60 -0.00    +0.000 HD
DOCKED: ENDBRANCH  10  13
DOCKED: ENDBRANCH   4  11
DOCKED: ENDBRANCH   3   7
DOCKED: ENDBRANCH   1   3
DOCKED: BRANCH   1  17
DOCKED: ATOM     17  C   UNL     1      21.737  -8.715  -6.861 -0.19 -0.00    +0.000 C 
DOCKED: BRANCH  17  18
DOCKED: ATOM     18  C   UNL     1      22.476  -7.833  -5.851 -0.18 -0.00    +0.000 C 
DOCKED: BRANCH  18  19
DOCKED: ATOM     19  O   UNL     1      21.996  -8.084  -4.559 -0.32 -0.00    +0.000 OA
DOCKED: ATOM     20  H   UNL     1      22.518  -8.794  -4.153 -0.03 -0.00    +0.000 HD
DOCKED: ENDBRANCH  18  19
DOCKED: ENDBRANCH  17  18
DOCKED: ENDBRANCH   1  17
DOCKED: BRANCH   1  21
DOCKED: ATOM     21  C   UNL     1      22.082 -11.141  -7.177 -0.35 -0.00    +0.000 C 
DOCKED: BRANCH  21  22
DOCKED: ATOM     22  C   UNL     1      22.708 -10.537  -8.438 -0.27 -0.00    +0.000 C 
DOCKED: BRANCH  22  23
DOCKED: ATOM     23  C   UNL     1      24.123 -11.008  -8.613 -0.29 -0.00    +0.000 A 
DOCKED: ATOM     24  C   UNL     1      24.549 -12.041  -9.442 -0.32 -0.00    +0.000 A 
DOCKED: ATOM     25  N   UNL     1      25.900 -12.108  -9.458 -0.32 -0.00    +0.000 N 
DOCKED: ATOM     26  C   UNL     1      26.330 -11.115  -8.659 -0.35 -0.00    +0.000 A 
DOCKED: ATOM     27  C   UNL     1      25.275 -10.419  -8.127 -0.32 -0.00    +0.000 A 
DOCKED: ATOM     28  C   UNL     1      25.469  -9.319  -7.291 -0.27 -0.00    +0.000 A 
DOCKED: ATOM     29  C   UNL     1      26.792  -8.939  -7.002 -0.35 -0.00    +0.000 A 
DOCKED: ATOM     30  C   UNL     1      27.878  -9.656  -7.548 -0.42 -0.00    +0.000 A 
DOCKED: ATOM     31  C   UNL     1      27.652 -10.759  -8.392 -0.36 -0.00    +0.000 A 
DOCKED: ATOM     32  H   UNL     1      26.456 -12.751  -9.953 -0.47 -0.00    +0.000 HD
DOCKED: ENDBRANCH  22  23
DOCKED: ENDBRANCH  21  22
DOCKED: ENDBRANCH   1  21
DOCKED: TORSDOF 10
DOCKED: TER
DOCKED: ENDMDL
________________________________________________________________________________


	BEGINNING GENETIC ALGORITHM DOCKING 36 of 100
Run: 36 Seed: 663003938 1527462570 [ Run 36 of 100 GA/GALS ]
Beginning LAMARCKIAN GENETIC ALGORITHM (LGA), with a maximum of 2500000 energy evaluations.

Final-Value: -14.629


	FINAL GENETIC ALGORITHM DOCKED STATE
	_______________________________________________


Detailed state:  trans 19.460 -10.818 -0.054 quatxyzw 0.044465 -0.090448 -0.993498 -0.052950 center 0.288 0.007 -0.056 ntor 10 -103.8902 178.8556 -5.4085 -130.0593 92.5635 -179.5878 173.0824 -3.2389 9.7376 -10.7445
State:	 19.460 -10.818  -0.054   0.045 -0.091 -0.995 -173.930   -103.89  178.86   -5.41 -130.06   92.56 -179.59  173.08   -3.24    9.74  -10.74

DOCKED: MODEL       36
DOCKED: USER    Run = 36
DOCKED: USER    DPF = ligand_dock.biased.dpf
DOCKED: USER  
DOCKED: USER    Estimated Free Energy of Binding    =   -9.83 kcal/mol  [=(1)+(2)+(3)-(4)]
DOCKED: USER    Estimated Inhibition Constant, Ki   =   62.46 nM (nanomolar)  [Temperature = 298.15 K]
DOCKED: USER    
DOCKED: USER    (1) Final Intermolecular Energy     =  -12.81 kcal/mol
DOCKED: USER        vdW + Hbond + desolv Energy     =  -12.81 kcal/mol
DOCKED: USER        Electrostatic Energy            =   +0.00 kcal/mol
DOCKED: USER    (2) Final Total Internal Energy     =   -1.82 kcal/mol
DOCKED: USER    (3) Torsional Free Energy           =   +2.98 kcal/mol
DOCKED: USER    (4) Unbound System's Energy  [=(2)] =   -1.82 kcal/mol
DOCKED: USER    
DOCKED: USER    
DOCKED: USER    NEWDPF move ligand.pdbqt
DOCKED: USER    NEWDPF about 0.288000 0.007000 -0.056000
DOCKED: USER    NEWDPF tran0 19.460118 -10.817992 -0.054007
DOCKED: USER    NEWDPF quaternion0 0.044465 -0.090448 -0.993498 -0.052950
DOCKED: USER    NEWDPF axisangle0 0.044527 -0.090575 -0.994894 -173.929542
DOCKED: USER    NEWDPF quat0 0.044527 -0.090575 -0.994894 -173.929542
DOCKED: USER    NEWDPF dihe0 -103.89 178.86 -5.41 -130.06 92.56 -179.59 173.08 -3.24 9.74 -10.74 
DOCKED: USER  keepresnum = 1 
DOCKED: USER  
DOCKED: REMARK  Name = 
DOCKED: REMARK  10 active torsions:
DOCKED: REMARK  status: ('A' for Active; 'I' for Inactive)
DOCKED: REMARK    1  A    between atoms: C_2  and  C_5
DOCKED: REMARK    2  A    between atoms: C_6  and  C_7
DOCKED: REMARK    3  A    between atoms: C_10  and  C_11
DOCKED: REMARK    4  A    between atoms: C_11  and  N_12
DOCKED: REMARK    5  A    between atoms: N_12  and  C_13
DOCKED: REMARK    6  A    between atoms: N_12  and  C_16
DOCKED: REMARK    7  A    between atoms: C_13  and  C_14
DOCKED: REMARK    8  A    between atoms: C_14  and  O_15
DOCKED: REMARK    9  A    between atoms: C_16  and  C_17
DOCKED: REMARK   10  A    between atoms: C_17  and  C_18
DOCKED: REMARK                            x       y       z     vdW  Elec       q    Type
DOCKED: REMARK                         _______ _______ _______ _____ _____    ______ ____
DOCKED: USER                              x       y       z     vdW  Elec       q    Type
DOCKED: USER                           _______ _______ _______ _____ _____    ______ ____
DOCKED: ROOT
DOCKED: ATOM      1  N   UNL     1      20.718 -10.372  -0.007 -0.62 -0.00    +0.000 N 
DOCKED: ATOM      2  H   UNL     1      21.689 -10.656  -0.138 -0.08 -0.00    +0.000 HD
DOCKED: ENDROOT
DOCKED: BRANCH   1   3
DOCKED: ATOM      3  C   UNL     1      19.954 -11.347  -0.829 -0.13 -0.00    +0.000 C 
DOCKED: BRANCH   3   7
DOCKED: ATOM      4  C   UNL     1      15.706 -11.598   0.039 -0.36 +0.00    +0.000 A 
DOCKED: ATOM      5  C   UNL     1      16.166 -10.891  -1.083 -0.28 -0.00    +0.000 A 
DOCKED: ATOM      6  C   UNL     1      17.533 -10.813  -1.363 -0.27 -0.00    +0.000 A 
DOCKED: ATOM      7  C   UNL     1      18.472 -11.416  -0.513 -0.43 -0.00    +0.000 A 
DOCKED: ATOM      8  C   UNL     1      18.014 -12.135   0.603 -0.49 -0.00    +0.000 A 
DOCKED: ATOM      9  C   UNL     1      16.647 -12.215   0.886 -0.43 +0.00    +0.000 A 
DOCKED: BRANCH   4  11
DOCKED: ATOM     10  C   UNL     1      13.646 -10.979   1.299 -0.36 +0.00    +0.000 C 
DOCKED: ATOM     11  C   UNL     1      14.245 -11.642   0.299 -0.43 +0.00    +0.000 C 
DOCKED: BRANCH  10  13
DOCKED: ATOM     12  O   UNL     1      11.508 -10.009   1.701 -0.22 +0.00    +0.000 OA
DOCKED: ATOM     13  C   UNL     1      12.190 -11.057   1.531 -0.36 +0.00    +0.000 C 
DOCKED: ATOM     14  N   UNL     1      11.545 -12.332   1.567 -0.43 +0.00    +0.000 N 
DOCKED: ATOM     15  O   UNL     1      10.211 -12.421   1.780 -0.54 +0.00    +0.000 OA
DOCKED: ATOM     16  H   UNL     1      12.075 -13.152   1.436 -0.55 +0.00    +0.000 HD
DOCKED: ENDBRANCH  10  13
DOCKED: ENDBRANCH   4  11
DOCKED: ENDBRANCH   3   7
DOCKED: ENDBRANCH   1   3
DOCKED: BRANCH   1  17
DOCKED: ATOM     17  C   UNL     1      20.500 -10.479   1.454 -0.61 -0.00    +0.000 C 
DOCKED: BRANCH  17  18
DOCKED: ATOM     18  C   UNL     1      21.013 -11.812   2.005 -0.51 -0.00    +0.000 C 
DOCKED: BRANCH  18  19
DOCKED: ATOM     19  O   UNL     1      19.994 -12.457   2.719 -1.69 -0.00    +0.000 OA
DOCKED: ATOM     20  H   UNL     1      20.378 -13.158   3.267 -0.59 -0.00    +0.000 HD
DOCKED: ENDBRANCH  18  19
DOCKED: ENDBRANCH  17  18
DOCKED: ENDBRANCH   1  17
DOCKED: BRANCH   1  21
DOCKED: ATOM     21  C   UNL     1      20.626  -8.979  -0.504 -0.28 -0.00    +0.000 C 
DOCKED: BRANCH  21  22
DOCKED: ATOM     22  C   UNL     1      21.766  -8.684  -1.485 -0.16 -0.00    +0.000 C 
DOCKED: BRANCH  22  23
DOCKED: ATOM     23  C   UNL     1      21.238  -8.492  -2.878 -0.40 -0.00    +0.000 A 
DOCKED: ATOM     24  C   UNL     1      20.996  -7.275  -3.506 -0.32 -0.00    +0.000 A 
DOCKED: ATOM     25  N   UNL     1      20.653  -7.470  -4.799 -0.19 -0.00    +0.000 N 
DOCKED: ATOM     26  C   UNL     1      20.692  -8.799  -4.998 -0.23 -0.00    +0.000 A 
DOCKED: ATOM     27  C   UNL     1      21.049  -9.458  -3.849 -0.39 -0.00    +0.000 A 
DOCKED: ATOM     28  C   UNL     1      21.191 -10.846  -3.813 -0.45 -0.00    +0.000 A 
DOCKED: ATOM     29  C   UNL     1      20.954 -11.561  -5.001 -0.48 -0.00    +0.000 A 
DOCKED: ATOM     30  C   UNL     1      20.586 -10.883  -6.183 -0.33 -0.00    +0.000 A 
DOCKED: ATOM     31  C   UNL     1      20.454  -9.482  -6.190 -0.20 -0.00    +0.000 A 
DOCKED: ATOM     32  H   UNL     1      20.422  -6.780  -5.462 +0.00 -0.00    +0.000 HD
DOCKED: ENDBRANCH  22  23
DOCKED: ENDBRANCH  21  22
DOCKED: ENDBRANCH   1  21
DOCKED: TORSDOF 10
DOCKED: TER
DOCKED: ENDMDL
________________________________________________________________________________


	BEGINNING GENETIC ALGORITHM DOCKING 37 of 100
Run: 37 Seed: 777711703 760509177 [ Run 37 of 100 GA/GALS ]
Beginning LAMARCKIAN GENETIC ALGORITHM (LGA), with a maximum of 2500000 energy evaluations.

Final-Value: -14.515


	FINAL GENETIC ALGORITHM DOCKED STATE
	_______________________________________________


Detailed state:  trans 20.482 -6.091 -6.038 quatxyzw 0.168189 -0.771813 -0.587383 0.176062 center 0.288 0.007 -0.056 ntor 10 25.2213 -94.3116 67.2689 -91.0248 141.4859 -142.4964 -158.8183 -35.6675 134.0806 180.0000
State:	 20.482  -6.091  -6.038   0.171 -0.784 -0.597 159.719     25.22  -94.31   67.27  -91.02  141.49 -142.50 -158.82  -35.67  134.08  180.00

DOCKED: MODEL       37
DOCKED: USER    Run = 37
DOCKED: USER    DPF = ligand_dock.biased.dpf
DOCKED: USER  
DOCKED: USER    Estimated Free Energy of Binding    =   -8.86 kcal/mol  [=(1)+(2)+(3)-(4)]
DOCKED: USER    Estimated Inhibition Constant, Ki   =  320.96 nM (nanomolar)  [Temperature = 298.15 K]
DOCKED: USER    
DOCKED: USER    (1) Final Intermolecular Energy     =  -11.84 kcal/mol
DOCKED: USER        vdW + Hbond + desolv Energy     =  -11.84 kcal/mol
DOCKED: USER        Electrostatic Energy            =   +0.00 kcal/mol
DOCKED: USER    (2) Final Total Internal Energy     =   -2.67 kcal/mol
DOCKED: USER    (3) Torsional Free Energy           =   +2.98 kcal/mol
DOCKED: USER    (4) Unbound System's Energy  [=(2)] =   -2.67 kcal/mol
DOCKED: USER    
DOCKED: USER    
DOCKED: USER    NEWDPF move ligand.pdbqt
DOCKED: USER    NEWDPF about 0.288000 0.007000 -0.056000
DOCKED: USER    NEWDPF tran0 20.481681 -6.091003 -6.037749
DOCKED: USER    NEWDPF quaternion0 0.168189 -0.771813 -0.587383 0.176062
DOCKED: USER    NEWDPF axisangle0 0.170858 -0.784061 -0.596704 159.719014
DOCKED: USER    NEWDPF quat0 0.170858 -0.784061 -0.596704 159.719014
DOCKED: USER    NEWDPF dihe0 25.22 -94.31 67.27 -91.02 141.49 -142.50 -158.82 -35.67 134.08 180.00 
DOCKED: USER  keepresnum = 1 
DOCKED: USER  
DOCKED: REMARK  Name = 
DOCKED: REMARK  10 active torsions:
DOCKED: REMARK  status: ('A' for Active; 'I' for Inactive)
DOCKED: REMARK    1  A    between atoms: C_2  and  C_5
DOCKED: REMARK    2  A    between atoms: C_6  and  C_7
DOCKED: REMARK    3  A    between atoms: C_10  and  C_11
DOCKED: REMARK    4  A    between atoms: C_11  and  N_12
DOCKED: REMARK    5  A    between atoms: N_12  and  C_13
DOCKED: REMARK    6  A    between atoms: N_12  and  C_16
DOCKED: REMARK    7  A    between atoms: C_13  and  C_14
DOCKED: REMARK    8  A    between atoms: C_14  and  O_15
DOCKED: REMARK    9  A    between atoms: C_16  and  C_17
DOCKED: REMARK   10  A    between atoms: C_17  and  C_18
DOCKED: REMARK                            x       y       z     vdW  Elec       q    Type
DOCKED: REMARK                         _______ _______ _______ _____ _____    ______ ____
DOCKED: USER                              x       y       z     vdW  Elec       q    Type
DOCKED: USER                           _______ _______ _______ _____ _____    ______ ____
DOCKED: ROOT
DOCKED: ATOM      1  N   UNL     1      21.770  -6.099  -5.686 -0.12 -0.00    +0.000 N 
DOCKED: ATOM      2  H   UNL     1      22.397  -6.226  -4.892 -0.01 -0.00    +0.000 HD
DOCKED: ENDROOT
DOCKED: BRANCH   1   3
DOCKED: ATOM      3  C   UNL     1      20.542  -6.834  -5.284 -0.16 -0.00    +0.000 C 
DOCKED: BRANCH   3   7
DOCKED: ATOM      4  C   UNL     1      20.955  -9.074  -1.587 -0.50 -0.00    +0.000 A 
DOCKED: ATOM      5  C   UNL     1      20.373  -9.664  -2.719 -0.42 -0.00    +0.000 A 
DOCKED: ATOM      6  C   UNL     1      20.243  -8.944  -3.910 -0.30 -0.00    +0.000 A 
DOCKED: ATOM      7  C   UNL     1      20.666  -7.608  -3.986 -0.27 -0.00    +0.000 A 
DOCKED: ATOM      8  C   UNL     1      21.261  -7.019  -2.858 -0.38 -0.00    +0.000 A 
DOCKED: ATOM      9  C   UNL     1      21.392  -7.738  -1.666 -0.39 -0.00    +0.000 A 
DOCKED: BRANCH   4  11
DOCKED: ATOM     10  C   UNL     1      20.005 -10.405   0.295 -0.60 -0.00    +0.000 C 
DOCKED: ATOM     11  C   UNL     1      21.060  -9.878  -0.342 -0.69 -0.00    +0.000 C 
DOCKED: BRANCH  10  13
DOCKED: ATOM     12  O   UNL     1      20.270 -12.445   1.495 -1.64 -0.00    +0.000 OA
DOCKED: ATOM     13  C   UNL     1      20.150 -11.190   1.537 -0.73 -0.00    +0.000 C 
DOCKED: ATOM     14  N   UNL     1      20.153 -10.523   2.801 -0.66 -0.00    +0.000 N 
DOCKED: ATOM     15  O   UNL     1      20.285 -11.229   3.949 -1.20 -0.00    +0.000 OA
DOCKED: ATOM     16  H   UNL     1      20.059  -9.543   2.838 -0.55 -0.00    +0.000 HD
DOCKED: ENDBRANCH  10  13
DOCKED: ENDBRANCH   4  11
DOCKED: ENDBRANCH   3   7
DOCKED: ENDBRANCH   1   3
DOCKED: BRANCH   1  17
DOCKED: ATOM     17  C   UNL     1      21.612  -4.630  -5.796 -0.07 -0.00    +0.000 C 
DOCKED: BRANCH  17  18
DOCKED: ATOM     18  C   UNL     1      22.809  -3.888  -5.196 -0.09 -0.00    +0.000 C 
DOCKED: BRANCH  18  19
DOCKED: ATOM     19  O   UNL     1      23.231  -4.532  -4.025 -0.19 -0.00    +0.000 OA
DOCKED: ATOM     20  H   UNL     1      22.460  -4.892  -3.559 -0.01 -0.00    +0.000 HD
DOCKED: ENDBRANCH  18  19
DOCKED: ENDBRANCH  17  18
DOCKED: ENDBRANCH   1  17
DOCKED: BRANCH   1  21
DOCKED: ATOM     21  C   UNL     1      22.460  -6.694  -6.855 -0.11 -0.00    +0.000 C 
DOCKED: BRANCH  21  22
DOCKED: ATOM     22  C   UNL     1      23.913  -7.031  -6.506 -0.11 -0.00    +0.000 C 
DOCKED: BRANCH  22  23
DOCKED: ATOM     23  C   UNL     1      24.320  -8.343  -7.113 -0.16 -0.00    +0.000 A 
DOCKED: ATOM     24  C   UNL     1      25.519  -8.611  -7.765 -0.21 -0.00    +0.000 A 
DOCKED: ATOM     25  N   UNL     1      25.610  -9.926  -8.066 -0.30 -0.00    +0.000 N 
DOCKED: ATOM     26  C   UNL     1      24.485 -10.493  -7.597 -0.30 -0.00    +0.000 A 
DOCKED: ATOM     27  C   UNL     1      23.674  -9.560  -7.004 -0.21 -0.00    +0.000 A 
DOCKED: ATOM     28  C   UNL     1      22.461  -9.913  -6.410 -0.28 -0.00    +0.000 A 
DOCKED: ATOM     29  C   UNL     1      22.088 -11.269  -6.437 -0.41 -0.00    +0.000 A 
DOCKED: ATOM     30  C   UNL     1      22.923 -12.230  -7.047 -0.33 -0.00    +0.000 A 
DOCKED: ATOM     31  C   UNL     1      24.142 -11.844  -7.635 -0.43 -0.00    +0.000 A 
DOCKED: ATOM     32  H   UNL     1      26.349 -10.377  -8.535 -0.01 -0.00    +0.000 HD
DOCKED: ENDBRANCH  22  23
DOCKED: ENDBRANCH  21  22
DOCKED: ENDBRANCH   1  21
DOCKED: TORSDOF 10
DOCKED: TER
DOCKED: ENDMDL
________________________________________________________________________________


	BEGINNING GENETIC ALGORITHM DOCKING 38 of 100
Run: 38 Seed: 417217767 1151404485 [ Run 38 of 100 GA/GALS ]
Beginning LAMARCKIAN GENETIC ALGORITHM (LGA), with a maximum of 2500000 energy evaluations.

Final-Value: -15.232


	FINAL GENETIC ALGORITHM DOCKED STATE
	_______________________________________________


Detailed state:  trans 20.456 -9.318 -6.365 quatxyzw -0.558687 -0.647433 -0.346447 0.385582 center 0.288 0.007 -0.056 ntor 10 165.1366 -106.7599 66.1942 -106.5555 33.8740 135.5562 165.6934 19.8273 -33.1445 -147.9998
State:	 20.456  -9.318  -6.365  -0.606 -0.702 -0.375 134.640    165.14 -106.76   66.19 -106.56   33.87  135.56  165.69   19.83  -33.14 -148.00

DOCKED: MODEL       38
DOCKED: USER    Run = 38
DOCKED: USER    DPF = ligand_dock.biased.dpf
DOCKED: USER  
DOCKED: USER    Estimated Free Energy of Binding    =   -9.66 kcal/mol  [=(1)+(2)+(3)-(4)]
DOCKED: USER    Estimated Inhibition Constant, Ki   =   83.30 nM (nanomolar)  [Temperature = 298.15 K]
DOCKED: USER    
DOCKED: USER    (1) Final Intermolecular Energy     =  -12.64 kcal/mol
DOCKED: USER        vdW + Hbond + desolv Energy     =  -12.64 kcal/mol
DOCKED: USER        Electrostatic Energy            =   +0.00 kcal/mol
DOCKED: USER    (2) Final Total Internal Energy     =   -2.59 kcal/mol
DOCKED: USER    (3) Torsional Free Energy           =   +2.98 kcal/mol
DOCKED: USER    (4) Unbound System's Energy  [=(2)] =   -2.59 kcal/mol
DOCKED: USER    
DOCKED: USER    
DOCKED: USER    NEWDPF move ligand.pdbqt
DOCKED: USER    NEWDPF about 0.288000 0.007000 -0.056000
DOCKED: USER    NEWDPF tran0 20.455893 -9.317722 -6.364772
DOCKED: USER    NEWDPF quaternion0 -0.558687 -0.647433 -0.346447 0.385582
DOCKED: USER    NEWDPF axisangle0 -0.605509 -0.701692 -0.375482 134.640213
DOCKED: USER    NEWDPF quat0 -0.605509 -0.701692 -0.375482 134.640213
DOCKED: USER    NEWDPF dihe0 165.14 -106.76 66.19 -106.56 33.87 135.56 165.69 19.83 -33.14 -148.00 
DOCKED: USER  keepresnum = 1 
DOCKED: USER  
DOCKED: REMARK  Name = 
DOCKED: REMARK  10 active torsions:
DOCKED: REMARK  status: ('A' for Active; 'I' for Inactive)
DOCKED: REMARK    1  A    between atoms: C_2  and  C_5
DOCKED: REMARK    2  A    between atoms: C_6  and  C_7
DOCKED: REMARK    3  A    between atoms: C_10  and  C_11
DOCKED: REMARK    4  A    between atoms: C_11  and  N_12
DOCKED: REMARK    5  A    between atoms: N_12  and  C_13
DOCKED: REMARK    6  A    between atoms: N_12  and  C_16
DOCKED: REMARK    7  A    between atoms: C_13  and  C_14
DOCKED: REMARK    8  A    between atoms: C_14  and  O_15
DOCKED: REMARK    9  A    between atoms: C_16  and  C_17
DOCKED: REMARK   10  A    between atoms: C_17  and  C_18
DOCKED: REMARK                            x       y       z     vdW  Elec       q    Type
DOCKED: REMARK                         _______ _______ _______ _____ _____    ______ ____
DOCKED: USER                              x       y       z     vdW  Elec       q    Type
DOCKED: USER                           _______ _______ _______ _____ _____    ______ ____
DOCKED: ROOT
DOCKED: ATOM      1  N   UNL     1      20.420 -10.647  -6.488 -0.30 -0.00    +0.000 N 
DOCKED: ATOM      2  H   UNL     1      20.408 -11.515  -5.952 -0.19 -0.00    +0.000 HD
DOCKED: ENDROOT
DOCKED: BRANCH   1   3
DOCKED: ATOM      3  C   UNL     1      19.880  -9.641  -5.536 -0.25 -0.00    +0.000 C 
DOCKED: BRANCH   3   7
DOCKED: ATOM      4  C   UNL     1      20.475 -10.551  -1.331 -0.50 -0.00    +0.000 A 
DOCKED: ATOM      5  C   UNL     1      21.571 -10.427  -2.198 -0.40 -0.00    +0.000 A 
DOCKED: ATOM      6  C   UNL     1      21.380 -10.131  -3.551 -0.45 -0.00    +0.000 A 
DOCKED: ATOM      7  C   UNL     1      20.085  -9.981  -4.073 -0.34 -0.00    +0.000 A 
DOCKED: ATOM      8  C   UNL     1      18.987 -10.091  -3.204 -0.31 -0.00    +0.000 A 
DOCKED: ATOM      9  C   UNL     1      19.176 -10.386  -1.851 -0.32 -0.00    +0.000 A 
DOCKED: BRANCH   4  11
DOCKED: ATOM     10  C   UNL     1      19.777 -11.267   0.952 -0.68 -0.00    +0.000 C 
DOCKED: ATOM     11  C   UNL     1      20.731 -10.877   0.094 -0.68 -0.00    +0.000 C 
DOCKED: BRANCH  10  13
DOCKED: ATOM     12  O   UNL     1      20.056 -12.763   2.784 -1.48 -0.00    +0.000 OA
DOCKED: ATOM     13  C   UNL     1      20.070 -11.573   2.366 -0.77 -0.00    +0.000 C 
DOCKED: ATOM     14  N   UNL     1      20.371 -10.510   3.273 -0.68 -0.00    +0.000 N 
DOCKED: ATOM     15  O   UNL     1      20.642 -10.773   4.574 -0.72 -0.00    +0.000 OA
DOCKED: ATOM     16  H   UNL     1      20.383  -9.579   2.951 -0.57 -0.00    +0.000 HD
DOCKED: ENDBRANCH  10  13
DOCKED: ENDBRANCH   4  11
DOCKED: ENDBRANCH   3   7
DOCKED: ENDBRANCH   1   3
DOCKED: BRANCH   1  17
DOCKED: ATOM     17  C   UNL     1      21.843 -10.462  -6.853 -0.35 -0.00    +0.000 C 
DOCKED: BRANCH  17  18
DOCKED: ATOM     18  C   UNL     1      22.603 -11.791  -6.855 -0.39 -0.00    +0.000 C 
DOCKED: BRANCH  18  19
DOCKED: ATOM     19  O   UNL     1      22.398 -12.458  -5.641 -0.78 -0.00    +0.000 OA
DOCKED: ATOM     20  H   UNL     1      21.779 -13.193  -5.776 -0.63 -0.00    +0.000 HD
DOCKED: ENDBRANCH  18  19
DOCKED: ENDBRANCH  17  18
DOCKED: ENDBRANCH   1  17
DOCKED: BRANCH   1  21
DOCKED: ATOM     21  C   UNL     1      19.547 -10.877  -7.663 -0.25 -0.00    +0.000 C 
DOCKED: BRANCH  21  22
DOCKED: ATOM     22  C   UNL     1      18.244 -11.564  -7.238 -0.24 -0.00    +0.000 C 
DOCKED: BRANCH  22  23
DOCKED: ATOM     23  C   UNL     1      17.101 -10.590  -7.234 -0.25 -0.00    +0.000 A 
DOCKED: ATOM     24  C   UNL     1      16.706  -9.782  -8.294 -0.13 -0.00    +0.000 A 
DOCKED: ATOM     25  N   UNL     1      15.561  -9.130  -7.990 -0.06 -0.00    +0.000 N 
DOCKED: ATOM     26  C   UNL     1      15.221  -9.532  -6.753 -0.09 -0.00    +0.000 A 
DOCKED: ATOM     27  C   UNL     1      16.135 -10.427  -6.259 -0.20 -0.00    +0.000 A 
DOCKED: ATOM     28  C   UNL     1      15.981 -11.015  -5.002 -0.17 -0.00    +0.000 A 
DOCKED: ATOM     29  C   UNL     1      14.850 -10.658  -4.245 -0.24 -0.00    +0.000 A 
DOCKED: ATOM     30  C   UNL     1      13.909  -9.736  -4.754 -0.15 -0.00    +0.000 A 
DOCKED: ATOM     31  C   UNL     1      14.090  -9.163  -6.026 -0.07 -0.00    +0.000 A 
DOCKED: ATOM     32  H   UNL     1      15.074  -8.490  -8.559 +0.00 -0.00    +0.000 HD
DOCKED: ENDBRANCH  22  23
DOCKED: ENDBRANCH  21  22
DOCKED: ENDBRANCH   1  21
DOCKED: TORSDOF 10
DOCKED: TER
DOCKED: ENDMDL
________________________________________________________________________________


	BEGINNING GENETIC ALGORITHM DOCKING 39 of 100
Run: 39 Seed: 1327506580 212819246 [ Run 39 of 100 GA/GALS ]
Beginning LAMARCKIAN GENETIC ALGORITHM (LGA), with a maximum of 2500000 energy evaluations.

Final-Value: -14.148


	FINAL GENETIC ALGORITHM DOCKED STATE
	_______________________________________________


Detailed state:  trans 20.936 -9.106 -6.503 quatxyzw 0.182724 -0.749067 -0.597792 0.219442 center 0.288 0.007 -0.056 ntor 10 74.4689 179.2119 123.2292 96.4204 145.0822 -175.3746 -118.6364 48.7577 -91.4639 -151.3645
State:	 20.936  -9.106  -6.503   0.187 -0.768 -0.613 154.647     74.47  179.21  123.23   96.42  145.08 -175.37 -118.64   48.76  -91.46 -151.36

DOCKED: MODEL       39
DOCKED: USER    Run = 39
DOCKED: USER    DPF = ligand_dock.biased.dpf
DOCKED: USER  
DOCKED: USER    Estimated Free Energy of Binding    =   -9.81 kcal/mol  [=(1)+(2)+(3)-(4)]
DOCKED: USER    Estimated Inhibition Constant, Ki   =   63.91 nM (nanomolar)  [Temperature = 298.15 K]
DOCKED: USER    
DOCKED: USER    (1) Final Intermolecular Energy     =  -12.80 kcal/mol
DOCKED: USER        vdW + Hbond + desolv Energy     =  -12.80 kcal/mol
DOCKED: USER        Electrostatic Energy            =   +0.00 kcal/mol
DOCKED: USER    (2) Final Total Internal Energy     =   -1.35 kcal/mol
DOCKED: USER    (3) Torsional Free Energy           =   +2.98 kcal/mol
DOCKED: USER    (4) Unbound System's Energy  [=(2)] =   -1.35 kcal/mol
DOCKED: USER    
DOCKED: USER    
DOCKED: USER    NEWDPF move ligand.pdbqt
DOCKED: USER    NEWDPF about 0.288000 0.007000 -0.056000
DOCKED: USER    NEWDPF tran0 20.935544 -9.105676 -6.503328
DOCKED: USER    NEWDPF quaternion0 0.182724 -0.749067 -0.597792 0.219442
DOCKED: USER    NEWDPF axisangle0 0.187289 -0.767781 -0.612727 154.647457
DOCKED: USER    NEWDPF quat0 0.187289 -0.767781 -0.612727 154.647457
DOCKED: USER    NEWDPF dihe0 74.47 179.21 123.23 96.42 145.08 -175.37 -118.64 48.76 -91.46 -151.36 
DOCKED: USER  keepresnum = 1 
DOCKED: USER  
DOCKED: REMARK  Name = 
DOCKED: REMARK  10 active torsions:
DOCKED: REMARK  status: ('A' for Active; 'I' for Inactive)
DOCKED: REMARK    1  A    between atoms: C_2  and  C_5
DOCKED: REMARK    2  A    between atoms: C_6  and  C_7
DOCKED: REMARK    3  A    between atoms: C_10  and  C_11
DOCKED: REMARK    4  A    between atoms: C_11  and  N_12
DOCKED: REMARK    5  A    between atoms: N_12  and  C_13
DOCKED: REMARK    6  A    between atoms: N_12  and  C_16
DOCKED: REMARK    7  A    between atoms: C_13  and  C_14
DOCKED: REMARK    8  A    between atoms: C_14  and  O_15
DOCKED: REMARK    9  A    between atoms: C_16  and  C_17
DOCKED: REMARK   10  A    between atoms: C_17  and  C_18
DOCKED: REMARK                            x       y       z     vdW  Elec       q    Type
DOCKED: REMARK                         _______ _______ _______ _____ _____    ______ ____
DOCKED: USER                              x       y       z     vdW  Elec       q    Type
DOCKED: USER                           _______ _______ _______ _____ _____    ______ ____
DOCKED: ROOT
DOCKED: ATOM      1  N   UNL     1      22.187  -9.157  -6.041 -0.26 -0.00    +0.000 N 
DOCKED: ATOM      2  H   UNL     1      22.740  -9.336  -5.203 -0.03 -0.00    +0.000 HD
DOCKED: ENDROOT
DOCKED: BRANCH   1   3
DOCKED: ATOM      3  C   UNL     1      20.918  -9.887  -5.788 -0.32 -0.00    +0.000 C 
DOCKED: BRANCH   3   7
DOCKED: ATOM      4  C   UNL     1      20.034 -10.577  -1.592 -0.45 -0.00    +0.000 A 
DOCKED: ATOM      5  C   UNL     1      21.197  -9.891  -1.975 -0.52 -0.00    +0.000 A 
DOCKED: ATOM      6  C   UNL     1      21.480  -9.667  -3.324 -0.40 -0.00    +0.000 A 
DOCKED: ATOM      7  C   UNL     1      20.620 -10.149  -4.324 -0.38 -0.00    +0.000 A 
DOCKED: ATOM      8  C   UNL     1      19.449 -10.825  -3.944 -0.38 -0.00    +0.000 A 
DOCKED: ATOM      9  C   UNL     1      19.164 -11.050  -2.594 -0.33 -0.00    +0.000 A 
DOCKED: BRANCH   4  11
DOCKED: ATOM     10  C   UNL     1      20.651 -11.410   0.675 -0.64 -0.00    +0.000 C 
DOCKED: ATOM     11  C   UNL     1      19.784 -10.800  -0.146 -0.58 -0.00    +0.000 C 
DOCKED: BRANCH  10  13
DOCKED: ATOM     12  O   UNL     1      19.870 -12.712   2.510 -1.53 -0.00    +0.000 OA
DOCKED: ATOM     13  C   UNL     1      20.361 -11.622   2.107 -0.78 -0.00    +0.000 C 
DOCKED: ATOM     14  N   UNL     1      20.638 -10.582   3.048 -0.64 -0.00    +0.000 N 
DOCKED: ATOM     15  O   UNL     1      20.377 -10.761   4.364 -0.86 -0.00    +0.000 OA
DOCKED: ATOM     16  H   UNL     1      21.022  -9.730   2.736 -0.60 -0.00    +0.000 HD
DOCKED: ENDBRANCH  10  13
DOCKED: ENDBRANCH   4  11
DOCKED: ENDBRANCH   3   7
DOCKED: ENDBRANCH   1   3
DOCKED: BRANCH   1  17
DOCKED: ATOM     17  C   UNL     1      22.061  -7.681  -6.086 -0.19 -0.00    +0.000 C 
DOCKED: BRANCH  17  18
DOCKED: ATOM     18  C   UNL     1      23.313  -7.026  -6.675 -0.15 -0.00    +0.000 C 
DOCKED: BRANCH  18  19
DOCKED: ATOM     19  O   UNL     1      23.807  -6.059  -5.790 -0.17 -0.00    +0.000 OA
DOCKED: ATOM     20  H   UNL     1      23.391  -6.175  -4.921 -0.02 -0.00    +0.000 HD
DOCKED: ENDBRANCH  18  19
DOCKED: ENDBRANCH  17  18
DOCKED: ENDBRANCH   1  17
DOCKED: BRANCH   1  21
DOCKED: ATOM     21  C   UNL     1      22.969  -9.704  -7.174 -0.28 -0.00    +0.000 C 
DOCKED: BRANCH  21  22
DOCKED: ATOM     22  C   UNL     1      22.902 -11.235  -7.182 -0.46 -0.00    +0.000 C 
DOCKED: BRANCH  22  23
DOCKED: ATOM     23  C   UNL     1      23.696 -11.801  -8.324 -0.40 -0.00    +0.000 A 
DOCKED: ATOM     24  C   UNL     1      24.954 -12.390  -8.239 -0.28 -0.00    +0.000 A 
DOCKED: ATOM     25  N   UNL     1      25.314 -12.910  -9.434 -0.37 -0.00    +0.000 N 
DOCKED: ATOM     26  C   UNL     1      24.289 -12.668 -10.269 -0.28 -0.00    +0.000 A 
DOCKED: ATOM     27  C   UNL     1      23.279 -11.996  -9.627 -0.28 -0.00    +0.000 A 
DOCKED: ATOM     28  C   UNL     1      22.091 -11.662 -10.278 -0.17 -0.00    +0.000 A 
DOCKED: ATOM     29  C   UNL     1      21.954 -12.035 -11.627 -0.13 -0.00    +0.000 A 
DOCKED: ATOM     30  C   UNL     1      22.993 -12.726 -12.288 -0.13 -0.00    +0.000 A 
DOCKED: ATOM     31  C   UNL     1      24.179 -13.053 -11.605 -0.17 -0.00    +0.000 A 
DOCKED: ATOM     32  H   UNL     1      26.157 -13.371  -9.650 -0.60 -0.00    +0.000 HD
DOCKED: ENDBRANCH  22  23
DOCKED: ENDBRANCH  21  22
DOCKED: ENDBRANCH   1  21
DOCKED: TORSDOF 10
DOCKED: TER
DOCKED: ENDMDL
________________________________________________________________________________


	BEGINNING GENETIC ALGORITHM DOCKING 40 of 100
Run: 40 Seed: 288075789 1141216757 [ Run 40 of 100 GA/GALS ]
Beginning LAMARCKIAN GENETIC ALGORITHM (LGA), with a maximum of 2500000 energy evaluations.

Final-Value: -15.783


	FINAL GENETIC ALGORITHM DOCKED STATE
	_______________________________________________


Detailed state:  trans 20.949 -9.285 -6.764 quatxyzw -0.562649 -0.782446 -0.133076 0.231290 center 0.288 0.007 -0.056 ntor 10 130.6716 -83.6084 64.1356 91.8203 179.1878 43.3479 -101.2435 97.7909 2.9273 152.5827
State:	 20.949  -9.285  -6.764  -0.578 -0.804 -0.137 153.254    130.67  -83.61   64.14   91.82  179.19   43.35 -101.24   97.79    2.93  152.58

DOCKED: MODEL       40
DOCKED: USER    Run = 40
DOCKED: USER    DPF = ligand_dock.biased.dpf
DOCKED: USER  
DOCKED: USER    Estimated Free Energy of Binding    =  -10.52 kcal/mol  [=(1)+(2)+(3)-(4)]
DOCKED: USER    Estimated Inhibition Constant, Ki   =   19.42 nM (nanomolar)  [Temperature = 298.15 K]
DOCKED: USER    
DOCKED: USER    (1) Final Intermolecular Energy     =  -13.50 kcal/mol
DOCKED: USER        vdW + Hbond + desolv Energy     =  -13.50 kcal/mol
DOCKED: USER        Electrostatic Energy            =   +0.00 kcal/mol
DOCKED: USER    (2) Final Total Internal Energy     =   -2.28 kcal/mol
DOCKED: USER    (3) Torsional Free Energy           =   +2.98 kcal/mol
DOCKED: USER    (4) Unbound System's Energy  [=(2)] =   -2.28 kcal/mol
DOCKED: USER    
DOCKED: USER    
DOCKED: USER    NEWDPF move ligand.pdbqt
DOCKED: USER    NEWDPF about 0.288000 0.007000 -0.056000
DOCKED: USER    NEWDPF tran0 20.948738 -9.285238 -6.763781
DOCKED: USER    NEWDPF quaternion0 -0.562649 -0.782446 -0.133076 0.231290
DOCKED: USER    NEWDPF axisangle0 -0.578331 -0.804253 -0.136785 153.253959
DOCKED: USER    NEWDPF quat0 -0.578331 -0.804253 -0.136785 153.253959
DOCKED: USER    NEWDPF dihe0 130.67 -83.61 64.14 91.82 179.19 43.35 -101.24 97.79 2.93 152.58 
DOCKED: USER  keepresnum = 1 
DOCKED: USER  
DOCKED: REMARK  Name = 
DOCKED: REMARK  10 active torsions:
DOCKED: REMARK  status: ('A' for Active; 'I' for Inactive)
DOCKED: REMARK    1  A    between atoms: C_2  and  C_5
DOCKED: REMARK    2  A    between atoms: C_6  and  C_7
DOCKED: REMARK    3  A    between atoms: C_10  and  C_11
DOCKED: REMARK    4  A    between atoms: C_11  and  N_12
DOCKED: REMARK    5  A    between atoms: N_12  and  C_13
DOCKED: REMARK    6  A    between atoms: N_12  and  C_16
DOCKED: REMARK    7  A    between atoms: C_13  and  C_14
DOCKED: REMARK    8  A    between atoms: C_14  and  O_15
DOCKED: REMARK    9  A    between atoms: C_16  and  C_17
DOCKED: REMARK   10  A    between atoms: C_17  and  C_18
DOCKED: REMARK                            x       y       z     vdW  Elec       q    Type
DOCKED: REMARK                         _______ _______ _______ _____ _____    ______ ____
DOCKED: USER                              x       y       z     vdW  Elec       q    Type
DOCKED: USER                           _______ _______ _______ _____ _____    ______ ____
DOCKED: ROOT
DOCKED: ATOM      1  N   UNL     1      21.037 -10.611  -6.632 -0.30 -0.00    +0.000 N 
DOCKED: ATOM      2  H   UNL     1      21.421 -11.347  -6.040 -0.11 -0.00    +0.000 HD
DOCKED: ENDROOT
DOCKED: BRANCH   1   3
DOCKED: ATOM      3  C   UNL     1      20.929  -9.445  -5.716 -0.28 -0.00    +0.000 C 
DOCKED: BRANCH   3   7
DOCKED: ATOM      4  C   UNL     1      19.998 -10.394  -1.582 -0.45 -0.00    +0.000 A 
DOCKED: ATOM      5  C   UNL     1      21.327 -10.215  -1.992 -0.52 -0.00    +0.000 A 
DOCKED: ATOM      6  C   UNL     1      21.627  -9.907  -3.322 -0.36 -0.00    +0.000 A 
DOCKED: ATOM      7  C   UNL     1      20.605  -9.799  -4.278 -0.35 -0.00    +0.000 A 
DOCKED: ATOM      8  C   UNL     1      19.272  -9.965  -3.867 -0.30 -0.00    +0.000 A 
DOCKED: ATOM      9  C   UNL     1      18.970 -10.273  -2.537 -0.30 -0.00    +0.000 A 
DOCKED: BRANCH   4  11
DOCKED: ATOM     10  C   UNL     1      20.643 -11.276   0.659 -0.71 -0.00    +0.000 C 
DOCKED: ATOM     11  C   UNL     1      19.733 -10.731  -0.160 -0.57 -0.00    +0.000 C 
DOCKED: BRANCH  10  13
DOCKED: ATOM     12  O   UNL     1      19.893 -12.745   2.376 -1.55 -0.00    +0.000 OA
DOCKED: ATOM     13  C   UNL     1      20.337 -11.607   2.065 -0.78 -0.00    +0.000 C 
DOCKED: ATOM     14  N   UNL     1      20.544 -10.627   3.084 -0.66 -0.00    +0.000 N 
DOCKED: ATOM     15  O   UNL     1      20.268 -10.914   4.379 -0.92 -0.00    +0.000 OA
DOCKED: ATOM     16  H   UNL     1      20.891  -9.736   2.845 -0.60 -0.00    +0.000 HD
DOCKED: ENDBRANCH  10  13
DOCKED: ENDBRANCH   4  11
DOCKED: ENDBRANCH   3   7
DOCKED: ENDBRANCH   1   3
DOCKED: BRANCH   1  17
DOCKED: ATOM     17  C   UNL     1      22.031 -10.462  -7.720 -0.30 -0.00    +0.000 C 
DOCKED: BRANCH  17  18
DOCKED: ATOM     18  C   UNL     1      22.890 -11.720  -7.876 -0.43 -0.00    +0.000 C 
DOCKED: BRANCH  18  19
DOCKED: ATOM     19  O   UNL     1      23.000 -12.377  -6.643 -0.76 -0.00    +0.000 OA
DOCKED: ATOM     20  H   UNL     1      22.145 -12.773  -6.411 -0.59 -0.00    +0.000 HD
DOCKED: ENDBRANCH  18  19
DOCKED: ENDBRANCH  17  18
DOCKED: ENDBRANCH   1  17
DOCKED: BRANCH   1  21
DOCKED: ATOM     21  C   UNL     1      19.727 -11.110  -7.111 -0.04 -0.00    +0.000 C 
DOCKED: BRANCH  21  22
DOCKED: ATOM     22  C   UNL     1      18.609 -10.134  -6.729 -0.26 -0.00    +0.000 C 
DOCKED: BRANCH  22  23
DOCKED: ATOM     23  C   UNL     1      17.265 -10.798  -6.814 -0.29 -0.00    +0.000 A 
DOCKED: ATOM     24  C   UNL     1      16.860 -11.717  -7.775 -0.29 -0.00    +0.000 A 
DOCKED: ATOM     25  N   UNL     1      15.639 -12.212  -7.473 -0.36 -0.00    +0.000 N 
DOCKED: ATOM     26  C   UNL     1      15.276 -11.625  -6.319 -0.27 -0.00    +0.000 A 
DOCKED: ATOM     27  C   UNL     1      16.244 -10.757  -5.882 -0.23 -0.00    +0.000 A 
DOCKED: ATOM     28  C   UNL     1      16.111 -10.051  -4.686 -0.20 -0.00    +0.000 A 
DOCKED: ATOM     29  C   UNL     1      14.942 -10.254  -3.930 -0.22 -0.00    +0.000 A 
DOCKED: ATOM     30  C   UNL     1      13.945 -11.148  -4.380 -0.22 -0.00    +0.000 A 
DOCKED: ATOM     31  C   UNL     1      14.109 -11.848  -5.589 -0.26 -0.00    +0.000 A 
DOCKED: ATOM     32  H   UNL     1      15.121 -12.869  -7.991 -0.02 +0.00    +0.000 HD
DOCKED: ENDBRANCH  22  23
DOCKED: ENDBRANCH  21  22
DOCKED: ENDBRANCH   1  21
DOCKED: TORSDOF 10
DOCKED: TER
DOCKED: ENDMDL
________________________________________________________________________________


	BEGINNING GENETIC ALGORITHM DOCKING 41 of 100
Run: 41 Seed: 1602063533 1652195082 [ Run 41 of 100 GA/GALS ]
Beginning LAMARCKIAN GENETIC ALGORITHM (LGA), with a maximum of 2500000 energy evaluations.

Final-Value: -15.911


	FINAL GENETIC ALGORITHM DOCKED STATE
	_______________________________________________


Detailed state:  trans 21.836 -9.084 -6.992 quatxyzw 0.762585 0.549297 0.076613 -0.332968 center 0.288 0.007 -0.056 ntor 10 99.2498 4.9776 -10.8340 180.0000 -24.9758 -180.0000 169.7779 -36.8650 134.9279 177.8833
State:	 21.836  -9.084  -6.992   0.809  0.583  0.081 -141.102     99.25    4.98  -10.83  180.00  -24.98 -180.00  169.78  -36.87  134.93  177.88

DOCKED: MODEL       41
DOCKED: USER    Run = 41
DOCKED: USER    DPF = ligand_dock.biased.dpf
DOCKED: USER  
DOCKED: USER    Estimated Free Energy of Binding    =   -9.96 kcal/mol  [=(1)+(2)+(3)-(4)]
DOCKED: USER    Estimated Inhibition Constant, Ki   =   50.06 nM (nanomolar)  [Temperature = 298.15 K]
DOCKED: USER    
DOCKED: USER    (1) Final Intermolecular Energy     =  -12.94 kcal/mol
DOCKED: USER        vdW + Hbond + desolv Energy     =  -12.94 kcal/mol
DOCKED: USER        Electrostatic Energy            =   +0.00 kcal/mol
DOCKED: USER    (2) Final Total Internal Energy     =   -2.97 kcal/mol
DOCKED: USER    (3) Torsional Free Energy           =   +2.98 kcal/mol
DOCKED: USER    (4) Unbound System's Energy  [=(2)] =   -2.97 kcal/mol
DOCKED: USER    
DOCKED: USER    
DOCKED: USER    NEWDPF move ligand.pdbqt
DOCKED: USER    NEWDPF about 0.288000 0.007000 -0.056000
DOCKED: USER    NEWDPF tran0 21.836495 -9.084227 -6.991693
DOCKED: USER    NEWDPF quaternion0 0.762585 0.549297 0.076613 -0.332968
DOCKED: USER    NEWDPF axisangle0 0.808732 0.582538 0.081250 -141.101942
DOCKED: USER    NEWDPF quat0 0.808732 0.582538 0.081250 -141.101942
DOCKED: USER    NEWDPF dihe0 99.25 4.98 -10.83 180.00 -24.98 -180.00 169.78 -36.87 134.93 177.88 
DOCKED: USER  keepresnum = 1 
DOCKED: USER  
DOCKED: REMARK  Name = 
DOCKED: REMARK  10 active torsions:
DOCKED: REMARK  status: ('A' for Active; 'I' for Inactive)
DOCKED: REMARK    1  A    between atoms: C_2  and  C_5
DOCKED: REMARK    2  A    between atoms: C_6  and  C_7
DOCKED: REMARK    3  A    between atoms: C_10  and  C_11
DOCKED: REMARK    4  A    between atoms: C_11  and  N_12
DOCKED: REMARK    5  A    between atoms: N_12  and  C_13
DOCKED: REMARK    6  A    between atoms: N_12  and  C_16
DOCKED: REMARK    7  A    between atoms: C_13  and  C_14
DOCKED: REMARK    8  A    between atoms: C_14  and  O_15
DOCKED: REMARK    9  A    between atoms: C_16  and  C_17
DOCKED: REMARK   10  A    between atoms: C_17  and  C_18
DOCKED: REMARK                            x       y       z     vdW  Elec       q    Type
DOCKED: REMARK                         _______ _______ _______ _____ _____    ______ ____
DOCKED: USER                              x       y       z     vdW  Elec       q    Type
DOCKED: USER                           _______ _______ _______ _____ _____    ______ ____
DOCKED: ROOT
DOCKED: ATOM      1  N   UNL     1      21.097 -10.187  -6.849 -0.25 -0.00    +0.000 N 
DOCKED: ATOM      2  H   UNL     1      20.885 -10.949  -6.205 -0.05 -0.00    +0.000 HD
DOCKED: ENDROOT
DOCKED: BRANCH   1   3
DOCKED: ATOM      3  C   UNL     1      21.593  -9.104  -5.960 -0.27 -0.00    +0.000 C 
DOCKED: BRANCH   3   7
DOCKED: ATOM      4  C   UNL     1      21.093  -9.926  -1.725 -0.55 -0.00    +0.000 A 
DOCKED: ATOM      5  C   UNL     1      20.713  -8.687  -2.263 -0.38 -0.00    +0.000 A 
DOCKED: ATOM      6  C   UNL     1      20.871  -8.423  -3.626 -0.34 -0.00    +0.000 A 
DOCKED: ATOM      7  C   UNL     1      21.440  -9.383  -4.478 -0.34 -0.00    +0.000 A 
DOCKED: ATOM      8  C   UNL     1      21.809 -10.629  -3.945 -0.36 -0.00    +0.000 A 
DOCKED: ATOM      9  C   UNL     1      21.651 -10.895  -2.581 -0.19 -0.00    +0.000 A 
DOCKED: BRANCH   4  11
DOCKED: ATOM     10  C   UNL     1      20.384 -11.267   0.253 -0.63 -0.00    +0.000 C 
DOCKED: ATOM     11  C   UNL     1      20.915 -10.152  -0.269 -0.69 -0.00    +0.000 C 
DOCKED: BRANCH  10  13
DOCKED: ATOM     12  O   UNL     1      19.689 -12.502   2.167 -1.63 -0.00    +0.000 OA
DOCKED: ATOM     13  C   UNL     1      20.214 -11.451   1.707 -0.76 -0.00    +0.000 C 
DOCKED: ATOM     14  N   UNL     1      20.647 -10.427   2.606 -0.50 -0.00    +0.000 N 
DOCKED: ATOM     15  O   UNL     1      20.498 -10.580   3.943 -1.04 -0.00    +0.000 OA
DOCKED: ATOM     16  H   UNL     1      21.058  -9.605   2.251 -0.56 -0.00    +0.000 HD
DOCKED: ENDBRANCH  10  13
DOCKED: ENDBRANCH   4  11
DOCKED: ENDBRANCH   3   7
DOCKED: ENDBRANCH   1   3
DOCKED: BRANCH   1  17
DOCKED: ATOM     17  C   UNL     1      22.110 -10.756  -7.768 -0.32 -0.00    +0.000 C 
DOCKED: BRANCH  17  18
DOCKED: ATOM     18  C   UNL     1      23.291 -11.358  -7.002 -0.44 -0.00    +0.000 C 
DOCKED: BRANCH  18  19
DOCKED: ATOM     19  O   UNL     1      22.839 -12.380  -6.157 -0.77 -0.00    +0.000 OA
DOCKED: ATOM     20  H   UNL     1      22.148 -12.889  -6.608 -0.59 -0.00    +0.000 HD
DOCKED: ENDBRANCH  18  19
DOCKED: ENDBRANCH  17  18
DOCKED: ENDBRANCH   1  17
DOCKED: BRANCH   1  21
DOCKED: ATOM     21  C   UNL     1      19.822  -9.857  -7.529 -0.22 -0.00    +0.000 C 
DOCKED: BRANCH  21  22
DOCKED: ATOM     22  C   UNL     1      18.767 -10.930  -7.241 -0.33 -0.00    +0.000 C 
DOCKED: BRANCH  22  23
DOCKED: ATOM     23  C   UNL     1      17.704 -10.404  -6.320 -0.25 -0.00    +0.000 A 
DOCKED: ATOM     24  C   UNL     1      16.456  -9.919  -6.695 -0.14 -0.00    +0.000 A 
DOCKED: ATOM     25  N   UNL     1      15.703  -9.655  -5.604 -0.13 -0.00    +0.000 N 
DOCKED: ATOM     26  C   UNL     1      16.460  -9.984  -4.542 -0.20 -0.00    +0.000 A 
DOCKED: ATOM     27  C   UNL     1      17.688 -10.449  -4.938 -0.25 -0.00    +0.000 A 
DOCKED: ATOM     28  C   UNL     1      18.639 -10.886  -4.015 -0.24 -0.00    +0.000 A 
DOCKED: ATOM     29  C   UNL     1      18.302 -10.834  -2.651 -0.12 -0.00    +0.000 A 
DOCKED: ATOM     30  C   UNL     1      17.038 -10.355  -2.243 -0.18 -0.00    +0.000 A 
DOCKED: ATOM     31  C   UNL     1      16.098  -9.925  -3.196 -0.22 -0.00    +0.000 A 
DOCKED: ATOM     32  H   UNL     1      14.787  -9.295  -5.588 +0.00 -0.00    +0.000 HD
DOCKED: ENDBRANCH  22  23
DOCKED: ENDBRANCH  21  22
DOCKED: ENDBRANCH   1  21
DOCKED: TORSDOF 10
DOCKED: TER
DOCKED: ENDMDL
________________________________________________________________________________


	BEGINNING GENETIC ALGORITHM DOCKING 42 of 100
Run: 42 Seed: 1994400598 2003000786 [ Run 42 of 100 GA/GALS ]
Beginning LAMARCKIAN GENETIC ALGORITHM (LGA), with a maximum of 2500000 energy evaluations.

Final-Value: -14.621


	FINAL GENETIC ALGORITHM DOCKED STATE
	_______________________________________________


Detailed state:  trans 19.803 -11.366 0.845 quatxyzw -0.306321 0.054071 0.237561 0.920222 center 0.288 0.007 -0.056 ntor 10 26.0974 -135.1024 -68.5397 -130.7552 -179.4719 -11.1588 -10.8374 -30.1005 -44.8251 91.8907
State:	 19.803 -11.366   0.845  -0.783  0.138  0.607 46.083     26.10 -135.10  -68.54 -130.76 -179.47  -11.16  -10.84  -30.10  -44.83   91.89

DOCKED: MODEL       42
DOCKED: USER    Run = 42
DOCKED: USER    DPF = ligand_dock.biased.dpf
DOCKED: USER  
DOCKED: USER    Estimated Free Energy of Binding    =   -9.95 kcal/mol  [=(1)+(2)+(3)-(4)]
DOCKED: USER    Estimated Inhibition Constant, Ki   =   50.83 nM (nanomolar)  [Temperature = 298.15 K]
DOCKED: USER    
DOCKED: USER    (1) Final Intermolecular Energy     =  -12.93 kcal/mol
DOCKED: USER        vdW + Hbond + desolv Energy     =  -12.93 kcal/mol
DOCKED: USER        Electrostatic Energy            =   +0.00 kcal/mol
DOCKED: USER    (2) Final Total Internal Energy     =   -1.69 kcal/mol
DOCKED: USER    (3) Torsional Free Energy           =   +2.98 kcal/mol
DOCKED: USER    (4) Unbound System's Energy  [=(2)] =   -1.69 kcal/mol
DOCKED: USER    
DOCKED: USER    
DOCKED: USER    NEWDPF move ligand.pdbqt
DOCKED: USER    NEWDPF about 0.288000 0.007000 -0.056000
DOCKED: USER    NEWDPF tran0 19.803248 -11.365567 0.845326
DOCKED: USER    NEWDPF quaternion0 -0.306321 0.054071 0.237561 0.920222
DOCKED: USER    NEWDPF axisangle0 -0.782636 0.138148 0.606957 46.082934
DOCKED: USER    NEWDPF quat0 -0.782636 0.138148 0.606957 46.082934
DOCKED: USER    NEWDPF dihe0 26.10 -135.10 -68.54 -130.76 -179.47 -11.16 -10.84 -30.10 -44.83 91.89 
DOCKED: USER  keepresnum = 1 
DOCKED: USER  
DOCKED: REMARK  Name = 
DOCKED: REMARK  10 active torsions:
DOCKED: REMARK  status: ('A' for Active; 'I' for Inactive)
DOCKED: REMARK    1  A    between atoms: C_2  and  C_5
DOCKED: REMARK    2  A    between atoms: C_6  and  C_7
DOCKED: REMARK    3  A    between atoms: C_10  and  C_11
DOCKED: REMARK    4  A    between atoms: C_11  and  N_12
DOCKED: REMARK    5  A    between atoms: N_12  and  C_13
DOCKED: REMARK    6  A    between atoms: N_12  and  C_16
DOCKED: REMARK    7  A    between atoms: C_13  and  C_14
DOCKED: REMARK    8  A    between atoms: C_14  and  O_15
DOCKED: REMARK    9  A    between atoms: C_16  and  C_17
DOCKED: REMARK   10  A    between atoms: C_17  and  C_18
DOCKED: REMARK                            x       y       z     vdW  Elec       q    Type
DOCKED: REMARK                         _______ _______ _______ _____ _____    ______ ____
DOCKED: USER                              x       y       z     vdW  Elec       q    Type
DOCKED: USER                           _______ _______ _______ _____ _____    ______ ____
DOCKED: ROOT
DOCKED: ATOM      1  N   UNL     1      18.534 -10.968   0.726 -0.44 -0.00    +0.000 N 
DOCKED: ATOM      2  H   UNL     1      17.932 -10.145   0.753 -0.01 -0.00    +0.000 HD
DOCKED: ENDROOT
DOCKED: BRANCH   1   3
DOCKED: ATOM      3  C   UNL     1      19.870 -10.413   0.385 -0.58 -0.00    +0.000 C 
DOCKED: BRANCH   3   7
DOCKED: ATOM      4  C   UNL     1      20.841 -10.391  -3.848 -0.44 -0.00    +0.000 A 
DOCKED: ATOM      5  C   UNL     1      19.597  -9.924  -3.397 -0.34 -0.00    +0.000 A 
DOCKED: ATOM      6  C   UNL     1      19.286  -9.929  -2.035 -0.07 -0.00    +0.000 A 
DOCKED: ATOM      7  C   UNL     1      20.201 -10.427  -1.094 -0.50 -0.00    +0.000 A 
DOCKED: ATOM      8  C   UNL     1      21.452 -10.883  -1.541 -0.31 -0.00    +0.000 A 
DOCKED: ATOM      9  C   UNL     1      21.766 -10.878  -2.904 -0.21 -0.00    +0.000 A 
DOCKED: BRANCH   4  11
DOCKED: ATOM     10  C   UNL     1      20.166 -10.321  -6.246 -0.32 -0.00    +0.000 C 
DOCKED: ATOM     11  C   UNL     1      21.120 -10.376  -5.306 -0.42 -0.00    +0.000 C 
DOCKED: BRANCH  10  13
DOCKED: ATOM     12  O   UNL     1      19.949  -9.478  -8.463 -0.16 -0.00    +0.000 OA
DOCKED: ATOM     13  C   UNL     1      20.483 -10.318  -7.688 -0.26 -0.00    +0.000 C 
DOCKED: ATOM     14  N   UNL     1      21.403 -11.278  -8.213 -0.22 -0.00    +0.000 N 
DOCKED: ATOM     15  O   UNL     1      21.704 -11.288  -9.533 -0.27 -0.00    +0.000 OA
DOCKED: ATOM     16  H   UNL     1      21.821 -11.935  -7.611 -0.52 -0.00    +0.000 HD
DOCKED: ENDBRANCH  10  13
DOCKED: ENDBRANCH   4  11
DOCKED: ENDBRANCH   3   7
DOCKED: ENDBRANCH   1   3
DOCKED: BRANCH   1  17
DOCKED: ATOM     17  C   UNL     1      18.425 -11.546   2.086 -0.53 -0.00    +0.000 C 
DOCKED: BRANCH  17  18
DOCKED: ATOM     18  C   UNL     1      19.732 -11.396   2.869 -0.74 -0.00    +0.000 C 
DOCKED: BRANCH  18  19
DOCKED: ATOM     19  O   UNL     1      20.636 -12.393   2.483 -1.78 -0.00    +0.000 OA
DOCKED: ATOM     20  H   UNL     1      20.150 -13.206   2.273 -0.58 -0.00    +0.000 HD
DOCKED: ENDBRANCH  18  19
DOCKED: ENDBRANCH  17  18
DOCKED: ENDBRANCH   1  17
DOCKED: BRANCH   1  21
DOCKED: ATOM     21  C   UNL     1      17.976 -11.852  -0.324 -0.49 -0.00    +0.000 C 
DOCKED: BRANCH  21  22
DOCKED: ATOM     22  C   UNL     1      16.670 -11.270  -0.877 -0.35 -0.00    +0.000 C 
DOCKED: BRANCH  22  23
DOCKED: ATOM     23  C   UNL     1      15.561 -11.393   0.127 -0.34 +0.00    +0.000 A 
DOCKED: ATOM     24  C   UNL     1      14.651 -12.440   0.224 -0.44 +0.00    +0.000 A 
DOCKED: ATOM     25  N   UNL     1      13.876 -12.294   1.322 -0.40 +0.00    +0.000 N 
DOCKED: ATOM     26  C   UNL     1      14.299 -11.171   1.928 -0.38 +0.00    +0.000 A 
DOCKED: ATOM     27  C   UNL     1      15.329 -10.594   1.231 -0.29 +0.00    +0.000 A 
DOCKED: ATOM     28  C   UNL     1      15.960  -9.433   1.681 -0.26 +0.00    +0.000 A 
DOCKED: ATOM     29  C   UNL     1      15.505  -8.862   2.883 -0.32 +0.00    +0.000 A 
DOCKED: ATOM     30  C   UNL     1      14.444  -9.457   3.601 -0.33 +0.00    +0.000 A 
DOCKED: ATOM     31  C   UNL     1      13.829 -10.629   3.124 -0.29 +0.00    +0.000 A 
DOCKED: ATOM     32  H   UNL     1      13.149 -12.888   1.619 -0.33 +0.00    +0.000 HD
DOCKED: ENDBRANCH  22  23
DOCKED: ENDBRANCH  21  22
DOCKED: ENDBRANCH   1  21
DOCKED: TORSDOF 10
DOCKED: TER
DOCKED: ENDMDL
________________________________________________________________________________


	BEGINNING GENETIC ALGORITHM DOCKING 43 of 100
Run: 43 Seed: 781580225 724267702 [ Run 43 of 100 GA/GALS ]
Beginning LAMARCKIAN GENETIC ALGORITHM (LGA), with a maximum of 2500000 energy evaluations.

Final-Value: -13.935


	FINAL GENETIC ALGORITHM DOCKED STATE
	_______________________________________________


Detailed state:  trans 20.052 -10.339 -5.625 quatxyzw -0.404005 -0.214957 0.776634 -0.432913 center 0.288 0.007 -0.056 ntor 10 84.4085 37.5359 -91.5148 -27.9339 118.7975 152.6136 161.3984 -154.8996 -17.0850 113.7043
State:	 20.052 -10.339  -5.625  -0.448 -0.238  0.862 -128.695     84.41   37.54  -91.51  -27.93  118.80  152.61  161.40 -154.90  -17.08  113.70

DOCKED: MODEL       43
DOCKED: USER    Run = 43
DOCKED: USER    DPF = ligand_dock.biased.dpf
DOCKED: USER  
DOCKED: USER    Estimated Free Energy of Binding    =   -9.36 kcal/mol  [=(1)+(2)+(3)-(4)]
DOCKED: USER    Estimated Inhibition Constant, Ki   =  137.34 nM (nanomolar)  [Temperature = 298.15 K]
DOCKED: USER    
DOCKED: USER    (1) Final Intermolecular Energy     =  -12.34 kcal/mol
DOCKED: USER        vdW + Hbond + desolv Energy     =  -12.34 kcal/mol
DOCKED: USER        Electrostatic Energy            =   +0.00 kcal/mol
DOCKED: USER    (2) Final Total Internal Energy     =   -1.59 kcal/mol
DOCKED: USER    (3) Torsional Free Energy           =   +2.98 kcal/mol
DOCKED: USER    (4) Unbound System's Energy  [=(2)] =   -1.59 kcal/mol
DOCKED: USER    
DOCKED: USER    
DOCKED: USER    NEWDPF move ligand.pdbqt
DOCKED: USER    NEWDPF about 0.288000 0.007000 -0.056000
DOCKED: USER    NEWDPF tran0 20.052137 -10.338730 -5.625442
DOCKED: USER    NEWDPF quaternion0 -0.404005 -0.214957 0.776634 -0.432913
DOCKED: USER    NEWDPF axisangle0 -0.448179 -0.238461 0.861552 -128.694799
DOCKED: USER    NEWDPF quat0 -0.448179 -0.238461 0.861552 -128.694799
DOCKED: USER    NEWDPF dihe0 84.41 37.54 -91.51 -27.93 118.80 152.61 161.40 -154.90 -17.08 113.70 
DOCKED: USER  keepresnum = 1 
DOCKED: USER  
DOCKED: REMARK  Name = 
DOCKED: REMARK  10 active torsions:
DOCKED: REMARK  status: ('A' for Active; 'I' for Inactive)
DOCKED: REMARK    1  A    between atoms: C_2  and  C_5
DOCKED: REMARK    2  A    between atoms: C_6  and  C_7
DOCKED: REMARK    3  A    between atoms: C_10  and  C_11
DOCKED: REMARK    4  A    between atoms: C_11  and  N_12
DOCKED: REMARK    5  A    between atoms: N_12  and  C_13
DOCKED: REMARK    6  A    between atoms: N_12  and  C_16
DOCKED: REMARK    7  A    between atoms: C_13  and  C_14
DOCKED: REMARK    8  A    between atoms: C_14  and  O_15
DOCKED: REMARK    9  A    between atoms: C_16  and  C_17
DOCKED: REMARK   10  A    between atoms: C_17  and  C_18
DOCKED: REMARK                            x       y       z     vdW  Elec       q    Type
DOCKED: REMARK                         _______ _______ _______ _____ _____    ______ ____
DOCKED: USER                              x       y       z     vdW  Elec       q    Type
DOCKED: USER                           _______ _______ _______ _____ _____    ______ ____
DOCKED: ROOT
DOCKED: ATOM      1  N   UNL     1      20.592 -11.276  -4.843 -0.48 -0.00    +0.000 N 
DOCKED: ATOM      2  H   UNL     1      20.915 -12.244  -4.833 -0.12 -0.00    +0.000 HD
DOCKED: ENDROOT
DOCKED: BRANCH   1   3
DOCKED: ATOM      3  C   UNL     1      20.684 -10.889  -6.275 -0.37 -0.00    +0.000 C 
DOCKED: BRANCH   3   7
DOCKED: ATOM      4  C   UNL     1      24.711 -10.331  -7.803 -0.31 -0.00    +0.000 A 
DOCKED: ATOM      5  C   UNL     1      24.205 -11.620  -7.573 -0.39 -0.00    +0.000 A 
DOCKED: ATOM      6  C   UNL     1      22.909 -11.799  -7.084 -0.44 -0.00    +0.000 A 
DOCKED: ATOM      7  C   UNL     1      22.098 -10.693  -6.787 -0.35 -0.00    +0.000 A 
DOCKED: ATOM      8  C   UNL     1      22.596  -9.402  -7.028 -0.22 -0.00    +0.000 A 
DOCKED: ATOM      9  C   UNL     1      23.893  -9.220  -7.518 -0.22 -0.00    +0.000 A 
DOCKED: BRANCH   4  11
DOCKED: ATOM     10  C   UNL     1      27.187 -10.243  -7.532 -0.36 -0.00    +0.000 C 
DOCKED: ATOM     11  C   UNL     1      26.098 -10.193  -8.313 -0.37 -0.00    +0.000 C 
DOCKED: BRANCH  10  13
DOCKED: ATOM     12  O   UNL     1      28.816 -10.446  -9.258 -0.40 -0.00    +0.000 OA
DOCKED: ATOM     13  C   UNL     1      28.551 -10.091  -8.077 -0.48 -0.00    +0.000 C 
DOCKED: ATOM     14  N   UNL     1      29.584  -9.539  -7.257 -0.40 -0.00    +0.000 N 
DOCKED: ATOM     15  O   UNL     1      30.840  -9.393  -7.741 -0.35 -0.00    +0.000 OA
DOCKED: ATOM     16  H   UNL     1      29.380  -9.261  -6.334 -0.03 -0.00    +0.000 HD
DOCKED: ENDBRANCH  10  13
DOCKED: ENDBRANCH   4  11
DOCKED: ENDBRANCH   3   7
DOCKED: ENDBRANCH   1   3
DOCKED: BRANCH   1  17
DOCKED: ATOM     17  C   UNL     1      19.215 -11.346  -4.300 -0.38 -0.00    +0.000 C 
DOCKED: BRANCH  17  18
DOCKED: ATOM     18  C   UNL     1      18.234 -10.528  -5.145 -0.32 -0.00    +0.000 C 
DOCKED: BRANCH  18  19
DOCKED: ATOM     19  O   UNL     1      17.648 -11.346  -6.119 -0.40 -0.00    +0.000 OA
DOCKED: ATOM     20  H   UNL     1      17.679 -12.270  -5.826 -0.03 -0.00    +0.000 HD
DOCKED: ENDBRANCH  18  19
DOCKED: ENDBRANCH  17  18
DOCKED: ENDBRANCH   1  17
DOCKED: BRANCH   1  21
DOCKED: ATOM     21  C   UNL     1      21.520 -10.524  -3.966 -0.51 -0.00    +0.000 C 
DOCKED: BRANCH  21  22
DOCKED: ATOM     22  C   UNL     1      20.738  -9.695  -2.942 -0.50 -0.00    +0.000 C 
DOCKED: BRANCH  22  23
DOCKED: ATOM     23  C   UNL     1      20.707 -10.381  -1.607 -0.52 -0.00    +0.000 A 
DOCKED: ATOM     24  C   UNL     1      21.780 -10.529  -0.734 -0.52 -0.00    +0.000 A 
DOCKED: ATOM     25  N   UNL     1      21.368 -11.076   0.433 -0.61 -0.00    +0.000 N 
DOCKED: ATOM     26  C   UNL     1      20.042 -11.259   0.309 -0.57 -0.00    +0.000 A 
DOCKED: ATOM     27  C   UNL     1      19.600 -10.843  -0.921 -0.45 -0.00    +0.000 A 
DOCKED: ATOM     28  C   UNL     1      18.251 -10.901  -1.274 -0.35 -0.00    +0.000 A 
DOCKED: ATOM     29  C   UNL     1      17.345 -11.405  -0.324 -0.37 -0.00    +0.000 A 
DOCKED: ATOM     30  C   UNL     1      17.799 -11.834   0.942 -0.47 +0.00    +0.000 A 
DOCKED: ATOM     31  C   UNL     1      19.165 -11.760   1.271 -0.58 -0.00    +0.000 A 
DOCKED: ATOM     32  H   UNL     1      21.925 -11.296   1.214 -0.49 -0.00    +0.000 HD
DOCKED: ENDBRANCH  22  23
DOCKED: ENDBRANCH  21  22
DOCKED: ENDBRANCH   1  21
DOCKED: TORSDOF 10
DOCKED: TER
DOCKED: ENDMDL
________________________________________________________________________________


	BEGINNING GENETIC ALGORITHM DOCKING 44 of 100
Run: 44 Seed: 93737842 1061728033 [ Run 44 of 100 GA/GALS ]
Beginning LAMARCKIAN GENETIC ALGORITHM (LGA), with a maximum of 2500000 energy evaluations.

Final-Value: -13.736


	FINAL GENETIC ALGORITHM DOCKED STATE
	_______________________________________________


Detailed state:  trans 14.575 -10.485 2.523 quatxyzw 0.076376 -0.395747 -0.819288 0.407821 center 0.288 0.007 -0.056 ntor 10 126.7158 -138.5086 -115.2603 99.9488 -54.4238 -161.0181 -97.2003 -14.3558 174.7316 72.7174
State:	 14.575 -10.485   2.523   0.084 -0.433 -0.897 131.864    126.72 -138.51 -115.26   99.95  -54.42 -161.02  -97.20  -14.36  174.73   72.72

DOCKED: MODEL       44
DOCKED: USER    Run = 44
DOCKED: USER    DPF = ligand_dock.biased.dpf
DOCKED: USER  
DOCKED: USER    Estimated Free Energy of Binding    =   -8.47 kcal/mol  [=(1)+(2)+(3)-(4)]
DOCKED: USER    Estimated Inhibition Constant, Ki   =  623.10 nM (nanomolar)  [Temperature = 298.15 K]
DOCKED: USER    
DOCKED: USER    (1) Final Intermolecular Energy     =  -11.45 kcal/mol
DOCKED: USER        vdW + Hbond + desolv Energy     =  -11.45 kcal/mol
DOCKED: USER        Electrostatic Energy            =   +0.00 kcal/mol
DOCKED: USER    (2) Final Total Internal Energy     =   -2.29 kcal/mol
DOCKED: USER    (3) Torsional Free Energy           =   +2.98 kcal/mol
DOCKED: USER    (4) Unbound System's Energy  [=(2)] =   -2.29 kcal/mol
DOCKED: USER    
DOCKED: USER    
DOCKED: USER    NEWDPF move ligand.pdbqt
DOCKED: USER    NEWDPF about 0.288000 0.007000 -0.056000
DOCKED: USER    NEWDPF tran0 14.575186 -10.484926 2.522839
DOCKED: USER    NEWDPF quaternion0 0.076376 -0.395747 -0.819288 0.407821
DOCKED: USER    NEWDPF axisangle0 0.083648 -0.433429 -0.897297 131.863945
DOCKED: USER    NEWDPF quat0 0.083648 -0.433429 -0.897297 131.863945
DOCKED: USER    NEWDPF dihe0 126.72 -138.51 -115.26 99.95 -54.42 -161.02 -97.20 -14.36 174.73 72.72 
DOCKED: USER  keepresnum = 1 
DOCKED: USER  
DOCKED: REMARK  Name = 
DOCKED: REMARK  10 active torsions:
DOCKED: REMARK  status: ('A' for Active; 'I' for Inactive)
DOCKED: REMARK    1  A    between atoms: C_2  and  C_5
DOCKED: REMARK    2  A    between atoms: C_6  and  C_7
DOCKED: REMARK    3  A    between atoms: C_10  and  C_11
DOCKED: REMARK    4  A    between atoms: C_11  and  N_12
DOCKED: REMARK    5  A    between atoms: N_12  and  C_13
DOCKED: REMARK    6  A    between atoms: N_12  and  C_16
DOCKED: REMARK    7  A    between atoms: C_13  and  C_14
DOCKED: REMARK    8  A    between atoms: C_14  and  O_15
DOCKED: REMARK    9  A    between atoms: C_16  and  C_17
DOCKED: REMARK   10  A    between atoms: C_17  and  C_18
DOCKED: REMARK                            x       y       z     vdW  Elec       q    Type
DOCKED: REMARK                         _______ _______ _______ _____ _____    ______ ____
DOCKED: USER                              x       y       z     vdW  Elec       q    Type
DOCKED: USER                           _______ _______ _______ _____ _____    ______ ____
DOCKED: ROOT
DOCKED: ATOM      1  N   UNL     1      15.650 -11.166   2.927 -0.47 +0.00    +0.000 N 
DOCKED: ATOM      2  H   UNL     1      15.945 -12.042   3.358 -0.05 +0.00    +0.000 HD
DOCKED: ENDROOT
DOCKED: BRANCH   1   3
DOCKED: ATOM      3  C   UNL     1      14.331 -11.498   2.327 -0.47 +0.00    +0.000 C 
DOCKED: BRANCH   3   7
DOCKED: ATOM      4  C   UNL     1      14.302 -11.377  -2.014 -0.32 -0.00    +0.000 A 
DOCKED: ATOM      5  C   UNL     1      13.938 -10.248  -1.264 -0.24 -0.00    +0.000 A 
DOCKED: ATOM      6  C   UNL     1      13.950 -10.286   0.132 -0.22 +0.00    +0.000 A 
DOCKED: ATOM      7  C   UNL     1      14.299 -11.463   0.812 -0.37 +0.00    +0.000 A 
DOCKED: ATOM      8  C   UNL     1      14.677 -12.591   0.064 -0.44 +0.00    +0.000 A 
DOCKED: ATOM      9  C   UNL     1      14.666 -12.555  -1.333 -0.32 +0.00    +0.000 A 
DOCKED: BRANCH   4  11
DOCKED: ATOM     10  C   UNL     1      15.354 -11.181  -4.265 -0.15 -0.00    +0.000 C 
DOCKED: ATOM     11  C   UNL     1      14.262 -11.289  -3.495 -0.31 -0.00    +0.000 C 
DOCKED: BRANCH  10  13
DOCKED: ATOM     12  O   UNL     1      15.344  -9.966  -6.313 -0.14 -0.00    +0.000 OA
DOCKED: ATOM     13  C   UNL     1      15.272 -11.085  -5.736 -0.27 -0.00    +0.000 C 
DOCKED: ATOM     14  N   UNL     1      15.106 -12.272  -6.515 -0.32 -0.00    +0.000 N 
DOCKED: ATOM     15  O   UNL     1      15.029 -12.202  -7.865 -0.32 -0.00    +0.000 OA
DOCKED: ATOM     16  H   UNL     1      15.049 -13.148  -6.068 -0.03 -0.00    +0.000 HD
DOCKED: ENDBRANCH  10  13
DOCKED: ENDBRANCH   4  11
DOCKED: ENDBRANCH   3   7
DOCKED: ENDBRANCH   1   3
DOCKED: BRANCH   1  17
DOCKED: ATOM     17  C   UNL     1      15.602 -10.203   4.051 -0.47 +0.00    +0.000 C 
DOCKED: BRANCH  17  18
DOCKED: ATOM     18  C   UNL     1      14.682  -9.019   3.742 -0.38 +0.00    +0.000 C 
DOCKED: BRANCH  18  19
DOCKED: ATOM     19  O   UNL     1      15.379  -8.057   3.000 -0.39 +0.00    +0.000 OA
DOCKED: ATOM     20  H   UNL     1      15.597  -8.418   2.127 -0.02 +0.00    +0.000 HD
DOCKED: ENDBRANCH  18  19
DOCKED: ENDBRANCH  17  18
DOCKED: ENDBRANCH   1  17
DOCKED: BRANCH   1  21
DOCKED: ATOM     21  C   UNL     1      16.688 -10.832   1.924 -0.44 +0.00    +0.000 C 
DOCKED: BRANCH  21  22
DOCKED: ATOM     22  C   UNL     1      17.634 -12.019   1.714 -0.31 +0.00    +0.000 C 
DOCKED: BRANCH  22  23
DOCKED: ATOM     23  C   UNL     1      18.946 -11.565   1.144 -0.54 -0.00    +0.000 A 
DOCKED: ATOM     24  C   UNL     1      20.192 -11.683   1.750 -0.69 -0.00    +0.000 A 
DOCKED: ATOM     25  N   UNL     1      21.171 -11.295   0.901 -0.59 -0.00    +0.000 N 
DOCKED: ATOM     26  C   UNL     1      20.554 -10.947  -0.242 -0.53 -0.00    +0.000 A 
DOCKED: ATOM     27  C   UNL     1      19.196 -11.102  -0.135 -0.47 -0.00    +0.000 A 
DOCKED: ATOM     28  C   UNL     1      18.340 -10.836  -1.206 -0.34 -0.00    +0.000 A 
DOCKED: ATOM     29  C   UNL     1      18.916 -10.398  -2.412 -0.31 -0.00    +0.000 A 
DOCKED: ATOM     30  C   UNL     1      20.315 -10.239  -2.522 -0.45 -0.00    +0.000 A 
DOCKED: ATOM     31  C   UNL     1      21.152 -10.518  -1.427 -0.55 -0.00    +0.000 A 
DOCKED: ATOM     32  H   UNL     1      22.138 -11.271   1.082 -0.51 -0.00    +0.000 HD
DOCKED: ENDBRANCH  22  23
DOCKED: ENDBRANCH  21  22
DOCKED: ENDBRANCH   1  21
DOCKED: TORSDOF 10
DOCKED: TER
DOCKED: ENDMDL
________________________________________________________________________________


	BEGINNING GENETIC ALGORITHM DOCKING 45 of 100
Run: 45 Seed: 374677338 1814857901 [ Run 45 of 100 GA/GALS ]
Beginning LAMARCKIAN GENETIC ALGORITHM (LGA), with a maximum of 2500000 energy evaluations.

Final-Value: -15.445


	FINAL GENETIC ALGORITHM DOCKED STATE
	_______________________________________________


Detailed state:  trans 17.450 -10.796 0.708 quatxyzw 0.264769 0.441739 0.806730 -0.289742 center 0.288 0.007 -0.056 ntor 10 -15.0023 38.9468 -1.2233 -66.5712 -14.0645 179.8727 -63.6706 -89.9006 -180.0000 -36.2590
State:	 17.450 -10.796   0.708   0.277  0.462  0.843 -146.315    -15.00   38.95   -1.22  -66.57  -14.06  179.87  -63.67  -89.90 -180.00  -36.26

DOCKED: MODEL       45
DOCKED: USER    Run = 45
DOCKED: USER    DPF = ligand_dock.biased.dpf
DOCKED: USER  
DOCKED: USER    Estimated Free Energy of Binding    =  -11.04 kcal/mol  [=(1)+(2)+(3)-(4)]
DOCKED: USER    Estimated Inhibition Constant, Ki   =    8.13 nM (nanomolar)  [Temperature = 298.15 K]
DOCKED: USER    
DOCKED: USER    (1) Final Intermolecular Energy     =  -14.02 kcal/mol
DOCKED: USER        vdW + Hbond + desolv Energy     =  -14.02 kcal/mol
DOCKED: USER        Electrostatic Energy            =   +0.00 kcal/mol
DOCKED: USER    (2) Final Total Internal Energy     =   -1.43 kcal/mol
DOCKED: USER    (3) Torsional Free Energy           =   +2.98 kcal/mol
DOCKED: USER    (4) Unbound System's Energy  [=(2)] =   -1.43 kcal/mol
DOCKED: USER    
DOCKED: USER    
DOCKED: USER    NEWDPF move ligand.pdbqt
DOCKED: USER    NEWDPF about 0.288000 0.007000 -0.056000
DOCKED: USER    NEWDPF tran0 17.450029 -10.795635 0.708045
DOCKED: USER    NEWDPF quaternion0 0.264769 0.441739 0.806730 -0.289742
DOCKED: USER    NEWDPF axisangle0 0.276636 0.461536 0.842886 -146.315010
DOCKED: USER    NEWDPF quat0 0.276636 0.461536 0.842886 -146.315010
DOCKED: USER    NEWDPF dihe0 -15.00 38.95 -1.22 -66.57 -14.06 179.87 -63.67 -89.90 -180.00 -36.26 
DOCKED: USER  keepresnum = 1 
DOCKED: USER  
DOCKED: REMARK  Name = 
DOCKED: REMARK  10 active torsions:
DOCKED: REMARK  status: ('A' for Active; 'I' for Inactive)
DOCKED: REMARK    1  A    between atoms: C_2  and  C_5
DOCKED: REMARK    2  A    between atoms: C_6  and  C_7
DOCKED: REMARK    3  A    between atoms: C_10  and  C_11
DOCKED: REMARK    4  A    between atoms: C_11  and  N_12
DOCKED: REMARK    5  A    between atoms: N_12  and  C_13
DOCKED: REMARK    6  A    between atoms: N_12  and  C_16
DOCKED: REMARK    7  A    between atoms: C_13  and  C_14
DOCKED: REMARK    8  A    between atoms: C_14  and  O_15
DOCKED: REMARK    9  A    between atoms: C_16  and  C_17
DOCKED: REMARK   10  A    between atoms: C_17  and  C_18
DOCKED: REMARK                            x       y       z     vdW  Elec       q    Type
DOCKED: REMARK                         _______ _______ _______ _____ _____    ______ ____
DOCKED: USER                              x       y       z     vdW  Elec       q    Type
DOCKED: USER                           _______ _______ _______ _____ _____    ______ ____
DOCKED: ROOT
DOCKED: ATOM      1  N   UNL     1      18.421 -11.572   0.222 -0.46 -0.00    +0.000 N 
DOCKED: ATOM      2  H   UNL     1      18.789 -12.523   0.238 -0.17 -0.00    +0.000 HD
DOCKED: ENDROOT
DOCKED: BRANCH   1   3
DOCKED: ATOM      3  C   UNL     1      16.991 -11.744   0.588 -0.48 +0.00    +0.000 C 
DOCKED: BRANCH   3   7
DOCKED: ATOM      4  C   UNL     1      15.530  -8.757   3.382 -0.34 +0.00    +0.000 A 
DOCKED: ATOM      5  C   UNL     1      16.135  -9.934   3.846 -0.27 +0.00    +0.000 A 
DOCKED: ATOM      6  C   UNL     1      16.608 -10.894   2.947 -0.44 +0.00    +0.000 A 
DOCKED: ATOM      7  C   UNL     1      16.460 -10.711   1.563 -0.35 +0.00    +0.000 A 
DOCKED: ATOM      8  C   UNL     1      15.867  -9.527   1.095 -0.20 +0.00    +0.000 A 
DOCKED: ATOM      9  C   UNL     1      15.394  -8.565   1.993 -0.25 +0.00    +0.000 A 
DOCKED: BRANCH   4  11
DOCKED: ATOM     10  C   UNL     1      15.068  -6.446   4.194 -0.40 +0.00    +0.000 C 
DOCKED: ATOM     11  C   UNL     1      15.034  -7.773   4.377 -0.42 +0.00    +0.000 C 
DOCKED: BRANCH  10  13
DOCKED: ATOM     12  O   UNL     1      13.345  -5.434   5.489 -0.80 +0.00    +0.000 OA
DOCKED: ATOM     13  C   UNL     1      14.574  -5.499   5.214 -0.46 +0.00    +0.000 C 
DOCKED: ATOM     14  N   UNL     1      15.497  -4.646   5.895 -0.44 +0.00    +0.000 N 
DOCKED: ATOM     15  O   UNL     1      15.059  -3.773   6.833 -0.56 +0.00    +0.000 OA
DOCKED: ATOM     16  H   UNL     1      16.457  -4.695   5.683 -0.43 -0.00    +0.000 HD
DOCKED: ENDBRANCH  10  13
DOCKED: ENDBRANCH   4  11
DOCKED: ENDBRANCH   3   7
DOCKED: ENDBRANCH   1   3
DOCKED: BRANCH   1  17
DOCKED: ATOM     17  C   UNL     1      19.240 -10.847   1.220 -0.60 -0.00    +0.000 C 
DOCKED: BRANCH  17  18
DOCKED: ATOM     18  C   UNL     1      19.439 -11.672   2.494 -0.71 -0.00    +0.000 C 
DOCKED: BRANCH  18  19
DOCKED: ATOM     19  O   UNL     1      20.638 -12.392   2.414 -1.80 -0.00    +0.000 OA
DOCKED: ATOM     20  H   UNL     1      20.524 -13.144   1.813 -0.63 -0.00    +0.000 HD
DOCKED: ENDBRANCH  18  19
DOCKED: ENDBRANCH  17  18
DOCKED: ENDBRANCH   1  17
DOCKED: BRANCH   1  21
DOCKED: ATOM     21  C   UNL     1      18.623 -11.076  -1.160 -0.44 -0.00    +0.000 C 
DOCKED: BRANCH  21  22
DOCKED: ATOM     22  C   UNL     1      20.118 -10.981  -1.484 -0.34 -0.00    +0.000 C 
DOCKED: BRANCH  22  23
DOCKED: ATOM     23  C   UNL     1      20.480  -9.597  -1.939 -0.45 -0.00    +0.000 A 
DOCKED: ATOM     24  C   UNL     1      21.044  -8.595  -1.156 -0.44 -0.00    +0.000 A 
DOCKED: ATOM     25  N   UNL     1      21.364  -7.524  -1.917 -0.49 -0.00    +0.000 N 
DOCKED: ATOM     26  C   UNL     1      21.022  -7.847  -3.176 -0.37 -0.00    +0.000 A 
DOCKED: ATOM     27  C   UNL     1      20.482  -9.107  -3.232 -0.37 -0.00    +0.000 A 
DOCKED: ATOM     28  C   UNL     1      20.081  -9.681  -4.439 -0.29 -0.00    +0.000 A 
DOCKED: ATOM     29  C   UNL     1      20.244  -8.923  -5.612 -0.18 -0.00    +0.000 A 
DOCKED: ATOM     30  C   UNL     1      20.799  -7.626  -5.556 -0.15 -0.00    +0.000 A 
DOCKED: ATOM     31  C   UNL     1      21.198  -7.075  -4.324 -0.24 -0.00    +0.000 A 
DOCKED: ATOM     32  H   UNL     1      21.766  -6.678  -1.612 -0.05 +0.00    +0.000 HD
DOCKED: ENDBRANCH  22  23
DOCKED: ENDBRANCH  21  22
DOCKED: ENDBRANCH   1  21
DOCKED: TORSDOF 10
DOCKED: TER
DOCKED: ENDMDL
________________________________________________________________________________


	BEGINNING GENETIC ALGORITHM DOCKING 46 of 100
Run: 46 Seed: 1239657766 1013679676 [ Run 46 of 100 GA/GALS ]
Beginning LAMARCKIAN GENETIC ALGORITHM (LGA), with a maximum of 2500000 energy evaluations.

Final-Value: -14.204


	FINAL GENETIC ALGORITHM DOCKED STATE
	_______________________________________________


Detailed state:  trans 19.376 -9.614 -5.049 quatxyzw 0.390934 0.587725 -0.450151 0.546913 center 0.288 0.007 -0.056 ntor 10 60.3996 -19.5679 -6.2899 -129.6035 -114.6151 -162.8210 -122.5560 117.6156 87.4676 161.6164
State:	 19.376  -9.614  -5.049   0.467  0.702 -0.538 113.689     60.40  -19.57   -6.29 -129.60 -114.62 -162.82 -122.56  117.62   87.47  161.62

DOCKED: MODEL       46
DOCKED: USER    Run = 46
DOCKED: USER    DPF = ligand_dock.biased.dpf
DOCKED: USER  
DOCKED: USER    Estimated Free Energy of Binding    =   -9.08 kcal/mol  [=(1)+(2)+(3)-(4)]
DOCKED: USER    Estimated Inhibition Constant, Ki   =  219.89 nM (nanomolar)  [Temperature = 298.15 K]
DOCKED: USER    
DOCKED: USER    (1) Final Intermolecular Energy     =  -12.07 kcal/mol
DOCKED: USER        vdW + Hbond + desolv Energy     =  -12.07 kcal/mol
DOCKED: USER        Electrostatic Energy            =   +0.00 kcal/mol
DOCKED: USER    (2) Final Total Internal Energy     =   -2.14 kcal/mol
DOCKED: USER    (3) Torsional Free Energy           =   +2.98 kcal/mol
DOCKED: USER    (4) Unbound System's Energy  [=(2)] =   -2.14 kcal/mol
DOCKED: USER    
DOCKED: USER    
DOCKED: USER    NEWDPF move ligand.pdbqt
DOCKED: USER    NEWDPF about 0.288000 0.007000 -0.056000
DOCKED: USER    NEWDPF tran0 19.375930 -9.614099 -5.049101
DOCKED: USER    NEWDPF quaternion0 0.390934 0.587725 -0.450151 0.546913
DOCKED: USER    NEWDPF axisangle0 0.466961 0.702022 -0.537693 113.688976
DOCKED: USER    NEWDPF quat0 0.466961 0.702022 -0.537693 113.688976
DOCKED: USER    NEWDPF dihe0 60.40 -19.57 -6.29 -129.60 -114.62 -162.82 -122.56 117.62 87.47 161.62 
DOCKED: USER  keepresnum = 1 
DOCKED: USER  
DOCKED: REMARK  Name = 
DOCKED: REMARK  10 active torsions:
DOCKED: REMARK  status: ('A' for Active; 'I' for Inactive)
DOCKED: REMARK    1  A    between atoms: C_2  and  C_5
DOCKED: REMARK    2  A    between atoms: C_6  and  C_7
DOCKED: REMARK    3  A    between atoms: C_10  and  C_11
DOCKED: REMARK    4  A    between atoms: C_11  and  N_12
DOCKED: REMARK    5  A    between atoms: N_12  and  C_13
DOCKED: REMARK    6  A    between atoms: N_12  and  C_16
DOCKED: REMARK    7  A    between atoms: C_13  and  C_14
DOCKED: REMARK    8  A    between atoms: C_14  and  O_15
DOCKED: REMARK    9  A    between atoms: C_16  and  C_17
DOCKED: REMARK   10  A    between atoms: C_17  and  C_18
DOCKED: REMARK                            x       y       z     vdW  Elec       q    Type
DOCKED: REMARK                         _______ _______ _______ _____ _____    ______ ____
DOCKED: USER                              x       y       z     vdW  Elec       q    Type
DOCKED: USER                           _______ _______ _______ _____ _____    ______ ____
DOCKED: ROOT
DOCKED: ATOM      1  N   UNL     1      19.510 -10.940  -5.135 -0.38 -0.00    +0.000 N 
DOCKED: ATOM      2  H   UNL     1      19.858 -11.686  -5.737 -0.15 -0.00    +0.000 HD
DOCKED: ENDROOT
DOCKED: BRANCH   1   3
DOCKED: ATOM      3  C   UNL     1      20.293  -9.751  -5.563 -0.28 -0.00    +0.000 C 
DOCKED: BRANCH   3   7
DOCKED: ATOM      4  C   UNL     1      24.145 -10.664  -7.349 -0.25 -0.00    +0.000 A 
DOCKED: ATOM      5  C   UNL     1      23.720  -9.334  -7.206 -0.23 -0.00    +0.000 A 
DOCKED: ATOM      6  C   UNL     1      22.482  -9.041  -6.629 -0.22 -0.00    +0.000 A 
DOCKED: ATOM      7  C   UNL     1      21.628 -10.072  -6.207 -0.30 -0.00    +0.000 A 
DOCKED: ATOM      8  C   UNL     1      22.056 -11.403  -6.337 -0.37 -0.00    +0.000 A 
DOCKED: ATOM      9  C   UNL     1      23.295 -11.699  -6.913 -0.44 -0.00    +0.000 A 
DOCKED: BRANCH   4  11
DOCKED: ATOM     10  C   UNL     1      26.579 -10.241  -7.682 -0.39 -0.00    +0.000 C 
DOCKED: ATOM     11  C   UNL     1      25.464 -10.924  -7.979 -0.39 -0.00    +0.000 C 
DOCKED: BRANCH  10  13
DOCKED: ATOM     12  O   UNL     1      28.920 -10.679  -7.655 -0.62 -0.00    +0.000 OA
DOCKED: ATOM     13  C   UNL     1      27.871 -10.523  -8.339 -0.46 -0.00    +0.000 C 
DOCKED: ATOM     14  N   UNL     1      27.936 -10.619  -9.763 -0.29 -0.00    +0.000 N 
DOCKED: ATOM     15  O   UNL     1      29.113 -10.877 -10.381 -0.36 -0.00    +0.000 OA
DOCKED: ATOM     16  H   UNL     1      27.119 -10.497 -10.300 -0.00 -0.00    +0.000 HD
DOCKED: ENDBRANCH  10  13
DOCKED: ENDBRANCH   4  11
DOCKED: ENDBRANCH   3   7
DOCKED: ENDBRANCH   1   3
DOCKED: BRANCH   1  17
DOCKED: ATOM     17  C   UNL     1      18.061 -10.876  -5.435 -0.34 -0.00    +0.000 C 
DOCKED: BRANCH  17  18
DOCKED: ATOM     18  C   UNL     1      17.798 -10.841  -6.943 -0.34 -0.00    +0.000 C 
DOCKED: BRANCH  18  19
DOCKED: ATOM     19  O   UNL     1      18.743 -11.631  -7.610 -0.29 -0.00    +0.000 OA
DOCKED: ATOM     20  H   UNL     1      19.350 -12.023  -6.963 -0.19 -0.00    +0.000 HD
DOCKED: ENDBRANCH  18  19
DOCKED: ENDBRANCH  17  18
DOCKED: ENDBRANCH   1  17
DOCKED: BRANCH   1  21
DOCKED: ATOM     21  C   UNL     1      19.793 -11.366  -3.745 -0.42 -0.00    +0.000 C 
DOCKED: BRANCH  21  22
DOCKED: ATOM     22  C   UNL     1      20.194 -10.161  -2.886 -0.48 -0.00    +0.000 C 
DOCKED: BRANCH  22  23
DOCKED: ATOM     23  C   UNL     1      20.398 -10.567  -1.455 -0.48 -0.00    +0.000 A 
DOCKED: ATOM     24  C   UNL     1      21.594 -10.517  -0.748 -0.58 -0.00    +0.000 A 
DOCKED: ATOM     25  N   UNL     1      21.389 -10.828   0.552 -0.60 -0.00    +0.000 N 
DOCKED: ATOM     26  C   UNL     1      20.070 -11.058   0.675 -0.60 -0.00    +0.000 A 
DOCKED: ATOM     27  C   UNL     1      19.429 -10.905  -0.528 -0.47 -0.00    +0.000 A 
DOCKED: ATOM     28  C   UNL     1      18.047 -11.059  -0.648 -0.37 -0.00    +0.000 A 
DOCKED: ATOM     29  C   UNL     1      17.320 -11.382   0.512 -0.40 +0.00    +0.000 A 
DOCKED: ATOM     30  C   UNL     1      17.979 -11.539   1.750 -0.44 +0.00    +0.000 A 
DOCKED: ATOM     31  C   UNL     1      19.373 -11.374   1.841 -0.60 -0.00    +0.000 A 
DOCKED: ATOM     32  H   UNL     1      22.066 -10.876   1.265 -0.34 -0.00    +0.000 HD
DOCKED: ENDBRANCH  22  23
DOCKED: ENDBRANCH  21  22
DOCKED: ENDBRANCH   1  21
DOCKED: TORSDOF 10
DOCKED: TER
DOCKED: ENDMDL
________________________________________________________________________________


	BEGINNING GENETIC ALGORITHM DOCKING 47 of 100
Run: 47 Seed: 1837509970 972588244 [ Run 47 of 100 GA/GALS ]
Beginning LAMARCKIAN GENETIC ALGORITHM (LGA), with a maximum of 2500000 energy evaluations.

Final-Value: -15.282


	FINAL GENETIC ALGORITHM DOCKED STATE
	_______________________________________________


Detailed state:  trans 21.024 -9.605 -6.027 quatxyzw -0.275573 0.725227 -0.296814 0.556783 center 0.288 0.007 -0.056 ntor 10 115.3477 -8.6986 22.9641 -122.6455 107.2507 106.7938 -81.2353 35.7811 -89.4428 12.1550
State:	 21.024  -9.605  -6.027  -0.332  0.873 -0.357 112.333    115.35   -8.70   22.96 -122.65  107.25  106.79  -81.24   35.78  -89.44   12.16

DOCKED: MODEL       47
DOCKED: USER    Run = 47
DOCKED: USER    DPF = ligand_dock.biased.dpf
DOCKED: USER  
DOCKED: USER    Estimated Free Energy of Binding    =  -10.53 kcal/mol  [=(1)+(2)+(3)-(4)]
DOCKED: USER    Estimated Inhibition Constant, Ki   =   19.15 nM (nanomolar)  [Temperature = 298.15 K]
DOCKED: USER    
DOCKED: USER    (1) Final Intermolecular Energy     =  -13.51 kcal/mol
DOCKED: USER        vdW + Hbond + desolv Energy     =  -13.51 kcal/mol
DOCKED: USER        Electrostatic Energy            =   +0.00 kcal/mol
DOCKED: USER    (2) Final Total Internal Energy     =   -1.77 kcal/mol
DOCKED: USER    (3) Torsional Free Energy           =   +2.98 kcal/mol
DOCKED: USER    (4) Unbound System's Energy  [=(2)] =   -1.77 kcal/mol
DOCKED: USER    
DOCKED: USER    
DOCKED: USER    NEWDPF move ligand.pdbqt
DOCKED: USER    NEWDPF about 0.288000 0.007000 -0.056000
DOCKED: USER    NEWDPF tran0 21.024416 -9.605092 -6.027200
DOCKED: USER    NEWDPF quaternion0 -0.275573 0.725227 -0.296814 0.556783
DOCKED: USER    NEWDPF axisangle0 -0.331752 0.873075 -0.357324 112.332780
DOCKED: USER    NEWDPF quat0 -0.331752 0.873075 -0.357324 112.332780
DOCKED: USER    NEWDPF dihe0 115.35 -8.70 22.96 -122.65 107.25 106.79 -81.24 35.78 -89.44 12.16 
DOCKED: USER  keepresnum = 1 
DOCKED: USER  
DOCKED: REMARK  Name = 
DOCKED: REMARK  10 active torsions:
DOCKED: REMARK  status: ('A' for Active; 'I' for Inactive)
DOCKED: REMARK    1  A    between atoms: C_2  and  C_5
DOCKED: REMARK    2  A    between atoms: C_6  and  C_7
DOCKED: REMARK    3  A    between atoms: C_10  and  C_11
DOCKED: REMARK    4  A    between atoms: C_11  and  N_12
DOCKED: REMARK    5  A    between atoms: N_12  and  C_13
DOCKED: REMARK    6  A    between atoms: N_12  and  C_16
DOCKED: REMARK    7  A    between atoms: C_13  and  C_14
DOCKED: REMARK    8  A    between atoms: C_14  and  O_15
DOCKED: REMARK    9  A    between atoms: C_16  and  C_17
DOCKED: REMARK   10  A    between atoms: C_17  and  C_18
DOCKED: REMARK                            x       y       z     vdW  Elec       q    Type
DOCKED: REMARK                         _______ _______ _______ _____ _____    ______ ____
DOCKED: USER                              x       y       z     vdW  Elec       q    Type
DOCKED: USER                           _______ _______ _______ _____ _____    ______ ____
DOCKED: ROOT
DOCKED: ATOM      1  N   UNL     1      21.543  -9.721  -7.252 -0.20 -0.00    +0.000 N 
DOCKED: ATOM      2  H   UNL     1      21.674  -9.222  -8.132 +0.00 -0.00    +0.000 HD
DOCKED: ENDROOT
DOCKED: BRANCH   1   3
DOCKED: ATOM      3  C   UNL     1      21.380  -8.632  -6.253 -0.21 -0.00    +0.000 C 
DOCKED: BRANCH   3   7
DOCKED: ATOM      4  C   UNL     1      21.246  -9.970  -2.124 -0.51 -0.00    +0.000 A 
DOCKED: ATOM      5  C   UNL     1      21.447 -10.887  -3.166 -0.34 -0.00    +0.000 A 
DOCKED: ATOM      6  C   UNL     1      21.493 -10.456  -4.495 -0.43 -0.00    +0.000 A 
DOCKED: ATOM      7  C   UNL     1      21.310  -9.102  -4.813 -0.30 -0.00    +0.000 A 
DOCKED: ATOM      8  C   UNL     1      21.121  -8.179  -3.771 -0.33 -0.00    +0.000 A 
DOCKED: ATOM      9  C   UNL     1      21.076  -8.608  -2.441 -0.43 -0.00    +0.000 A 
DOCKED: BRANCH   4  11
DOCKED: ATOM     10  C   UNL     1      20.058 -10.810  -0.099 -0.62 -0.00    +0.000 C 
DOCKED: ATOM     11  C   UNL     1      21.194 -10.479  -0.730 -0.68 -0.00    +0.000 C 
DOCKED: BRANCH  10  13
DOCKED: ATOM     12  O   UNL     1      19.519 -12.414   1.577 -1.58 -0.00    +0.000 OA
DOCKED: ATOM     13  C   UNL     1      20.047 -11.304   1.292 -0.72 -0.00    +0.000 C 
DOCKED: ATOM     14  N   UNL     1      20.639 -10.517   2.328 -0.60 -0.00    +0.000 N 
DOCKED: ATOM     15  O   UNL     1      20.637 -10.955   3.609 -1.21 -0.00    +0.000 OA
DOCKED: ATOM     16  H   UNL     1      21.051  -9.650   2.109 -0.57 -0.00    +0.000 HD
DOCKED: ENDBRANCH  10  13
DOCKED: ENDBRANCH   4  11
DOCKED: ENDBRANCH   3   7
DOCKED: ENDBRANCH   1   3
DOCKED: BRANCH   1  17
DOCKED: ATOM     17  C   UNL     1      20.336 -10.549  -7.478 -0.28 -0.00    +0.000 C 
DOCKED: BRANCH  17  18
DOCKED: ATOM     18  C   UNL     1      19.505 -10.026  -8.654 -0.19 -0.00    +0.000 C 
DOCKED: BRANCH  18  19
DOCKED: ATOM     19  O   UNL     1      20.343  -9.746  -9.741 -0.14 -0.00    +0.000 OA
DOCKED: ATOM     20  H   UNL     1      20.862 -10.536  -9.961 -0.01 -0.00    +0.000 HD
DOCKED: ENDBRANCH  18  19
DOCKED: ENDBRANCH  17  18
DOCKED: ENDBRANCH   1  17
DOCKED: BRANCH   1  21
DOCKED: ATOM     21  C   UNL     1      22.768 -10.529  -7.051 -0.37 -0.00    +0.000 C 
DOCKED: BRANCH  21  22
DOCKED: ATOM     22  C   UNL     1      23.999  -9.622  -6.950 -0.15 -0.00    +0.000 C 
DOCKED: BRANCH  22  23
DOCKED: ATOM     23  C   UNL     1      25.183 -10.247  -7.630 -0.31 -0.00    +0.000 A 
DOCKED: ATOM     24  C   UNL     1      25.142 -11.180  -8.661 -0.35 -0.00    +0.000 A 
DOCKED: ATOM     25  N   UNL     1      26.388 -11.426  -9.126 -0.36 -0.00    +0.000 N 
DOCKED: ATOM     26  C   UNL     1      27.214 -10.644  -8.408 -0.37 -0.00    +0.000 A 
DOCKED: ATOM     27  C   UNL     1      26.515  -9.906  -7.486 -0.33 -0.00    +0.000 A 
DOCKED: ATOM     28  C   UNL     1      27.151  -8.993  -6.644 -0.39 -0.00    +0.000 A 
DOCKED: ATOM     29  C   UNL     1      28.545  -8.849  -6.765 -0.40 -0.00    +0.000 A 
DOCKED: ATOM     30  C   UNL     1      29.264  -9.609  -7.713 -0.40 -0.00    +0.000 A 
DOCKED: ATOM     31  C   UNL     1      28.595 -10.519  -8.551 -0.41 -0.00    +0.000 A 
DOCKED: ATOM     32  H   UNL     1      26.640 -12.050  -9.844 -0.31 -0.00    +0.000 HD
DOCKED: ENDBRANCH  22  23
DOCKED: ENDBRANCH  21  22
DOCKED: ENDBRANCH   1  21
DOCKED: TORSDOF 10
DOCKED: TER
DOCKED: ENDMDL
________________________________________________________________________________


	BEGINNING GENETIC ALGORITHM DOCKING 48 of 100
Run: 48 Seed: 34055188 1686842157 [ Run 48 of 100 GA/GALS ]
Beginning LAMARCKIAN GENETIC ALGORITHM (LGA), with a maximum of 2500000 energy evaluations.

Final-Value: -13.819


	FINAL GENETIC ALGORITHM DOCKED STATE
	_______________________________________________


Detailed state:  trans 17.247 -11.825 2.121 quatxyzw -0.503622 0.193961 0.596888 0.593691 center 0.288 0.007 -0.056 ntor 10 -12.3984 -18.5013 58.2277 -28.4245 6.1831 157.5709 -161.8997 176.0803 12.9805 90.5494
State:	 17.247 -11.825   2.121  -0.626  0.241  0.742 107.161    -12.40  -18.50   58.23  -28.42    6.18  157.57 -161.90  176.08   12.98   90.55

DOCKED: MODEL       48
DOCKED: USER    Run = 48
DOCKED: USER    DPF = ligand_dock.biased.dpf
DOCKED: USER  
DOCKED: USER    Estimated Free Energy of Binding    =   -8.71 kcal/mol  [=(1)+(2)+(3)-(4)]
DOCKED: USER    Estimated Inhibition Constant, Ki   =  409.16 nM (nanomolar)  [Temperature = 298.15 K]
DOCKED: USER    
DOCKED: USER    (1) Final Intermolecular Energy     =  -11.70 kcal/mol
DOCKED: USER        vdW + Hbond + desolv Energy     =  -11.70 kcal/mol
DOCKED: USER        Electrostatic Energy            =   +0.00 kcal/mol
DOCKED: USER    (2) Final Total Internal Energy     =   -2.12 kcal/mol
DOCKED: USER    (3) Torsional Free Energy           =   +2.98 kcal/mol
DOCKED: USER    (4) Unbound System's Energy  [=(2)] =   -2.12 kcal/mol
DOCKED: USER    
DOCKED: USER    
DOCKED: USER    NEWDPF move ligand.pdbqt
DOCKED: USER    NEWDPF about 0.288000 0.007000 -0.056000
DOCKED: USER    NEWDPF tran0 17.247434 -11.825182 2.120511
DOCKED: USER    NEWDPF quaternion0 -0.503622 0.193961 0.596888 0.593691
DOCKED: USER    NEWDPF axisangle0 -0.625856 0.241038 0.741758 107.161198
DOCKED: USER    NEWDPF quat0 -0.625856 0.241038 0.741758 107.161198
DOCKED: USER    NEWDPF dihe0 -12.40 -18.50 58.23 -28.42 6.18 157.57 -161.90 176.08 12.98 90.55 
DOCKED: USER  keepresnum = 1 
DOCKED: USER  
DOCKED: REMARK  Name = 
DOCKED: REMARK  10 active torsions:
DOCKED: REMARK  status: ('A' for Active; 'I' for Inactive)
DOCKED: REMARK    1  A    between atoms: C_2  and  C_5
DOCKED: REMARK    2  A    between atoms: C_6  and  C_7
DOCKED: REMARK    3  A    between atoms: C_10  and  C_11
DOCKED: REMARK    4  A    between atoms: C_11  and  N_12
DOCKED: REMARK    5  A    between atoms: N_12  and  C_13
DOCKED: REMARK    6  A    between atoms: N_12  and  C_16
DOCKED: REMARK    7  A    between atoms: C_13  and  C_14
DOCKED: REMARK    8  A    between atoms: C_14  and  O_15
DOCKED: REMARK    9  A    between atoms: C_16  and  C_17
DOCKED: REMARK   10  A    between atoms: C_17  and  C_18
DOCKED: REMARK                            x       y       z     vdW  Elec       q    Type
DOCKED: REMARK                         _______ _______ _______ _____ _____    ______ ____
DOCKED: USER                              x       y       z     vdW  Elec       q    Type
DOCKED: USER                           _______ _______ _______ _____ _____    ______ ____
DOCKED: ROOT
DOCKED: ATOM      1  N   UNL     1      16.814 -10.583   2.350 -0.41 +0.00    +0.000 N 
DOCKED: ATOM      2  H   UNL     1      17.025  -9.729   2.866 -0.02 +0.00    +0.000 HD
DOCKED: ENDROOT
DOCKED: BRANCH   1   3
DOCKED: ATOM      3  C   UNL     1      18.134 -11.255   2.231 -0.52 +0.00    +0.000 C 
DOCKED: BRANCH   3   7
DOCKED: ATOM      4  C   UNL     1      20.276 -10.526  -1.476 -0.48 -0.00    +0.000 A 
DOCKED: ATOM      5  C   UNL     1      20.678  -9.905  -0.284 -0.58 -0.00    +0.000 A 
DOCKED: ATOM      6  C   UNL     1      19.990 -10.142   0.910 -0.49 -0.00    +0.000 A 
DOCKED: ATOM      7  C   UNL     1      18.867 -10.984   0.932 -0.49 -0.00    +0.000 A 
DOCKED: ATOM      8  C   UNL     1      18.471 -11.617  -0.257 -0.45 -0.00    +0.000 A 
DOCKED: ATOM      9  C   UNL     1      19.158 -11.382  -1.452 -0.28 -0.00    +0.000 A 
DOCKED: BRANCH   4  11
DOCKED: ATOM     10  C   UNL     1      20.932 -10.959  -3.841 -0.48 -0.00    +0.000 C 
DOCKED: ATOM     11  C   UNL     1      21.032 -10.233  -2.719 -0.55 -0.00    +0.000 C 
DOCKED: BRANCH  10  13
DOCKED: ATOM     12  O   UNL     1      22.046  -9.452  -5.311 -0.37 -0.00    +0.000 OA
DOCKED: ATOM     13  C   UNL     1      21.710 -10.641  -5.055 -0.49 -0.00    +0.000 C 
DOCKED: ATOM     14  N   UNL     1      22.085 -11.689  -5.952 -0.52 -0.00    +0.000 N 
DOCKED: ATOM     15  O   UNL     1      22.798 -11.414  -7.070 -0.49 -0.00    +0.000 OA
DOCKED: ATOM     16  H   UNL     1      21.823 -12.618  -5.755 -0.53 -0.00    +0.000 HD
DOCKED: ENDBRANCH  10  13
DOCKED: ENDBRANCH   4  11
DOCKED: ENDBRANCH   3   7
DOCKED: ENDBRANCH   1   3
DOCKED: BRANCH   1  17
DOCKED: ATOM     17  C   UNL     1      15.827 -11.288   3.200 -0.52 +0.00    +0.000 C 
DOCKED: BRANCH  17  18
DOCKED: ATOM     18  C   UNL     1      15.219 -10.356   4.251 -0.50 +0.00    +0.000 C 
DOCKED: BRANCH  18  19
DOCKED: ATOM     19  O   UNL     1      15.056  -9.073   3.713 -0.39 +0.00    +0.000 OA
DOCKED: ATOM     20  H   UNL     1      15.923  -8.648   3.623 -0.02 +0.00    +0.000 HD
DOCKED: ENDBRANCH  18  19
DOCKED: ENDBRANCH  17  18
DOCKED: ENDBRANCH   1  17
DOCKED: BRANCH   1  21
DOCKED: ATOM     21  C   UNL     1      16.252 -10.151   1.049 -0.33 +0.00    +0.000 C 
DOCKED: BRANCH  21  22
DOCKED: ATOM     22  C   UNL     1      15.424 -11.277   0.421 -0.38 +0.00    +0.000 C 
DOCKED: BRANCH  22  23
DOCKED: ATOM     23  C   UNL     1      14.145 -10.744  -0.157 -0.27 +0.00    +0.000 A 
DOCKED: ATOM     24  C   UNL     1      14.011 -10.039  -1.348 -0.23 -0.00    +0.000 A 
DOCKED: ATOM     25  N   UNL     1      12.705  -9.831  -1.631 -0.21 -0.00    +0.000 N 
DOCKED: ATOM     26  C   UNL     1      12.012 -10.412  -0.636 -0.24 +0.00    +0.000 A 
DOCKED: ATOM     27  C   UNL     1      12.856 -10.984   0.282 -0.31 +0.00    +0.000 A 
DOCKED: ATOM     28  C   UNL     1      12.371 -11.678   1.392 -0.40 +0.00    +0.000 A 
DOCKED: ATOM     29  C   UNL     1      10.976 -11.776   1.546 -0.32 +0.00    +0.000 A 
DOCKED: ATOM     30  C   UNL     1      10.108 -11.187   0.601 -0.30 +0.00    +0.000 A 
DOCKED: ATOM     31  C   UNL     1      10.626 -10.496  -0.509 -0.17 +0.00    +0.000 A 
DOCKED: ATOM     32  H   UNL     1      12.335  -9.352  -2.407 -0.00 -0.00    +0.000 HD
DOCKED: ENDBRANCH  22  23
DOCKED: ENDBRANCH  21  22
DOCKED: ENDBRANCH   1  21
DOCKED: TORSDOF 10
DOCKED: TER
DOCKED: ENDMDL
________________________________________________________________________________


	BEGINNING GENETIC ALGORITHM DOCKING 49 of 100
Run: 49 Seed: 2114729007 1517498984 [ Run 49 of 100 GA/GALS ]
Beginning LAMARCKIAN GENETIC ALGORITHM (LGA), with a maximum of 2500000 energy evaluations.

Final-Value: -15.631


	FINAL GENETIC ALGORITHM DOCKED STATE
	_______________________________________________


Detailed state:  trans 22.184 -8.914 -6.065 quatxyzw 0.619486 0.174448 0.517126 -0.564257 center 0.288 0.007 -0.056 ntor 10 -180.0000 -152.3626 59.4410 -119.2971 155.2198 -53.7683 149.4191 -156.9359 -143.4406 -93.1732
State:	 22.184  -8.914  -6.065   0.750  0.211  0.626 -111.299   -180.00 -152.36   59.44 -119.30  155.22  -53.77  149.42 -156.94 -143.44  -93.17

DOCKED: MODEL       49
DOCKED: USER    Run = 49
DOCKED: USER    DPF = ligand_dock.biased.dpf
DOCKED: USER  
DOCKED: USER    Estimated Free Energy of Binding    =  -10.95 kcal/mol  [=(1)+(2)+(3)-(4)]
DOCKED: USER    Estimated Inhibition Constant, Ki   =    9.41 nM (nanomolar)  [Temperature = 298.15 K]
DOCKED: USER    
DOCKED: USER    (1) Final Intermolecular Energy     =  -13.93 kcal/mol
DOCKED: USER        vdW + Hbond + desolv Energy     =  -13.93 kcal/mol
DOCKED: USER        Electrostatic Energy            =   +0.00 kcal/mol
DOCKED: USER    (2) Final Total Internal Energy     =   -1.70 kcal/mol
DOCKED: USER    (3) Torsional Free Energy           =   +2.98 kcal/mol
DOCKED: USER    (4) Unbound System's Energy  [=(2)] =   -1.70 kcal/mol
DOCKED: USER    
DOCKED: USER    
DOCKED: USER    NEWDPF move ligand.pdbqt
DOCKED: USER    NEWDPF about 0.288000 0.007000 -0.056000
DOCKED: USER    NEWDPF tran0 22.183687 -8.914489 -6.065110
DOCKED: USER    NEWDPF quaternion0 0.619486 0.174448 0.517126 -0.564257
DOCKED: USER    NEWDPF axisangle0 0.750347 0.211299 0.626364 -111.298633
DOCKED: USER    NEWDPF quat0 0.750347 0.211299 0.626364 -111.298633
DOCKED: USER    NEWDPF dihe0 -180.00 -152.36 59.44 -119.30 155.22 -53.77 149.42 -156.94 -143.44 -93.17 
DOCKED: USER  keepresnum = 1 
DOCKED: USER  
DOCKED: REMARK  Name = 
DOCKED: REMARK  10 active torsions:
DOCKED: REMARK  status: ('A' for Active; 'I' for Inactive)
DOCKED: REMARK    1  A    between atoms: C_2  and  C_5
DOCKED: REMARK    2  A    between atoms: C_6  and  C_7
DOCKED: REMARK    3  A    between atoms: C_10  and  C_11
DOCKED: REMARK    4  A    between atoms: C_11  and  N_12
DOCKED: REMARK    5  A    between atoms: N_12  and  C_13
DOCKED: REMARK    6  A    between atoms: N_12  and  C_16
DOCKED: REMARK    7  A    between atoms: C_13  and  C_14
DOCKED: REMARK    8  A    between atoms: C_14  and  O_15
DOCKED: REMARK    9  A    between atoms: C_16  and  C_17
DOCKED: REMARK   10  A    between atoms: C_17  and  C_18
DOCKED: REMARK                            x       y       z     vdW  Elec       q    Type
DOCKED: REMARK                         _______ _______ _______ _____ _____    ______ ____
DOCKED: USER                              x       y       z     vdW  Elec       q    Type
DOCKED: USER                           _______ _______ _______ _____ _____    ______ ____
DOCKED: ROOT
DOCKED: ATOM      1  N   UNL     1      21.771  -9.862  -6.910 -0.24 -0.00    +0.000 N 
DOCKED: ATOM      2  H   UNL     1      21.043 -10.561  -7.059 -0.02 -0.00    +0.000 HD
DOCKED: ENDROOT
DOCKED: BRANCH   1   3
DOCKED: ATOM      3  C   UNL     1      21.126  -8.870  -6.012 -0.22 -0.00    +0.000 C 
DOCKED: BRANCH   3   7
DOCKED: ATOM      4  C   UNL     1      21.138 -10.015  -1.823 -0.54 -0.00    +0.000 A 
DOCKED: ATOM      5  C   UNL     1      20.665 -10.899  -2.804 -0.36 -0.00    +0.000 A 
DOCKED: ATOM      6  C   UNL     1      20.664 -10.531  -4.152 -0.43 -0.00    +0.000 A 
DOCKED: ATOM      7  C   UNL     1      21.109  -9.260  -4.547 -0.32 -0.00    +0.000 A 
DOCKED: ATOM      8  C   UNL     1      21.596  -8.378  -3.568 -0.30 -0.00    +0.000 A 
DOCKED: ATOM      9  C   UNL     1      21.599  -8.744  -2.218 -0.31 -0.00    +0.000 A 
DOCKED: BRANCH   4  11
DOCKED: ATOM     10  C   UNL     1      20.055 -11.046   0.172 -0.63 -0.00    +0.000 C 
DOCKED: ATOM     11  C   UNL     1      21.108 -10.449  -0.403 -0.70 -0.00    +0.000 C 
DOCKED: BRANCH  10  13
DOCKED: ATOM     12  O   UNL     1      19.891 -12.661   1.914 -1.66 -0.00    +0.000 OA
DOCKED: ATOM     13  C   UNL     1      20.060 -11.454   1.591 -0.75 -0.00    +0.000 C 
DOCKED: ATOM     14  N   UNL     1      20.257 -10.471   2.609 -0.62 -0.00    +0.000 N 
DOCKED: ATOM     15  O   UNL     1      20.265 -10.828   3.916 -1.12 -0.00    +0.000 OA
DOCKED: ATOM     16  H   UNL     1      20.389  -9.527   2.360 -0.51 -0.00    +0.000 HD
DOCKED: ENDBRANCH  10  13
DOCKED: ENDBRANCH   4  11
DOCKED: ENDBRANCH   3   7
DOCKED: ENDBRANCH   1   3
DOCKED: BRANCH   1  17
DOCKED: ATOM     17  C   UNL     1      22.888 -10.623  -6.303 -0.14 -0.00    +0.000 C 
DOCKED: BRANCH  17  18
DOCKED: ATOM     18  C   UNL     1      22.727 -12.130  -6.518 -0.40 -0.00    +0.000 C 
DOCKED: BRANCH  18  19
DOCKED: ATOM     19  O   UNL     1      22.156 -12.714  -5.379 -0.85 -0.00    +0.000 OA
DOCKED: ATOM     20  H   UNL     1      21.316 -13.135  -5.619 -0.66 -0.00    +0.000 HD
DOCKED: ENDBRANCH  18  19
DOCKED: ENDBRANCH  17  18
DOCKED: ENDBRANCH   1  17
DOCKED: BRANCH   1  21
DOCKED: ATOM     21  C   UNL     1      22.101  -9.321  -8.250 -0.16 -0.00    +0.000 C 
DOCKED: BRANCH  21  22
DOCKED: ATOM     22  C   UNL     1      23.619  -9.306  -8.463 -0.17 -0.00    +0.000 C 
DOCKED: BRANCH  22  23
DOCKED: ATOM     23  C   UNL     1      24.093 -10.609  -9.038 -0.20 -0.00    +0.000 A 
DOCKED: ATOM     24  C   UNL     1      25.206 -11.334  -8.625 -0.37 -0.00    +0.000 A 
DOCKED: ATOM     25  N   UNL     1      25.261 -12.523  -9.267 -0.41 -0.00    +0.000 N 
DOCKED: ATOM     26  C   UNL     1      24.183 -12.562 -10.070 -0.29 -0.00    +0.000 A 
DOCKED: ATOM     27  C   UNL     1      23.442 -11.413  -9.955 -0.19 -0.00    +0.000 A 
DOCKED: ATOM     28  C   UNL     1      22.255 -11.231 -10.666 -0.16 -0.00    +0.000 A 
DOCKED: ATOM     29  C   UNL     1      21.833 -12.270 -11.515 -0.08 -0.00    +0.000 A 
DOCKED: ATOM     30  C   UNL     1      22.595 -13.453 -11.634 -0.24 -0.00    +0.000 A 
DOCKED: ATOM     31  C   UNL     1      23.786 -13.609 -10.902 -0.30 -0.00    +0.000 A 
DOCKED: ATOM     32  H   UNL     1      25.949 -13.219  -9.168 -0.58 -0.00    +0.000 HD
DOCKED: ENDBRANCH  22  23
DOCKED: ENDBRANCH  21  22
DOCKED: ENDBRANCH   1  21
DOCKED: TORSDOF 10
DOCKED: TER
DOCKED: ENDMDL
________________________________________________________________________________


	BEGINNING GENETIC ALGORITHM DOCKING 50 of 100
Run: 50 Seed: 1493969732 1245427577 [ Run 50 of 100 GA/GALS ]
Beginning LAMARCKIAN GENETIC ALGORITHM (LGA), with a maximum of 2500000 energy evaluations.

Final-Value: -14.912


	FINAL GENETIC ALGORITHM DOCKED STATE
	_______________________________________________


Detailed state:  trans 13.895 -9.744 3.022 quatxyzw 0.155194 -0.665219 0.544442 -0.486807 center 0.288 0.007 -0.056 ntor 10 176.4952 -15.4241 45.9907 10.8159 159.1354 147.3587 -177.5242 -65.4674 157.7014 -18.7787
State:	 13.895  -9.744   3.022   0.178 -0.762  0.623 -121.738    176.50  -15.42   45.99   10.82  159.14  147.36 -177.52  -65.47  157.70  -18.78

DOCKED: MODEL       50
DOCKED: USER    Run = 50
DOCKED: USER    DPF = ligand_dock.biased.dpf
DOCKED: USER  
DOCKED: USER    Estimated Free Energy of Binding    =   -9.78 kcal/mol  [=(1)+(2)+(3)-(4)]
DOCKED: USER    Estimated Inhibition Constant, Ki   =   67.24 nM (nanomolar)  [Temperature = 298.15 K]
DOCKED: USER    
DOCKED: USER    (1) Final Intermolecular Energy     =  -12.77 kcal/mol
DOCKED: USER        vdW + Hbond + desolv Energy     =  -12.77 kcal/mol
DOCKED: USER        Electrostatic Energy            =   +0.00 kcal/mol
DOCKED: USER    (2) Final Total Internal Energy     =   -2.14 kcal/mol
DOCKED: USER    (3) Torsional Free Energy           =   +2.98 kcal/mol
DOCKED: USER    (4) Unbound System's Energy  [=(2)] =   -2.14 kcal/mol
DOCKED: USER    
DOCKED: USER    
DOCKED: USER    NEWDPF move ligand.pdbqt
DOCKED: USER    NEWDPF about 0.288000 0.007000 -0.056000
DOCKED: USER    NEWDPF tran0 13.895353 -9.743575 3.022352
DOCKED: USER    NEWDPF quaternion0 0.155194 -0.665219 0.544442 -0.486807
DOCKED: USER    NEWDPF axisangle0 0.177667 -0.761547 0.623281 -121.738199
DOCKED: USER    NEWDPF quat0 0.177667 -0.761547 0.623281 -121.738199
DOCKED: USER    NEWDPF dihe0 176.50 -15.42 45.99 10.82 159.14 147.36 -177.52 -65.47 157.70 -18.78 
DOCKED: USER  keepresnum = 1 
DOCKED: USER  
DOCKED: REMARK  Name = 
DOCKED: REMARK  10 active torsions:
DOCKED: REMARK  status: ('A' for Active; 'I' for Inactive)
DOCKED: REMARK    1  A    between atoms: C_2  and  C_5
DOCKED: REMARK    2  A    between atoms: C_6  and  C_7
DOCKED: REMARK    3  A    between atoms: C_10  and  C_11
DOCKED: REMARK    4  A    between atoms: C_11  and  N_12
DOCKED: REMARK    5  A    between atoms: N_12  and  C_13
DOCKED: REMARK    6  A    between atoms: N_12  and  C_16
DOCKED: REMARK    7  A    between atoms: C_13  and  C_14
DOCKED: REMARK    8  A    between atoms: C_14  and  O_15
DOCKED: REMARK    9  A    between atoms: C_16  and  C_17
DOCKED: REMARK   10  A    between atoms: C_17  and  C_18
DOCKED: REMARK                            x       y       z     vdW  Elec       q    Type
DOCKED: REMARK                         _______ _______ _______ _____ _____    ______ ____
DOCKED: USER                              x       y       z     vdW  Elec       q    Type
DOCKED: USER                           _______ _______ _______ _____ _____    ______ ____
DOCKED: ROOT
DOCKED: ATOM      1  N   UNL     1      14.741 -10.275   2.136 -0.29 +0.00    +0.000 N 
DOCKED: ATOM      2  H   UNL     1      15.054 -10.208   1.167 +0.00 +0.00    +0.000 HD
DOCKED: ENDROOT
DOCKED: BRANCH   1   3
DOCKED: ATOM      3  C   UNL     1      14.191  -8.923   2.420 -0.27 +0.00    +0.000 C 
DOCKED: BRANCH   3   7
DOCKED: ATOM      4  C   UNL     1      11.204  -8.871   5.572 -0.19 +0.00    +0.000 A 
DOCKED: ATOM      5  C   UNL     1      10.839  -8.644   4.236 -0.15 +0.00    +0.000 A 
DOCKED: ATOM      6  C   UNL     1      11.799  -8.663   3.222 -0.14 +0.00    +0.000 A 
DOCKED: ATOM      7  C   UNL     1      13.152  -8.883   3.524 -0.22 +0.00    +0.000 A 
DOCKED: ATOM      8  C   UNL     1      13.519  -9.124   4.858 -0.37 +0.00    +0.000 A 
DOCKED: ATOM      9  C   UNL     1      12.560  -9.105   5.875 -0.35 +0.00    +0.000 A 
DOCKED: BRANCH   4  11
DOCKED: ATOM     10  C   UNL     1       9.166  -7.917   6.644 -0.39 +0.00    +0.000 C 
DOCKED: ATOM     11  C   UNL     1      10.148  -8.829   6.614 -0.34 +0.00    +0.000 C 
DOCKED: BRANCH  10  13
DOCKED: ATOM     12  O   UNL     1       8.253  -8.640   8.720 -0.71 +0.00    +0.000 OA
DOCKED: ATOM     13  C   UNL     1       8.139  -7.902   7.704 -0.55 +0.00    +0.000 C 
DOCKED: ATOM     14  N   UNL     1       7.002  -7.044   7.578 -0.46 +0.00    +0.000 N 
DOCKED: ATOM     15  O   UNL     1       6.051  -7.019   8.542 -1.07 +0.00    +0.000 OA
DOCKED: ATOM     16  H   UNL     1       6.910  -6.467   6.786 -0.01 +0.00    +0.000 HD
DOCKED: ENDBRANCH  10  13
DOCKED: ENDBRANCH   4  11
DOCKED: ENDBRANCH   3   7
DOCKED: ENDBRANCH   1   3
DOCKED: BRANCH   1  17
DOCKED: ATOM     17  C   UNL     1      13.740 -11.367   2.121 -0.43 +0.00    +0.000 C 
DOCKED: BRANCH  17  18
DOCKED: ATOM     18  C   UNL     1      13.632 -12.015   0.738 -0.46 +0.00    +0.000 C 
DOCKED: BRANCH  18  19
DOCKED: ATOM     19  O   UNL     1      14.905 -12.128   0.165 -0.50 +0.00    +0.000 OA
DOCKED: ATOM     20  H   UNL     1      15.122 -13.066   0.044 -0.04 +0.00    +0.000 HD
DOCKED: ENDBRANCH  18  19
DOCKED: ENDBRANCH  17  18
DOCKED: ENDBRANCH   1  17
DOCKED: BRANCH   1  21
DOCKED: ATOM     21  C   UNL     1      15.944 -10.604   2.936 -0.48 +0.00    +0.000 C 
DOCKED: BRANCH  21  22
DOCKED: ATOM     22  C   UNL     1      16.820 -11.620   2.194 -0.32 +0.00    +0.000 C 
DOCKED: BRANCH  22  23
DOCKED: ATOM     23  C   UNL     1      18.198 -11.071   1.963 -0.47 -0.00    +0.000 A 
DOCKED: ATOM     24  C   UNL     1      19.139 -10.771   2.941 -0.57 -0.00    +0.000 A 
DOCKED: ATOM     25  N   UNL     1      20.317 -10.425   2.375 -0.56 -0.00    +0.000 N 
DOCKED: ATOM     26  C   UNL     1      20.132 -10.519   1.046 -0.58 -0.00    +0.000 A 
DOCKED: ATOM     27  C   UNL     1      18.852 -10.914   0.755 -0.47 -0.00    +0.000 A 
DOCKED: ATOM     28  C   UNL     1      18.427 -11.115  -0.560 -0.40 -0.00    +0.000 A 
DOCKED: ATOM     29  C   UNL     1      19.359 -10.897  -1.591 -0.40 -0.00    +0.000 A 
DOCKED: ATOM     30  C   UNL     1      20.677 -10.490  -1.290 -0.53 -0.00    +0.000 A 
DOCKED: ATOM     31  C   UNL     1      21.077 -10.299   0.044 -0.62 -0.00    +0.000 A 
DOCKED: ATOM     32  H   UNL     1      21.143 -10.158   2.839 -0.41 -0.00    +0.000 HD
DOCKED: ENDBRANCH  22  23
DOCKED: ENDBRANCH  21  22
DOCKED: ENDBRANCH   1  21
DOCKED: TORSDOF 10
DOCKED: TER
DOCKED: ENDMDL
________________________________________________________________________________


	BEGINNING GENETIC ALGORITHM DOCKING 51 of 100
Run: 51 Seed: 1407641311 1590018896 [ Run 51 of 100 GA/GALS ]
Beginning LAMARCKIAN GENETIC ALGORITHM (LGA), with a maximum of 2500000 energy evaluations.

Final-Value: -16.049


	FINAL GENETIC ALGORITHM DOCKED STATE
	_______________________________________________


Detailed state:  trans 21.481 -9.529 -6.431 quatxyzw -0.550422 -0.424105 -0.492244 0.524277 center 0.288 0.007 -0.056 ntor 10 176.8757 -112.3328 63.5494 -144.9160 180.0000 147.4307 141.1669 -179.4298 -164.5866 -113.2674
State:	 21.481  -9.529  -6.431  -0.646 -0.498 -0.578 116.761    176.88 -112.33   63.55 -144.92  180.00  147.43  141.17 -179.43 -164.59 -113.27

DOCKED: MODEL       51
DOCKED: USER    Run = 51
DOCKED: USER    DPF = ligand_dock.biased.dpf
DOCKED: USER  
DOCKED: USER    Estimated Free Energy of Binding    =  -11.09 kcal/mol  [=(1)+(2)+(3)-(4)]
DOCKED: USER    Estimated Inhibition Constant, Ki   =    7.46 nM (nanomolar)  [Temperature = 298.15 K]
DOCKED: USER    
DOCKED: USER    (1) Final Intermolecular Energy     =  -14.07 kcal/mol
DOCKED: USER        vdW + Hbond + desolv Energy     =  -14.07 kcal/mol
DOCKED: USER        Electrostatic Energy            =   +0.00 kcal/mol
DOCKED: USER    (2) Final Total Internal Energy     =   -1.98 kcal/mol
DOCKED: USER    (3) Torsional Free Energy           =   +2.98 kcal/mol
DOCKED: USER    (4) Unbound System's Energy  [=(2)] =   -1.98 kcal/mol
DOCKED: USER    
DOCKED: USER    
DOCKED: USER    NEWDPF move ligand.pdbqt
DOCKED: USER    NEWDPF about 0.288000 0.007000 -0.056000
DOCKED: USER    NEWDPF tran0 21.480886 -9.529443 -6.430613
DOCKED: USER    NEWDPF quaternion0 -0.550422 -0.424105 -0.492244 0.524277
DOCKED: USER    NEWDPF axisangle0 -0.646378 -0.498040 -0.578058 116.760789
DOCKED: USER    NEWDPF quat0 -0.646378 -0.498040 -0.578058 116.760789
DOCKED: USER    NEWDPF dihe0 176.88 -112.33 63.55 -144.92 180.00 147.43 141.17 -179.43 -164.59 -113.27 
DOCKED: USER  keepresnum = 1 
DOCKED: USER  
DOCKED: REMARK  Name = 
DOCKED: REMARK  10 active torsions:
DOCKED: REMARK  status: ('A' for Active; 'I' for Inactive)
DOCKED: REMARK    1  A    between atoms: C_2  and  C_5
DOCKED: REMARK    2  A    between atoms: C_6  and  C_7
DOCKED: REMARK    3  A    between atoms: C_10  and  C_11
DOCKED: REMARK    4  A    between atoms: C_11  and  N_12
DOCKED: REMARK    5  A    between atoms: N_12  and  C_13
DOCKED: REMARK    6  A    between atoms: N_12  and  C_16
DOCKED: REMARK    7  A    between atoms: C_13  and  C_14
DOCKED: REMARK    8  A    between atoms: C_14  and  O_15
DOCKED: REMARK    9  A    between atoms: C_16  and  C_17
DOCKED: REMARK   10  A    between atoms: C_17  and  C_18
DOCKED: REMARK                            x       y       z     vdW  Elec       q    Type
DOCKED: REMARK                         _______ _______ _______ _____ _____    ______ ____
DOCKED: USER                              x       y       z     vdW  Elec       q    Type
DOCKED: USER                           _______ _______ _______ _____ _____    ______ ____
DOCKED: ROOT
DOCKED: ATOM      1  N   UNL     1      21.295 -10.780  -6.860 -0.31 -0.00    +0.000 N 
DOCKED: ATOM      2  H   UNL     1      20.865 -11.671  -6.613 -0.41 -0.00    +0.000 HD
DOCKED: ENDROOT
DOCKED: BRANCH   1   3
DOCKED: ATOM      3  C   UNL     1      20.515  -9.786  -6.078 -0.27 -0.00    +0.000 C 
DOCKED: BRANCH   3   7
DOCKED: ATOM      4  C   UNL     1      20.738 -10.374  -1.780 -0.51 -0.00    +0.000 A 
DOCKED: ATOM      5  C   UNL     1      19.997 -11.253  -2.585 -0.07 -0.00    +0.000 A 
DOCKED: ATOM      6  C   UNL     1      19.927 -11.065  -3.968 -0.43 -0.00    +0.000 A 
DOCKED: ATOM      7  C   UNL     1      20.575  -9.977  -4.575 -0.35 -0.00    +0.000 A 
DOCKED: ATOM      8  C   UNL     1      21.329  -9.104  -3.773 -0.37 -0.00    +0.000 A 
DOCKED: ATOM      9  C   UNL     1      21.400  -9.290  -2.389 -0.45 -0.00    +0.000 A 
DOCKED: BRANCH   4  11
DOCKED: ATOM     10  C   UNL     1      19.856 -11.334   0.344 -0.63 -0.00    +0.000 C 
DOCKED: ATOM     11  C   UNL     1      20.772 -10.611  -0.315 -0.67 -0.00    +0.000 C 
DOCKED: BRANCH  10  13
DOCKED: ATOM     12  O   UNL     1      19.526 -12.620   2.322 -1.42 -0.00    +0.000 OA
DOCKED: ATOM     13  C   UNL     1      19.918 -11.537   1.805 -0.75 -0.00    +0.000 C 
DOCKED: ATOM     14  N   UNL     1      20.426 -10.498   2.644 -0.62 -0.00    +0.000 N 
DOCKED: ATOM     15  O   UNL     1      20.490 -10.669   3.986 -1.05 -0.00    +0.000 OA
DOCKED: ATOM     16  H   UNL     1      20.732  -9.651   2.244 -0.54 -0.00    +0.000 HD
DOCKED: ENDBRANCH  10  13
DOCKED: ENDBRANCH   4  11
DOCKED: ENDBRANCH   3   7
DOCKED: ENDBRANCH   1   3
DOCKED: BRANCH   1  17
DOCKED: ATOM     17  C   UNL     1      22.709 -10.930  -6.449 -0.36 -0.00    +0.000 C 
DOCKED: BRANCH  17  18
DOCKED: ATOM     18  C   UNL     1      23.111 -12.403  -6.334 -0.47 -0.00    +0.000 C 
DOCKED: BRANCH  18  19
DOCKED: ATOM     19  O   UNL     1      22.271 -13.055  -5.422 -0.75 -0.00    +0.000 OA
DOCKED: ATOM     20  H   UNL     1      21.767 -13.743  -5.882 -0.59 -0.00    +0.000 HD
DOCKED: ENDBRANCH  18  19
DOCKED: ENDBRANCH  17  18
DOCKED: ENDBRANCH   1  17
DOCKED: BRANCH   1  21
DOCKED: ATOM     21  C   UNL     1      21.131 -10.638  -8.326 -0.25 -0.00    +0.000 C 
DOCKED: BRANCH  21  22
DOCKED: ATOM     22  C   UNL     1      22.230  -9.739  -8.904 -0.16 -0.00    +0.000 C 
DOCKED: BRANCH  22  23
DOCKED: ATOM     23  C   UNL     1      23.510 -10.503  -9.081 -0.18 -0.00    +0.000 A 
DOCKED: ATOM     24  C   UNL     1      23.724 -11.557  -9.963 -0.20 -0.00    +0.000 A 
DOCKED: ATOM     25  N   UNL     1      25.026 -11.921  -9.958 -0.27 -0.00    +0.000 N 
DOCKED: ATOM     26  C   UNL     1      25.639 -11.096  -9.092 -0.31 -0.00    +0.000 A 
DOCKED: ATOM     27  C   UNL     1      24.748 -10.213  -8.538 -0.25 -0.00    +0.000 A 
DOCKED: ATOM     28  C   UNL     1      25.154  -9.232  -7.632 -0.26 -0.00    +0.000 A 
DOCKED: ATOM     29  C   UNL     1      26.519  -9.173  -7.297 -0.34 -0.00    +0.000 A 
DOCKED: ATOM     30  C   UNL     1      27.436 -10.082  -7.866 -0.41 -0.00    +0.000 A 
DOCKED: ATOM     31  C   UNL     1      26.998 -11.059  -8.779 -0.32 -0.00    +0.000 A 
DOCKED: ATOM     32  H   UNL     1      25.441 -12.644 -10.482 -0.12 -0.00    +0.000 HD
DOCKED: ENDBRANCH  22  23
DOCKED: ENDBRANCH  21  22
DOCKED: ENDBRANCH   1  21
DOCKED: TORSDOF 10
DOCKED: TER
DOCKED: ENDMDL
________________________________________________________________________________


	BEGINNING GENETIC ALGORITHM DOCKING 52 of 100
Run: 52 Seed: 754112012 119082684 [ Run 52 of 100 GA/GALS ]
Beginning LAMARCKIAN GENETIC ALGORITHM (LGA), with a maximum of 2500000 energy evaluations.

Final-Value: -14.507


	FINAL GENETIC ALGORITHM DOCKED STATE
	_______________________________________________


Detailed state:  trans 22.266 -9.260 -7.549 quatxyzw -0.510919 -0.463506 -0.481706 0.540447 center 0.288 0.007 -0.056 ntor 10 105.9475 -114.6178 72.8134 -54.7205 7.5458 -44.0493 -171.0190 -116.4034 -159.4674 -137.3668
State:	 22.266  -9.260  -7.549  -0.607 -0.551 -0.573 114.572    105.95 -114.62   72.81  -54.72    7.55  -44.05 -171.02 -116.40 -159.47 -137.37

DOCKED: MODEL       52
DOCKED: USER    Run = 52
DOCKED: USER    DPF = ligand_dock.biased.dpf
DOCKED: USER  
DOCKED: USER    Estimated Free Energy of Binding    =   -9.67 kcal/mol  [=(1)+(2)+(3)-(4)]
DOCKED: USER    Estimated Inhibition Constant, Ki   =   81.01 nM (nanomolar)  [Temperature = 298.15 K]
DOCKED: USER    
DOCKED: USER    (1) Final Intermolecular Energy     =  -12.66 kcal/mol
DOCKED: USER        vdW + Hbond + desolv Energy     =  -12.66 kcal/mol
DOCKED: USER        Electrostatic Energy            =   +0.00 kcal/mol
DOCKED: USER    (2) Final Total Internal Energy     =   -1.85 kcal/mol
DOCKED: USER    (3) Torsional Free Energy           =   +2.98 kcal/mol
DOCKED: USER    (4) Unbound System's Energy  [=(2)] =   -1.85 kcal/mol
DOCKED: USER    
DOCKED: USER    
DOCKED: USER    NEWDPF move ligand.pdbqt
DOCKED: USER    NEWDPF about 0.288000 0.007000 -0.056000
DOCKED: USER    NEWDPF tran0 22.265764 -9.260025 -7.549220
DOCKED: USER    NEWDPF quaternion0 -0.510919 -0.463506 -0.481706 0.540447
DOCKED: USER    NEWDPF axisangle0 -0.607241 -0.550889 -0.572521 114.571899
DOCKED: USER    NEWDPF quat0 -0.607241 -0.550889 -0.572521 114.571899
DOCKED: USER    NEWDPF dihe0 105.95 -114.62 72.81 -54.72 7.55 -44.05 -171.02 -116.40 -159.47 -137.37 
DOCKED: USER  keepresnum = 1 
DOCKED: USER  
DOCKED: REMARK  Name = 
DOCKED: REMARK  10 active torsions:
DOCKED: REMARK  status: ('A' for Active; 'I' for Inactive)
DOCKED: REMARK    1  A    between atoms: C_2  and  C_5
DOCKED: REMARK    2  A    between atoms: C_6  and  C_7
DOCKED: REMARK    3  A    between atoms: C_10  and  C_11
DOCKED: REMARK    4  A    between atoms: C_11  and  N_12
DOCKED: REMARK    5  A    between atoms: N_12  and  C_13
DOCKED: REMARK    6  A    between atoms: N_12  and  C_16
DOCKED: REMARK    7  A    between atoms: C_13  and  C_14
DOCKED: REMARK    8  A    between atoms: C_14  and  O_15
DOCKED: REMARK    9  A    between atoms: C_16  and  C_17
DOCKED: REMARK   10  A    between atoms: C_17  and  C_18
DOCKED: REMARK                            x       y       z     vdW  Elec       q    Type
DOCKED: REMARK                         _______ _______ _______ _____ _____    ______ ____
DOCKED: USER                              x       y       z     vdW  Elec       q    Type
DOCKED: USER                           _______ _______ _______ _____ _____    ______ ____
DOCKED: ROOT
DOCKED: ATOM      1  N   UNL     1      22.143 -10.557  -7.842 -0.26 -0.00    +0.000 N 
DOCKED: ATOM      2  H   UNL     1      21.758 -11.437  -7.500 -0.28 -0.00    +0.000 HD
DOCKED: ENDROOT
DOCKED: BRANCH   1   3
DOCKED: ATOM      3  C   UNL     1      21.313  -9.525  -7.168 -0.22 -0.00    +0.000 C 
DOCKED: BRANCH   3   7
DOCKED: ATOM      4  C   UNL     1      20.202 -10.553  -3.097 -0.43 -0.00    +0.000 A 
DOCKED: ATOM      5  C   UNL     1      19.693 -11.281  -4.183 -0.43 -0.00    +0.000 A 
DOCKED: ATOM      6  C   UNL     1      20.053 -10.953  -5.492 -0.39 -0.00    +0.000 A 
DOCKED: ATOM      7  C   UNL     1      20.908  -9.869  -5.748 -0.28 -0.00    +0.000 A 
DOCKED: ATOM      8  C   UNL     1      21.429  -9.146  -4.662 -0.31 -0.00    +0.000 A 
DOCKED: ATOM      9  C   UNL     1      21.071  -9.474  -3.351 -0.42 -0.00    +0.000 A 
DOCKED: BRANCH   4  11
DOCKED: ATOM     10  C   UNL     1      20.381 -10.493  -0.611 -0.62 -0.00    +0.000 C 
DOCKED: ATOM     11  C   UNL     1      19.781 -10.935  -1.726 -0.41 -0.00    +0.000 C 
DOCKED: BRANCH  10  13
DOCKED: ATOM     12  O   UNL     1      18.745 -10.728   1.102 -0.58 -0.00    +0.000 OA
DOCKED: ATOM     13  C   UNL     1      19.939 -10.905   0.735 -0.66 -0.00    +0.000 C 
DOCKED: ATOM     14  N   UNL     1      20.871 -11.509   1.634 -0.69 -0.00    +0.000 N 
DOCKED: ATOM     15  O   UNL     1      20.481 -11.892   2.873 -1.71 -0.00    +0.000 OA
DOCKED: ATOM     16  H   UNL     1      21.804 -11.648   1.351 -0.55 -0.00    +0.000 HD
DOCKED: ENDBRANCH  10  13
DOCKED: ENDBRANCH   4  11
DOCKED: ENDBRANCH   3   7
DOCKED: ENDBRANCH   1   3
DOCKED: BRANCH   1  17
DOCKED: ATOM     17  C   UNL     1      23.563 -10.591  -7.422 -0.36 -0.00    +0.000 C 
DOCKED: BRANCH  17  18
DOCKED: ATOM     18  C   UNL     1      24.102 -12.023  -7.371 -0.40 -0.00    +0.000 C 
DOCKED: BRANCH  18  19
DOCKED: ATOM     19  O   UNL     1      23.354 -12.782  -6.462 -0.94 -0.00    +0.000 OA
DOCKED: ATOM     20  H   UNL     1      22.409 -12.618  -6.605 -0.52 -0.00    +0.000 HD
DOCKED: ENDBRANCH  18  19
DOCKED: ENDBRANCH  17  18
DOCKED: ENDBRANCH   1  17
DOCKED: BRANCH   1  21
DOCKED: ATOM     21  C   UNL     1      21.976 -10.580  -9.315 -0.22 -0.00    +0.000 C 
DOCKED: BRANCH  21  22
DOCKED: ATOM     22  C   UNL     1      23.215 -11.184  -9.985 -0.20 -0.00    +0.000 C 
DOCKED: BRANCH  22  23
DOCKED: ATOM     23  C   UNL     1      22.831 -12.290 -10.925 -0.20 -0.00    +0.000 A 
DOCKED: ATOM     24  C   UNL     1      23.322 -13.591 -10.909 -0.31 -0.00    +0.000 A 
DOCKED: ATOM     25  N   UNL     1      22.663 -14.357 -11.807 -0.31 +0.00    +0.000 N 
DOCKED: ATOM     26  C   UNL     1      21.748 -13.554 -12.379 -0.22 -0.00    +0.000 A 
DOCKED: ATOM     27  C   UNL     1      21.817 -12.285 -11.864 -0.13 -0.00    +0.000 A 
DOCKED: ATOM     28  C   UNL     1      20.943 -11.277 -12.277 -0.10 -0.00    +0.000 A 
DOCKED: ATOM     29  C   UNL     1      19.979 -11.602 -13.249 -0.12 -0.00    +0.000 A 
DOCKED: ATOM     30  C   UNL     1      19.909 -12.909 -13.779 -0.16 -0.00    +0.000 A 
DOCKED: ATOM     31  C   UNL     1      20.800 -13.905 -13.341 -0.23 +0.00    +0.000 A 
DOCKED: ATOM     32  H   UNL     1      22.819 -15.309 -12.003 -0.01 +0.00    +0.000 HD
DOCKED: ENDBRANCH  22  23
DOCKED: ENDBRANCH  21  22
DOCKED: ENDBRANCH   1  21
DOCKED: TORSDOF 10
DOCKED: TER
DOCKED: ENDMDL
________________________________________________________________________________


	BEGINNING GENETIC ALGORITHM DOCKING 53 of 100
Run: 53 Seed: 473605873 362756101 [ Run 53 of 100 GA/GALS ]
Beginning LAMARCKIAN GENETIC ALGORITHM (LGA), with a maximum of 2500000 energy evaluations.

Final-Value: -14.557


	FINAL GENETIC ALGORITHM DOCKED STATE
	_______________________________________________


Detailed state:  trans 21.331 -8.785 -5.325 quatxyzw 0.314038 -0.595468 -0.240831 -0.699141 center 0.288 0.007 -0.056 ntor 10 -25.0029 -60.2580 11.9186 21.4610 155.3232 167.8420 -66.0675 127.2214 160.4690 -32.3621
State:	 21.331  -8.785  -5.325   0.439 -0.833 -0.337 -91.284    -25.00  -60.26   11.92   21.46  155.32  167.84  -66.07  127.22  160.47  -32.36

DOCKED: MODEL       53
DOCKED: USER    Run = 53
DOCKED: USER    DPF = ligand_dock.biased.dpf
DOCKED: USER  
DOCKED: USER    Estimated Free Energy of Binding    =   -9.45 kcal/mol  [=(1)+(2)+(3)-(4)]
DOCKED: USER    Estimated Inhibition Constant, Ki   =  118.78 nM (nanomolar)  [Temperature = 298.15 K]
DOCKED: USER    
DOCKED: USER    (1) Final Intermolecular Energy     =  -12.43 kcal/mol
DOCKED: USER        vdW + Hbond + desolv Energy     =  -12.43 kcal/mol
DOCKED: USER        Electrostatic Energy            =   +0.00 kcal/mol
DOCKED: USER    (2) Final Total Internal Energy     =   -2.13 kcal/mol
DOCKED: USER    (3) Torsional Free Energy           =   +2.98 kcal/mol
DOCKED: USER    (4) Unbound System's Energy  [=(2)] =   -2.13 kcal/mol
DOCKED: USER    
DOCKED: USER    
DOCKED: USER    NEWDPF move ligand.pdbqt
DOCKED: USER    NEWDPF about 0.288000 0.007000 -0.056000
DOCKED: USER    NEWDPF tran0 21.331354 -8.784694 -5.324501
DOCKED: USER    NEWDPF quaternion0 0.314038 -0.595468 -0.240831 -0.699141
DOCKED: USER    NEWDPF axisangle0 0.439224 -0.832842 -0.336835 -91.283710
DOCKED: USER    NEWDPF quat0 0.439224 -0.832842 -0.336835 -91.283710
DOCKED: USER    NEWDPF dihe0 -25.00 -60.26 11.92 21.46 155.32 167.84 -66.07 127.22 160.47 -32.36 
DOCKED: USER  keepresnum = 1 
DOCKED: USER  
DOCKED: REMARK  Name = 
DOCKED: REMARK  10 active torsions:
DOCKED: REMARK  status: ('A' for Active; 'I' for Inactive)
DOCKED: REMARK    1  A    between atoms: C_2  and  C_5
DOCKED: REMARK    2  A    between atoms: C_6  and  C_7
DOCKED: REMARK    3  A    between atoms: C_10  and  C_11
DOCKED: REMARK    4  A    between atoms: C_11  and  N_12
DOCKED: REMARK    5  A    between atoms: N_12  and  C_13
DOCKED: REMARK    6  A    between atoms: N_12  and  C_16
DOCKED: REMARK    7  A    between atoms: C_13  and  C_14
DOCKED: REMARK    8  A    between atoms: C_14  and  O_15
DOCKED: REMARK    9  A    between atoms: C_16  and  C_17
DOCKED: REMARK   10  A    between atoms: C_17  and  C_18
DOCKED: REMARK                            x       y       z     vdW  Elec       q    Type
DOCKED: REMARK                         _______ _______ _______ _____ _____    ______ ____
DOCKED: USER                              x       y       z     vdW  Elec       q    Type
DOCKED: USER                           _______ _______ _______ _____ _____    ______ ____
DOCKED: ROOT
DOCKED: ATOM      1  N   UNL     1      21.114  -8.070  -6.432 -0.12 -0.00    +0.000 N 
DOCKED: ATOM      2  H   UNL     1      21.209  -7.137  -6.831 +0.00 -0.00    +0.000 HD
DOCKED: ENDROOT
DOCKED: BRANCH   1   3
DOCKED: ATOM      3  C   UNL     1      22.137  -8.096  -5.353 -0.22 -0.00    +0.000 C 
DOCKED: BRANCH   3   7
DOCKED: ATOM      4  C   UNL     1      20.846 -10.172  -1.763 -0.53 -0.00    +0.000 A 
DOCKED: ATOM      5  C   UNL     1      20.954  -8.773  -1.781 -0.45 -0.00    +0.000 A 
DOCKED: ATOM      6  C   UNL     1      21.366  -8.105  -2.937 -0.39 -0.00    +0.000 A 
DOCKED: ATOM      7  C   UNL     1      21.708  -8.823  -4.093 -0.28 -0.00    +0.000 A 
DOCKED: ATOM      8  C   UNL     1      21.589 -10.223  -4.083 -0.41 -0.00    +0.000 A 
DOCKED: ATOM      9  C   UNL     1      21.176 -10.893  -2.927 -0.34 -0.00    +0.000 A 
DOCKED: BRANCH   4  11
DOCKED: ATOM     10  C   UNL     1      20.899 -10.525   0.704 -0.66 -0.00    +0.000 C 
DOCKED: ATOM     11  C   UNL     1      20.415 -10.835  -0.507 -0.60 -0.00    +0.000 C 
DOCKED: BRANCH  10  13
DOCKED: ATOM     12  O   UNL     1      19.898 -12.348   1.865 -1.80 -0.00    +0.000 OA
DOCKED: ATOM     13  C   UNL     1      20.451 -11.216   1.929 -0.74 -0.00    +0.000 C 
DOCKED: ATOM     14  N   UNL     1      20.642 -10.596   3.203 -0.65 -0.00    +0.000 N 
DOCKED: ATOM     15  O   UNL     1      20.236 -11.216   4.336 -1.02 -0.00    +0.000 OA
DOCKED: ATOM     16  H   UNL     1      21.073  -9.711   3.257 -0.60 -0.00    +0.000 HD
DOCKED: ENDBRANCH  10  13
DOCKED: ENDBRANCH   4  11
DOCKED: ENDBRANCH   3   7
DOCKED: ENDBRANCH   1   3
DOCKED: BRANCH   1  17
DOCKED: ATOM     17  C   UNL     1      19.710  -8.127  -5.964 -0.13 -0.00    +0.000 C 
DOCKED: BRANCH  17  18
DOCKED: ATOM     18  C   UNL     1      19.200  -6.746  -5.541 -0.12 -0.00    +0.000 C 
DOCKED: BRANCH  18  19
DOCKED: ATOM     19  O   UNL     1      20.246  -5.815  -5.596 -0.09 -0.00    +0.000 OA
DOCKED: ATOM     20  H   UNL     1      20.746  -5.842  -4.765 -0.00 -0.00    +0.000 HD
DOCKED: ENDBRANCH  18  19
DOCKED: ENDBRANCH  17  18
DOCKED: ENDBRANCH   1  17
DOCKED: BRANCH   1  21
DOCKED: ATOM     21  C   UNL     1      21.394  -9.020  -7.535 -0.16 -0.00    +0.000 C 
DOCKED: BRANCH  21  22
DOCKED: ATOM     22  C   UNL     1      21.942 -10.339  -6.981 -0.33 -0.00    +0.000 C 
DOCKED: BRANCH  22  23
DOCKED: ATOM     23  C   UNL     1      23.232 -10.709  -7.654 -0.33 -0.00    +0.000 A 
DOCKED: ATOM     24  C   UNL     1      24.505 -10.288  -7.281 -0.17 -0.00    +0.000 A 
DOCKED: ATOM     25  N   UNL     1      25.446 -10.918  -8.020 -0.39 -0.00    +0.000 N 
DOCKED: ATOM     26  C   UNL     1      24.780 -11.744  -8.845 -0.37 -0.00    +0.000 A 
DOCKED: ATOM     27  C   UNL     1      23.426 -11.648  -8.650 -0.34 -0.00    +0.000 A 
DOCKED: ATOM     28  C   UNL     1      22.523 -12.435  -9.367 -0.27 -0.00    +0.000 A 
DOCKED: ATOM     29  C   UNL     1      23.046 -13.339 -10.310 -0.34 -0.00    +0.000 A 
DOCKED: ATOM     30  C   UNL     1      24.440 -13.437 -10.511 -0.32 -0.00    +0.000 A 
DOCKED: ATOM     31  C   UNL     1      25.325 -12.633  -9.770 -0.23 -0.00    +0.000 A 
DOCKED: ATOM     32  H   UNL     1      26.422 -10.797  -7.965 -0.03 -0.00    +0.000 HD
DOCKED: ENDBRANCH  22  23
DOCKED: ENDBRANCH  21  22
DOCKED: ENDBRANCH   1  21
DOCKED: TORSDOF 10
DOCKED: TER
DOCKED: ENDMDL
________________________________________________________________________________


	BEGINNING GENETIC ALGORITHM DOCKING 54 of 100
Run: 54 Seed: 251825463 1441921513 [ Run 54 of 100 GA/GALS ]
Beginning LAMARCKIAN GENETIC ALGORITHM (LGA), with a maximum of 2500000 energy evaluations.

Final-Value: -15.078


	FINAL GENETIC ALGORITHM DOCKED STATE
	_______________________________________________


Detailed state:  trans 19.666 -9.782 -5.756 quatxyzw 0.527523 -0.666796 0.403703 -0.337826 center 0.288 0.007 -0.056 ntor 10 36.0333 -157.5142 -61.2947 -63.6854 -34.8584 -47.2777 -180.0000 -175.3673 -12.2548 26.3223
State:	 19.666  -9.782  -5.756   0.560 -0.708  0.429 -140.511     36.03 -157.51  -61.29  -63.69  -34.86  -47.28 -180.00 -175.37  -12.25   26.32

DOCKED: MODEL       54
DOCKED: USER    Run = 54
DOCKED: USER    DPF = ligand_dock.biased.dpf
DOCKED: USER  
DOCKED: USER    Estimated Free Energy of Binding    =  -10.42 kcal/mol  [=(1)+(2)+(3)-(4)]
DOCKED: USER    Estimated Inhibition Constant, Ki   =   23.16 nM (nanomolar)  [Temperature = 298.15 K]
DOCKED: USER    
DOCKED: USER    (1) Final Intermolecular Energy     =  -13.40 kcal/mol
DOCKED: USER        vdW + Hbond + desolv Energy     =  -13.40 kcal/mol
DOCKED: USER        Electrostatic Energy            =   +0.00 kcal/mol
DOCKED: USER    (2) Final Total Internal Energy     =   -1.68 kcal/mol
DOCKED: USER    (3) Torsional Free Energy           =   +2.98 kcal/mol
DOCKED: USER    (4) Unbound System's Energy  [=(2)] =   -1.68 kcal/mol
DOCKED: USER    
DOCKED: USER    
DOCKED: USER    NEWDPF move ligand.pdbqt
DOCKED: USER    NEWDPF about 0.288000 0.007000 -0.056000
DOCKED: USER    NEWDPF tran0 19.665632 -9.782058 -5.755507
DOCKED: USER    NEWDPF quaternion0 0.527523 -0.666796 0.403703 -0.337826
DOCKED: USER    NEWDPF axisangle0 0.560474 -0.708446 0.428920 -140.511076
DOCKED: USER    NEWDPF quat0 0.560474 -0.708446 0.428920 -140.511076
DOCKED: USER    NEWDPF dihe0 36.03 -157.51 -61.29 -63.69 -34.86 -47.28 -180.00 -175.37 -12.25 26.32 
DOCKED: USER  keepresnum = 1 
DOCKED: USER  
DOCKED: REMARK  Name = 
DOCKED: REMARK  10 active torsions:
DOCKED: REMARK  status: ('A' for Active; 'I' for Inactive)
DOCKED: REMARK    1  A    between atoms: C_2  and  C_5
DOCKED: REMARK    2  A    between atoms: C_6  and  C_7
DOCKED: REMARK    3  A    between atoms: C_10  and  C_11
DOCKED: REMARK    4  A    between atoms: C_11  and  N_12
DOCKED: REMARK    5  A    between atoms: N_12  and  C_13
DOCKED: REMARK    6  A    between atoms: N_12  and  C_16
DOCKED: REMARK    7  A    between atoms: C_13  and  C_14
DOCKED: REMARK    8  A    between atoms: C_14  and  O_15
DOCKED: REMARK    9  A    between atoms: C_16  and  C_17
DOCKED: REMARK   10  A    between atoms: C_17  and  C_18
DOCKED: REMARK                            x       y       z     vdW  Elec       q    Type
DOCKED: REMARK                         _______ _______ _______ _____ _____    ______ ____
DOCKED: USER                              x       y       z     vdW  Elec       q    Type
DOCKED: USER                           _______ _______ _______ _____ _____    ______ ____
DOCKED: ROOT
DOCKED: ATOM      1  N   UNL     1      20.243  -9.259  -6.840 -0.15 -0.00    +0.000 N 
DOCKED: ATOM      2  H   UNL     1      20.108  -8.578  -7.587 +0.00 -0.00    +0.000 HD
DOCKED: ENDROOT
DOCKED: BRANCH   1   3
DOCKED: ATOM      3  C   UNL     1      19.355  -8.769  -5.754 -0.16 -0.00    +0.000 C 
DOCKED: BRANCH   3   7
DOCKED: ATOM      4  C   UNL     1      20.302 -10.216  -1.770 -0.48 -0.00    +0.000 A 
DOCKED: ATOM      5  C   UNL     1      21.026  -9.156  -2.337 -0.47 -0.00    +0.000 A 
DOCKED: ATOM      6  C   UNL     1      20.720  -8.689  -3.618 -0.35 -0.00    +0.000 A 
DOCKED: ATOM      7  C   UNL     1      19.700  -9.289  -4.372 -0.25 -0.00    +0.000 A 
DOCKED: ATOM      8  C   UNL     1      18.964 -10.341  -3.802 -0.32 -0.00    +0.000 A 
DOCKED: ATOM      9  C   UNL     1      19.269 -10.810  -2.520 -0.38 -0.00    +0.000 A 
DOCKED: BRANCH   4  11
DOCKED: ATOM     10  C   UNL     1      19.814 -10.750   0.616 -0.63 -0.00    +0.000 C 
DOCKED: ATOM     11  C   UNL     1      20.674 -10.683  -0.410 -0.64 -0.00    +0.000 C 
DOCKED: BRANCH  10  13
DOCKED: ATOM     12  O   UNL     1      20.608 -12.399   2.139 -1.84 -0.00    +0.000 OA
DOCKED: ATOM     13  C   UNL     1      20.225 -11.211   1.957 -0.75 -0.00    +0.000 C 
DOCKED: ATOM     14  N   UNL     1      20.188 -10.304   3.060 -0.59 -0.00    +0.000 N 
DOCKED: ATOM     15  O   UNL     1      20.561 -10.711   4.296 -0.92 -0.00    +0.000 OA
DOCKED: ATOM     16  H   UNL     1      19.889  -9.376   2.921 -0.56 -0.00    +0.000 HD
DOCKED: ENDBRANCH  10  13
DOCKED: ENDBRANCH   4  11
DOCKED: ENDBRANCH   3   7
DOCKED: ENDBRANCH   1   3
DOCKED: BRANCH   1  17
DOCKED: ATOM     17  C   UNL     1      19.839 -10.549  -7.444 -0.29 -0.00    +0.000 C 
DOCKED: BRANCH  17  18
DOCKED: ATOM     18  C   UNL     1      18.454 -10.989  -6.962 -0.35 -0.00    +0.000 C 
DOCKED: BRANCH  18  19
DOCKED: ATOM     19  O   UNL     1      18.583 -11.993  -5.994 -0.36 -0.00    +0.000 OA
DOCKED: ATOM     20  H   UNL     1      19.432 -12.446  -6.110 -0.41 -0.00    +0.000 HD
DOCKED: ENDBRANCH  18  19
DOCKED: ENDBRANCH  17  18
DOCKED: ENDBRANCH   1  17
DOCKED: BRANCH   1  21
DOCKED: ATOM     21  C   UNL     1      21.683  -9.209  -6.494 -0.25 -0.00    +0.000 C 
DOCKED: BRANCH  21  22
DOCKED: ATOM     22  C   UNL     1      22.162 -10.576  -5.994 -0.41 -0.00    +0.000 C 
DOCKED: BRANCH  22  23
DOCKED: ATOM     23  C   UNL     1      23.241 -11.124  -6.883 -0.34 -0.00    +0.000 A 
DOCKED: ATOM     24  C   UNL     1      23.268 -12.389  -7.460 -0.41 -0.00    +0.000 A 
DOCKED: ATOM     25  N   UNL     1      24.316 -12.501  -8.307 -0.45 -0.00    +0.000 N 
DOCKED: ATOM     26  C   UNL     1      24.942 -11.311  -8.283 -0.38 -0.00    +0.000 A 
DOCKED: ATOM     27  C   UNL     1      24.313 -10.442  -7.428 -0.24 -0.00    +0.000 A 
DOCKED: ATOM     28  C   UNL     1      24.758  -9.130  -7.257 -0.24 -0.00    +0.000 A 
DOCKED: ATOM     29  C   UNL     1      25.883  -8.718  -7.993 -0.21 -0.00    +0.000 A 
DOCKED: ATOM     30  C   UNL     1      26.530  -9.612  -8.873 -0.22 -0.00    +0.000 A 
DOCKED: ATOM     31  C   UNL     1      26.057 -10.928  -9.027 -0.32 -0.00    +0.000 A 
DOCKED: ATOM     32  H   UNL     1      24.570 -13.291  -8.836 -0.04 -0.00    +0.000 HD
DOCKED: ENDBRANCH  22  23
DOCKED: ENDBRANCH  21  22
DOCKED: ENDBRANCH   1  21
DOCKED: TORSDOF 10
DOCKED: TER
DOCKED: ENDMDL
________________________________________________________________________________


	BEGINNING GENETIC ALGORITHM DOCKING 55 of 100
Run: 55 Seed: 1078476166 55498185 [ Run 55 of 100 GA/GALS ]
Beginning LAMARCKIAN GENETIC ALGORITHM (LGA), with a maximum of 2500000 energy evaluations.

Final-Value: -14.685


	FINAL GENETIC ALGORITHM DOCKED STATE
	_______________________________________________


Detailed state:  trans 21.613 -9.248 -6.507 quatxyzw -0.838645 0.077440 0.205672 0.498374 center 0.288 0.007 -0.056 ntor 10 28.3828 -179.9013 16.8981 -132.0868 -48.9360 14.9978 -7.5728 -180.0000 176.5812 -130.8783
State:	 21.613  -9.248  -6.507  -0.967  0.089  0.237 120.215     28.38 -179.90   16.90 -132.09  -48.94   15.00   -7.57 -180.00  176.58 -130.88

DOCKED: MODEL       55
DOCKED: USER    Run = 55
DOCKED: USER    DPF = ligand_dock.biased.dpf
DOCKED: USER  
DOCKED: USER    Estimated Free Energy of Binding    =   -9.52 kcal/mol  [=(1)+(2)+(3)-(4)]
DOCKED: USER    Estimated Inhibition Constant, Ki   =  105.80 nM (nanomolar)  [Temperature = 298.15 K]
DOCKED: USER    
DOCKED: USER    (1) Final Intermolecular Energy     =  -12.50 kcal/mol
DOCKED: USER        vdW + Hbond + desolv Energy     =  -12.50 kcal/mol
DOCKED: USER        Electrostatic Energy            =   +0.00 kcal/mol
DOCKED: USER    (2) Final Total Internal Energy     =   -2.19 kcal/mol
DOCKED: USER    (3) Torsional Free Energy           =   +2.98 kcal/mol
DOCKED: USER    (4) Unbound System's Energy  [=(2)] =   -2.19 kcal/mol
DOCKED: USER    
DOCKED: USER    
DOCKED: USER    NEWDPF move ligand.pdbqt
DOCKED: USER    NEWDPF about 0.288000 0.007000 -0.056000
DOCKED: USER    NEWDPF tran0 21.612881 -9.248185 -6.507485
DOCKED: USER    NEWDPF quaternion0 -0.838645 0.077440 0.205672 0.498374
DOCKED: USER    NEWDPF axisangle0 -0.967337 0.089324 0.237233 120.215026
DOCKED: USER    NEWDPF quat0 -0.967337 0.089324 0.237233 120.215026
DOCKED: USER    NEWDPF dihe0 28.38 -179.90 16.90 -132.09 -48.94 15.00 -7.57 -180.00 176.58 -130.88 
DOCKED: USER  keepresnum = 1 
DOCKED: USER  
DOCKED: REMARK  Name = 
DOCKED: REMARK  10 active torsions:
DOCKED: REMARK  status: ('A' for Active; 'I' for Inactive)
DOCKED: REMARK    1  A    between atoms: C_2  and  C_5
DOCKED: REMARK    2  A    between atoms: C_6  and  C_7
DOCKED: REMARK    3  A    between atoms: C_10  and  C_11
DOCKED: REMARK    4  A    between atoms: C_11  and  N_12
DOCKED: REMARK    5  A    between atoms: N_12  and  C_13
DOCKED: REMARK    6  A    between atoms: N_12  and  C_16
DOCKED: REMARK    7  A    between atoms: C_13  and  C_14
DOCKED: REMARK    8  A    between atoms: C_14  and  O_15
DOCKED: REMARK    9  A    between atoms: C_16  and  C_17
DOCKED: REMARK   10  A    between atoms: C_17  and  C_18
DOCKED: REMARK                            x       y       z     vdW  Elec       q    Type
DOCKED: REMARK                         _______ _______ _______ _____ _____    ______ ____
DOCKED: USER                              x       y       z     vdW  Elec       q    Type
DOCKED: USER                           _______ _______ _______ _____ _____    ______ ____
DOCKED: ROOT
DOCKED: ATOM      1  N   UNL     1      20.415  -8.664  -6.424 -0.12 -0.00    +0.000 N 
DOCKED: ATOM      2  H   UNL     1      19.726  -8.307  -5.762 +0.01 -0.00    +0.000 HD
DOCKED: ENDROOT
DOCKED: BRANCH   1   3
DOCKED: ATOM      3  C   UNL     1      21.692  -8.609  -5.666 -0.26 -0.00    +0.000 C 
DOCKED: BRANCH   3   7
DOCKED: ATOM      4  C   UNL     1      21.352  -9.991  -1.563 -0.55 -0.00    +0.000 A 
DOCKED: ATOM      5  C   UNL     1      21.170  -8.636  -1.878 -0.46 -0.00    +0.000 A 
DOCKED: ATOM      6  C   UNL     1      21.277  -8.192  -3.199 -0.37 -0.00    +0.000 A 
DOCKED: ATOM      7  C   UNL     1      21.596  -9.088  -4.231 -0.31 -0.00    +0.000 A 
DOCKED: ATOM      8  C   UNL     1      21.765 -10.448  -3.920 -0.40 -0.00    +0.000 A 
DOCKED: ATOM      9  C   UNL     1      21.658 -10.894  -2.599 -0.19 -0.00    +0.000 A 
DOCKED: BRANCH   4  11
DOCKED: ATOM     10  C   UNL     1      20.232 -11.156   0.336 -0.66 -0.00    +0.000 C 
DOCKED: ATOM     11  C   UNL     1      21.239 -10.411  -0.143 -0.71 -0.00    +0.000 C 
DOCKED: BRANCH  10  13
DOCKED: ATOM     12  O   UNL     1      19.891 -12.734   2.086 -1.61 -0.00    +0.000 OA
DOCKED: ATOM     13  C   UNL     1      20.151 -11.544   1.758 -0.77 -0.00    +0.000 C 
DOCKED: ATOM     14  N   UNL     1      20.366 -10.563   2.774 -0.65 -0.00    +0.000 N 
DOCKED: ATOM     15  O   UNL     1      20.294 -10.903   4.083 -1.09 -0.00    +0.000 OA
DOCKED: ATOM     16  H   UNL     1      20.568  -9.632   2.522 -0.54 -0.00    +0.000 HD
DOCKED: ENDBRANCH  10  13
DOCKED: ENDBRANCH   4  11
DOCKED: ENDBRANCH   3   7
DOCKED: ENDBRANCH   1   3
DOCKED: BRANCH   1  17
DOCKED: ATOM     17  C   UNL     1      19.938 -10.028  -6.749 -0.26 -0.00    +0.000 C 
DOCKED: BRANCH  17  18
DOCKED: ATOM     18  C   UNL     1      19.084 -10.610  -5.620 -0.35 -0.00    +0.000 C 
DOCKED: BRANCH  18  19
DOCKED: ATOM     19  O   UNL     1      19.608 -11.844  -5.214 -0.56 -0.00    +0.000 OA
DOCKED: ATOM     20  H   UNL     1      20.018 -12.287  -5.973 -0.47 -0.00    +0.000 HD
DOCKED: ENDBRANCH  18  19
DOCKED: ENDBRANCH  17  18
DOCKED: ENDBRANCH   1  17
DOCKED: BRANCH   1  21
DOCKED: ATOM     21  C   UNL     1      20.379  -7.748  -7.589 -0.07 -0.00    +0.000 C 
DOCKED: BRANCH  21  22
DOCKED: ATOM     22  C   UNL     1      20.852  -8.470  -8.855 -0.07 -0.00    +0.000 C 
DOCKED: BRANCH  22  23
DOCKED: ATOM     23  C   UNL     1      22.319  -8.782  -8.777 -0.08 -0.00    +0.000 A 
DOCKED: ATOM     24  C   UNL     1      23.357  -7.857  -8.765 -0.06 -0.00    +0.000 A 
DOCKED: ATOM     25  N   UNL     1      24.540  -8.476  -8.551 -0.12 -0.00    +0.000 N 
DOCKED: ATOM     26  C   UNL     1      24.256  -9.783  -8.412 -0.20 -0.00    +0.000 A 
DOCKED: ATOM     27  C   UNL     1      22.909 -10.009  -8.539 -0.18 -0.00    +0.000 A 
DOCKED: ATOM     28  C   UNL     1      22.363 -11.286  -8.400 -0.28 -0.00    +0.000 A 
DOCKED: ATOM     29  C   UNL     1      23.242 -12.349  -8.124 -0.40 -0.00    +0.000 A 
DOCKED: ATOM     30  C   UNL     1      24.629 -12.116  -7.993 -0.38 -0.00    +0.000 A 
DOCKED: ATOM     31  C   UNL     1      25.149 -10.817  -8.135 -0.35 -0.00    +0.000 A 
DOCKED: ATOM     32  H   UNL     1      25.430  -8.057  -8.507 +0.00 -0.00    +0.000 HD
DOCKED: ENDBRANCH  22  23
DOCKED: ENDBRANCH  21  22
DOCKED: ENDBRANCH   1  21
DOCKED: TORSDOF 10
DOCKED: TER
DOCKED: ENDMDL
________________________________________________________________________________


	BEGINNING GENETIC ALGORITHM DOCKING 56 of 100
Run: 56 Seed: 929061036 1144164507 [ Run 56 of 100 GA/GALS ]
Beginning LAMARCKIAN GENETIC ALGORITHM (LGA), with a maximum of 2500000 energy evaluations.

Final-Value: -14.886


	FINAL GENETIC ALGORITHM DOCKED STATE
	_______________________________________________


Detailed state:  trans 17.623 -11.557 1.475 quatxyzw 0.682606 0.231708 0.690961 -0.054166 center 0.288 0.007 -0.056 ntor 10 -89.1248 157.2687 -50.4685 178.3504 -177.6184 -38.2987 168.8412 -5.9787 -150.2844 48.4227
State:	 17.623 -11.557   1.475   0.684  0.232  0.692 -173.790    -89.12  157.27  -50.47  178.35 -177.62  -38.30  168.84   -5.98 -150.28   48.42

DOCKED: MODEL       56
DOCKED: USER    Run = 56
DOCKED: USER    DPF = ligand_dock.biased.dpf
DOCKED: USER  
DOCKED: USER    Estimated Free Energy of Binding    =   -8.88 kcal/mol  [=(1)+(2)+(3)-(4)]
DOCKED: USER    Estimated Inhibition Constant, Ki   =  311.89 nM (nanomolar)  [Temperature = 298.15 K]
DOCKED: USER    
DOCKED: USER    (1) Final Intermolecular Energy     =  -11.86 kcal/mol
DOCKED: USER        vdW + Hbond + desolv Energy     =  -11.86 kcal/mol
DOCKED: USER        Electrostatic Energy            =   +0.00 kcal/mol
DOCKED: USER    (2) Final Total Internal Energy     =   -3.03 kcal/mol
DOCKED: USER    (3) Torsional Free Energy           =   +2.98 kcal/mol
DOCKED: USER    (4) Unbound System's Energy  [=(2)] =   -3.03 kcal/mol
DOCKED: USER    
DOCKED: USER    
DOCKED: USER    NEWDPF move ligand.pdbqt
DOCKED: USER    NEWDPF about 0.288000 0.007000 -0.056000
DOCKED: USER    NEWDPF tran0 17.622982 -11.557001 1.474813
DOCKED: USER    NEWDPF quaternion0 0.682606 0.231708 0.690961 -0.054166
DOCKED: USER    NEWDPF axisangle0 0.683609 0.232049 0.691977 -173.789968
DOCKED: USER    NEWDPF quat0 0.683609 0.232049 0.691977 -173.789968
DOCKED: USER    NEWDPF dihe0 -89.12 157.27 -50.47 178.35 -177.62 -38.30 168.84 -5.98 -150.28 48.42 
DOCKED: USER  keepresnum = 1 
DOCKED: USER  
DOCKED: REMARK  Name = 
DOCKED: REMARK  10 active torsions:
DOCKED: REMARK  status: ('A' for Active; 'I' for Inactive)
DOCKED: REMARK    1  A    between atoms: C_2  and  C_5
DOCKED: REMARK    2  A    between atoms: C_6  and  C_7
DOCKED: REMARK    3  A    between atoms: C_10  and  C_11
DOCKED: REMARK    4  A    between atoms: C_11  and  N_12
DOCKED: REMARK    5  A    between atoms: N_12  and  C_13
DOCKED: REMARK    6  A    between atoms: N_12  and  C_16
DOCKED: REMARK    7  A    between atoms: C_13  and  C_14
DOCKED: REMARK    8  A    between atoms: C_14  and  O_15
DOCKED: REMARK    9  A    between atoms: C_16  and  C_17
DOCKED: REMARK   10  A    between atoms: C_17  and  C_18
DOCKED: REMARK                            x       y       z     vdW  Elec       q    Type
DOCKED: REMARK                         _______ _______ _______ _____ _____    ______ ____
DOCKED: USER                              x       y       z     vdW  Elec       q    Type
DOCKED: USER                           _______ _______ _______ _____ _____    ______ ____
DOCKED: ROOT
DOCKED: ATOM      1  N   UNL     1      17.631 -11.795   0.161 -0.44 -0.00    +0.000 N 
DOCKED: ATOM      2  H   UNL     1      17.508 -12.530  -0.535 -0.03 +0.00    +0.000 HD
DOCKED: ENDROOT
DOCKED: BRANCH   1   3
DOCKED: ATOM      3  C   UNL     1      16.876 -12.297   1.339 -0.39 +0.00    +0.000 C 
DOCKED: BRANCH   3   7
DOCKED: ATOM      4  C   UNL     1      14.476  -9.262   3.312 -0.30 +0.00    +0.000 A 
DOCKED: ATOM      5  C   UNL     1      15.863  -9.098   3.171 -0.36 +0.00    +0.000 A 
DOCKED: ATOM      6  C   UNL     1      16.634 -10.073   2.534 -0.39 +0.00    +0.000 A 
DOCKED: ATOM      7  C   UNL     1      16.041 -11.248   2.048 -0.40 +0.00    +0.000 A 
DOCKED: ATOM      8  C   UNL     1      14.651 -11.410   2.175 -0.42 +0.00    +0.000 A 
DOCKED: ATOM      9  C   UNL     1      13.877 -10.435   2.812 -0.32 +0.00    +0.000 A 
DOCKED: BRANCH   4  11
DOCKED: ATOM     10  C   UNL     1      14.254  -7.282   4.810 -0.40 +0.00    +0.000 C 
DOCKED: ATOM     11  C   UNL     1      13.702  -8.203   4.007 -0.30 +0.00    +0.000 C 
DOCKED: BRANCH  10  13
DOCKED: ATOM     12  O   UNL     1      13.989  -5.432   6.285 -1.08 +0.00    +0.000 OA
DOCKED: ATOM     13  C   UNL     1      13.448  -6.250   5.492 -0.40 +0.00    +0.000 C 
DOCKED: ATOM     14  N   UNL     1      12.041  -6.178   5.253 -0.26 +0.00    +0.000 N 
DOCKED: ATOM     15  O   UNL     1      11.288  -5.237   5.871 -0.35 +0.00    +0.000 OA
DOCKED: ATOM     16  H   UNL     1      11.616  -6.816   4.635 +0.00 +0.00    +0.000 HD
DOCKED: ENDBRANCH  10  13
DOCKED: ENDBRANCH   4  11
DOCKED: ENDBRANCH   3   7
DOCKED: ENDBRANCH   1   3
DOCKED: BRANCH   1  17
DOCKED: ATOM     17  C   UNL     1      19.098 -11.711   0.347 -0.59 -0.00    +0.000 C 
DOCKED: BRANCH  17  18
DOCKED: ATOM     18  C   UNL     1      19.572 -12.598   1.502 -0.48 -0.00    +0.000 C 
DOCKED: BRANCH  18  19
DOCKED: ATOM     19  O   UNL     1      20.684 -12.015   2.124 -1.90 -0.00    +0.000 OA
DOCKED: ATOM     20  H   UNL     1      21.256 -12.712   2.481 -0.56 -0.00    +0.000 HD
DOCKED: ENDBRANCH  18  19
DOCKED: ENDBRANCH  17  18
DOCKED: ENDBRANCH   1  17
DOCKED: BRANCH   1  21
DOCKED: ATOM     21  C   UNL     1      17.053 -10.566  -0.432 -0.31 -0.00    +0.000 C 
DOCKED: BRANCH  21  22
DOCKED: ATOM     22  C   UNL     1      16.096 -10.921  -1.575 -0.29 -0.00    +0.000 C 
DOCKED: BRANCH  22  23
DOCKED: ATOM     23  C   UNL     1      14.669 -10.688  -1.171 -0.27 +0.00    +0.000 A 
DOCKED: ATOM     24  C   UNL     1      13.661 -11.646  -1.121 -0.30 +0.00    +0.000 A 
DOCKED: ATOM     25  N   UNL     1      12.535 -11.121  -0.587 -0.31 +0.00    +0.000 N 
DOCKED: ATOM     26  C   UNL     1      12.829  -9.844  -0.284 -0.18 +0.00    +0.000 A 
DOCKED: ATOM     27  C   UNL     1      14.123  -9.543  -0.623 -0.20 -0.00    +0.000 A 
DOCKED: ATOM     28  C   UNL     1      14.672  -8.284  -0.374 -0.21 -0.00    +0.000 A 
DOCKED: ATOM     29  C   UNL     1      13.852  -7.319   0.239 -0.20 -0.00    +0.000 A 
DOCKED: ATOM     30  C   UNL     1      12.520  -7.629   0.586 -0.09 +0.00    +0.000 A 
DOCKED: ATOM     31  C   UNL     1      11.994  -8.908   0.327 -0.10 +0.00    +0.000 A 
DOCKED: ATOM     32  H   UNL     1      11.676 -11.579  -0.447 -0.04 +0.00    +0.000 HD
DOCKED: ENDBRANCH  22  23
DOCKED: ENDBRANCH  21  22
DOCKED: ENDBRANCH   1  21
DOCKED: TORSDOF 10
DOCKED: TER
DOCKED: ENDMDL
________________________________________________________________________________


	BEGINNING GENETIC ALGORITHM DOCKING 57 of 100
Run: 57 Seed: 1932381918 678965987 [ Run 57 of 100 GA/GALS ]
Beginning LAMARCKIAN GENETIC ALGORITHM (LGA), with a maximum of 2500000 energy evaluations.

Final-Value: -14.257


	FINAL GENETIC ALGORITHM DOCKED STATE
	_______________________________________________


Detailed state:  trans 18.942 -10.447 2.141 quatxyzw 0.600293 0.214898 0.356385 -0.682976 center 0.288 0.007 -0.056 ntor 10 177.4920 -133.8176 -74.7190 -125.1672 -51.1899 173.8606 -58.7751 -165.9641 -31.7817 179.9989
State:	 18.942 -10.447   2.141   0.822  0.294  0.488 -93.847    177.49 -133.82  -74.72 -125.17  -51.19  173.86  -58.78 -165.96  -31.78  180.00

DOCKED: MODEL       57
DOCKED: USER    Run = 57
DOCKED: USER    DPF = ligand_dock.biased.dpf
DOCKED: USER  
DOCKED: USER    Estimated Free Energy of Binding    =   -9.66 kcal/mol  [=(1)+(2)+(3)-(4)]
DOCKED: USER    Estimated Inhibition Constant, Ki   =   83.30 nM (nanomolar)  [Temperature = 298.15 K]
DOCKED: USER    
DOCKED: USER    (1) Final Intermolecular Energy     =  -12.64 kcal/mol
DOCKED: USER        vdW + Hbond + desolv Energy     =  -12.64 kcal/mol
DOCKED: USER        Electrostatic Energy            =   +0.00 kcal/mol
DOCKED: USER    (2) Final Total Internal Energy     =   -1.62 kcal/mol
DOCKED: USER    (3) Torsional Free Energy           =   +2.98 kcal/mol
DOCKED: USER    (4) Unbound System's Energy  [=(2)] =   -1.62 kcal/mol
DOCKED: USER    
DOCKED: USER    
DOCKED: USER    NEWDPF move ligand.pdbqt
DOCKED: USER    NEWDPF about 0.288000 0.007000 -0.056000
DOCKED: USER    NEWDPF tran0 18.941779 -10.447168 2.140649
DOCKED: USER    NEWDPF quaternion0 0.600293 0.214898 0.356385 -0.682976
DOCKED: USER    NEWDPF axisangle0 0.821823 0.294203 0.487905 -93.846710
DOCKED: USER    NEWDPF quat0 0.821823 0.294203 0.487905 -93.846710
DOCKED: USER    NEWDPF dihe0 177.49 -133.82 -74.72 -125.17 -51.19 173.86 -58.78 -165.96 -31.78 180.00 
DOCKED: USER  keepresnum = 1 
DOCKED: USER  
DOCKED: REMARK  Name = 
DOCKED: REMARK  10 active torsions:
DOCKED: REMARK  status: ('A' for Active; 'I' for Inactive)
DOCKED: REMARK    1  A    between atoms: C_2  and  C_5
DOCKED: REMARK    2  A    between atoms: C_6  and  C_7
DOCKED: REMARK    3  A    between atoms: C_10  and  C_11
DOCKED: REMARK    4  A    between atoms: C_11  and  N_12
DOCKED: REMARK    5  A    between atoms: N_12  and  C_13
DOCKED: REMARK    6  A    between atoms: N_12  and  C_16
DOCKED: REMARK    7  A    between atoms: C_13  and  C_14
DOCKED: REMARK    8  A    between atoms: C_14  and  O_15
DOCKED: REMARK    9  A    between atoms: C_16  and  C_17
DOCKED: REMARK   10  A    between atoms: C_17  and  C_18
DOCKED: REMARK                            x       y       z     vdW  Elec       q    Type
DOCKED: REMARK                         _______ _______ _______ _____ _____    ______ ____
DOCKED: USER                              x       y       z     vdW  Elec       q    Type
DOCKED: USER                           _______ _______ _______ _____ _____    ______ ____
DOCKED: ROOT
DOCKED: ATOM      1  N   UNL     1      18.163 -11.424   1.669 -0.46 -0.00    +0.000 N 
DOCKED: ATOM      2  H   UNL     1      17.285 -11.917   1.834 -0.01 +0.00    +0.000 HD
DOCKED: ENDROOT
DOCKED: BRANCH   1   3
DOCKED: ATOM      3  C   UNL     1      17.955 -10.110   2.334 -0.50 -0.00    +0.000 C 
DOCKED: BRANCH   3   7
DOCKED: ATOM      4  C   UNL     1      13.967  -9.432   3.913 -0.32 +0.00    +0.000 A 
DOCKED: ATOM      5  C   UNL     1      14.747 -10.502   4.376 -0.33 +0.00    +0.000 A 
DOCKED: ATOM      6  C   UNL     1      16.032 -10.719   3.870 -0.45 +0.00    +0.000 A 
DOCKED: ATOM      7  C   UNL     1      16.554  -9.887   2.868 -0.40 +0.00    +0.000 A 
DOCKED: ATOM      8  C   UNL     1      15.780  -8.807   2.412 -0.27 +0.00    +0.000 A 
DOCKED: ATOM      9  C   UNL     1      14.495  -8.588   2.917 -0.26 +0.00    +0.000 A 
DOCKED: BRANCH   4  11
DOCKED: ATOM     10  C   UNL     1      12.271  -8.264   5.317 -0.35 +0.00    +0.000 C 
DOCKED: ATOM     11  C   UNL     1      12.605  -9.252   4.474 -0.15 +0.00    +0.000 C 
DOCKED: BRANCH  10  13
DOCKED: ATOM     12  O   UNL     1      10.277  -7.036   5.751 -0.30 +0.00    +0.000 OA
DOCKED: ATOM     13  C   UNL     1      10.906  -8.124   5.862 -0.25 +0.00    +0.000 C 
DOCKED: ATOM     14  N   UNL     1      10.290  -9.231   6.524 -0.42 +0.00    +0.000 N 
DOCKED: ATOM     15  O   UNL     1       9.039  -9.119   7.030 -0.57 +0.00    +0.000 OA
DOCKED: ATOM     16  H   UNL     1      10.779 -10.082   6.613 -0.05 +0.00    +0.000 HD
DOCKED: ENDBRANCH  10  13
DOCKED: ENDBRANCH   4  11
DOCKED: ENDBRANCH   3   7
DOCKED: ENDBRANCH   1   3
DOCKED: BRANCH   1  17
DOCKED: ATOM     17  C   UNL     1      19.190 -12.287   2.296 -0.39 -0.00    +0.000 C 
DOCKED: BRANCH  17  18
DOCKED: ATOM     18  C   UNL     1      19.896 -11.575   3.453 -0.69 -0.00    +0.000 C 
DOCKED: BRANCH  18  19
DOCKED: ATOM     19  O   UNL     1      20.860 -10.691   2.951 -1.05 -0.00    +0.000 OA
DOCKED: ATOM     20  H   UNL     1      20.627  -9.783   3.201 -0.58 -0.00    +0.000 HD
DOCKED: ENDBRANCH  18  19
DOCKED: ENDBRANCH  17  18
DOCKED: ENDBRANCH   1  17
DOCKED: BRANCH   1  21
DOCKED: ATOM     21  C   UNL     1      18.310 -11.326   0.198 -0.50 -0.00    +0.000 C 
DOCKED: BRANCH  21  22
DOCKED: ATOM     22  C   UNL     1      19.770 -11.549  -0.211 -0.40 -0.00    +0.000 C 
DOCKED: BRANCH  22  23
DOCKED: ATOM     23  C   UNL     1      20.317 -10.346  -0.924 -0.53 -0.00    +0.000 A 
DOCKED: ATOM     24  C   UNL     1      20.998  -9.283  -0.340 -0.51 -0.00    +0.000 A 
DOCKED: ATOM     25  N   UNL     1      21.465  -8.441  -1.290 -0.52 -0.00    +0.000 N 
DOCKED: ATOM     26  C   UNL     1      21.099  -8.973  -2.470 -0.45 -0.00    +0.000 A 
DOCKED: ATOM     27  C   UNL     1      20.400 -10.139  -2.288 -0.47 -0.00    +0.000 A 
DOCKED: ATOM     28  C   UNL     1      19.941 -10.895  -3.368 -0.42 -0.00    +0.000 A 
DOCKED: ATOM     29  C   UNL     1      20.217 -10.424  -4.664 -0.37 -0.00    +0.000 A 
DOCKED: ATOM     30  C   UNL     1      20.937  -9.223  -4.851 -0.29 -0.00    +0.000 A 
DOCKED: ATOM     31  C   UNL     1      21.390  -8.484  -3.743 -0.34 -0.00    +0.000 A 
DOCKED: ATOM     32  H   UNL     1      21.971  -7.609  -1.148 -0.04 +0.00    +0.000 HD
DOCKED: ENDBRANCH  22  23
DOCKED: ENDBRANCH  21  22
DOCKED: ENDBRANCH   1  21
DOCKED: TORSDOF 10
DOCKED: TER
DOCKED: ENDMDL
________________________________________________________________________________


	BEGINNING GENETIC ALGORITHM DOCKING 58 of 100
Run: 58 Seed: 1000975107 1557707895 [ Run 58 of 100 GA/GALS ]
Beginning LAMARCKIAN GENETIC ALGORITHM (LGA), with a maximum of 2500000 energy evaluations.

Final-Value: -15.234


	FINAL GENETIC ALGORITHM DOCKED STATE
	_______________________________________________


Detailed state:  trans 20.829 -10.819 0.696 quatxyzw 0.196085 -0.085114 -0.371937 -0.903310 center 0.288 0.007 -0.056 ntor 10 -139.7053 179.3556 -108.3413 27.9630 -167.1603 -179.9805 180.0000 -154.8082 172.8106 116.9129
State:	 20.829 -10.819   0.696   0.457 -0.198 -0.867 -50.807   -139.71  179.36 -108.34   27.96 -167.16 -179.98  180.00 -154.81  172.81  116.91

DOCKED: MODEL       58
DOCKED: USER    Run = 58
DOCKED: USER    DPF = ligand_dock.biased.dpf
DOCKED: USER  
DOCKED: USER    Estimated Free Energy of Binding    =  -10.64 kcal/mol  [=(1)+(2)+(3)-(4)]
DOCKED: USER    Estimated Inhibition Constant, Ki   =   15.80 nM (nanomolar)  [Temperature = 298.15 K]
DOCKED: USER    
DOCKED: USER    (1) Final Intermolecular Energy     =  -13.63 kcal/mol
DOCKED: USER        vdW + Hbond + desolv Energy     =  -13.63 kcal/mol
DOCKED: USER        Electrostatic Energy            =   +0.00 kcal/mol
DOCKED: USER    (2) Final Total Internal Energy     =   -1.61 kcal/mol
DOCKED: USER    (3) Torsional Free Energy           =   +2.98 kcal/mol
DOCKED: USER    (4) Unbound System's Energy  [=(2)] =   -1.61 kcal/mol
DOCKED: USER    
DOCKED: USER    
DOCKED: USER    NEWDPF move ligand.pdbqt
DOCKED: USER    NEWDPF about 0.288000 0.007000 -0.056000
DOCKED: USER    NEWDPF tran0 20.829214 -10.818568 0.696102
DOCKED: USER    NEWDPF quaternion0 0.196085 -0.085114 -0.371937 -0.903310
DOCKED: USER    NEWDPF axisangle0 0.457088 -0.198407 -0.867009 -50.806715
DOCKED: USER    NEWDPF quat0 0.457088 -0.198407 -0.867009 -50.806715
DOCKED: USER    NEWDPF dihe0 -139.71 179.36 -108.34 27.96 -167.16 -179.98 180.00 -154.81 172.81 116.91 
DOCKED: USER  keepresnum = 1 
DOCKED: USER  
DOCKED: REMARK  Name = 
DOCKED: REMARK  10 active torsions:
DOCKED: REMARK  status: ('A' for Active; 'I' for Inactive)
DOCKED: REMARK    1  A    between atoms: C_2  and  C_5
DOCKED: REMARK    2  A    between atoms: C_6  and  C_7
DOCKED: REMARK    3  A    between atoms: C_10  and  C_11
DOCKED: REMARK    4  A    between atoms: C_11  and  N_12
DOCKED: REMARK    5  A    between atoms: N_12  and  C_13
DOCKED: REMARK    6  A    between atoms: N_12  and  C_16
DOCKED: REMARK    7  A    between atoms: C_13  and  C_14
DOCKED: REMARK    8  A    between atoms: C_14  and  O_15
DOCKED: REMARK    9  A    between atoms: C_16  and  C_17
DOCKED: REMARK   10  A    between atoms: C_17  and  C_18
DOCKED: REMARK                            x       y       z     vdW  Elec       q    Type
DOCKED: REMARK                         _______ _______ _______ _____ _____    ______ ____
DOCKED: USER                              x       y       z     vdW  Elec       q    Type
DOCKED: USER                           _______ _______ _______ _____ _____    ______ ____
DOCKED: ROOT
DOCKED: ATOM      1  N   UNL     1      19.713 -10.099   0.559 -0.47 -0.00    +0.000 N 
DOCKED: ATOM      2  H   UNL     1      19.365  -9.147   0.449 +0.17 -0.00    +0.000 HD
DOCKED: ENDROOT
DOCKED: BRANCH   1   3
DOCKED: ATOM      3  C   UNL     1      21.108 -10.024   0.052 -0.69 -0.00    +0.000 C 
DOCKED: BRANCH   3   7
DOCKED: ATOM      4  C   UNL     1      21.378  -9.399  -4.238 -0.36 -0.00    +0.000 A 
DOCKED: ATOM      5  C   UNL     1      21.436 -10.693  -3.698 -0.44 -0.00    +0.000 A 
DOCKED: ATOM      6  C   UNL     1      21.346 -10.894  -2.319 -0.29 -0.00    +0.000 A 
DOCKED: ATOM      7  C   UNL     1      21.225  -9.803  -1.444 -0.56 -0.00    +0.000 A 
DOCKED: ATOM      8  C   UNL     1      21.153  -8.508  -1.982 -0.45 -0.00    +0.000 A 
DOCKED: ATOM      9  C   UNL     1      21.242  -8.304  -3.362 -0.36 -0.00    +0.000 A 
DOCKED: BRANCH   4  11
DOCKED: ATOM     10  C   UNL     1      21.794 -10.237  -6.548 -0.35 -0.00    +0.000 C 
DOCKED: ATOM     11  C   UNL     1      21.489  -9.237  -5.709 -0.29 -0.00    +0.000 C 
DOCKED: BRANCH  10  13
DOCKED: ATOM     12  O   UNL     1      22.213  -8.904  -8.476 -0.10 -0.00    +0.000 OA
DOCKED: ATOM     13  C   UNL     1      21.905 -10.033  -8.006 -0.24 -0.00    +0.000 C 
DOCKED: ATOM     14  N   UNL     1      21.660 -11.125  -8.895 -0.26 -0.00    +0.000 N 
DOCKED: ATOM     15  O   UNL     1      21.757 -10.954 -10.235 -0.21 -0.00    +0.000 OA
DOCKED: ATOM     16  H   UNL     1      21.419 -12.008  -8.531 -0.49 -0.00    +0.000 HD
DOCKED: ENDBRANCH  10  13
DOCKED: ENDBRANCH   4  11
DOCKED: ENDBRANCH   3   7
DOCKED: ENDBRANCH   1   3
DOCKED: BRANCH   1  17
DOCKED: ATOM     17  C   UNL     1      19.589 -10.368   2.011 -0.58 -0.00    +0.000 C 
DOCKED: BRANCH  17  18
DOCKED: ATOM     18  C   UNL     1      20.649 -11.361   2.493 -0.64 -0.00    +0.000 C 
DOCKED: BRANCH  18  19
DOCKED: ATOM     19  O   UNL     1      20.032 -12.433   3.152 -1.55 -0.00    +0.000 OA
DOCKED: ATOM     20  H   UNL     1      20.638 -13.189   3.176 -0.61 -0.00    +0.000 HD
DOCKED: ENDBRANCH  18  19
DOCKED: ENDBRANCH  17  18
DOCKED: ENDBRANCH   1  17
DOCKED: BRANCH   1  21
DOCKED: ATOM     21  C   UNL     1      18.829 -10.957  -0.264 -0.49 -0.00    +0.000 C 
DOCKED: BRANCH  21  22
DOCKED: ATOM     22  C   UNL     1      18.317 -12.145   0.557 -0.56 -0.00    +0.000 C 
DOCKED: BRANCH  22  23
DOCKED: ATOM     23  C   UNL     1      16.819 -12.121   0.659 -0.44 +0.00    +0.000 A 
DOCKED: ATOM     24  C   UNL     1      15.929 -12.855  -0.118 -0.50 +0.00    +0.000 A 
DOCKED: ATOM     25  N   UNL     1      14.664 -12.694   0.331 -0.49 +0.00    +0.000 N 
DOCKED: ATOM     26  C   UNL     1      14.749 -11.877   1.396 -0.43 +0.00    +0.000 A 
DOCKED: ATOM     27  C   UNL     1      16.049 -11.508   1.630 -0.39 +0.00    +0.000 A 
DOCKED: ATOM     28  C   UNL     1      16.397 -10.687   2.705 -0.42 +0.00    +0.000 A 
DOCKED: ATOM     29  C   UNL     1      15.365 -10.241   3.550 -0.42 +0.00    +0.000 A 
DOCKED: ATOM     30  C   UNL     1      14.027 -10.621   3.308 -0.31 +0.00    +0.000 A 
DOCKED: ATOM     31  C   UNL     1      13.707 -11.452   2.220 -0.37 +0.00    +0.000 A 
DOCKED: ATOM     32  H   UNL     1      13.846 -13.093  -0.044 -0.04 +0.00    +0.000 HD
DOCKED: ENDBRANCH  22  23
DOCKED: ENDBRANCH  21  22
DOCKED: ENDBRANCH   1  21
DOCKED: TORSDOF 10
DOCKED: TER
DOCKED: ENDMDL
________________________________________________________________________________


	BEGINNING GENETIC ALGORITHM DOCKING 59 of 100
Run: 59 Seed: 715051076 879016007 [ Run 59 of 100 GA/GALS ]
Beginning LAMARCKIAN GENETIC ALGORITHM (LGA), with a maximum of 2500000 energy evaluations.

Final-Value: -15.508


	FINAL GENETIC ALGORITHM DOCKED STATE
	_______________________________________________


Detailed state:  trans 17.025 -10.223 3.425 quatxyzw -0.521979 -0.496133 -0.678642 0.144348 center 0.288 0.007 -0.056 ntor 10 -107.2747 -102.5031 71.0237 180.0000 -123.2278 -59.0732 172.7425 14.4249 -127.6671 24.3571
State:	 17.025 -10.223   3.425  -0.528 -0.501 -0.686 163.401   -107.27 -102.50   71.02  180.00 -123.23  -59.07  172.74   14.42 -127.67   24.36

DOCKED: MODEL       59
DOCKED: USER    Run = 59
DOCKED: USER    DPF = ligand_dock.biased.dpf
DOCKED: USER  
DOCKED: USER    Estimated Free Energy of Binding    =   -8.91 kcal/mol  [=(1)+(2)+(3)-(4)]
DOCKED: USER    Estimated Inhibition Constant, Ki   =  296.04 nM (nanomolar)  [Temperature = 298.15 K]
DOCKED: USER    
DOCKED: USER    (1) Final Intermolecular Energy     =  -11.89 kcal/mol
DOCKED: USER        vdW + Hbond + desolv Energy     =  -11.89 kcal/mol
DOCKED: USER        Electrostatic Energy            =   +0.00 kcal/mol
DOCKED: USER    (2) Final Total Internal Energy     =   -3.62 kcal/mol
DOCKED: USER    (3) Torsional Free Energy           =   +2.98 kcal/mol
DOCKED: USER    (4) Unbound System's Energy  [=(2)] =   -3.62 kcal/mol
DOCKED: USER    
DOCKED: USER    
DOCKED: USER    NEWDPF move ligand.pdbqt
DOCKED: USER    NEWDPF about 0.288000 0.007000 -0.056000
DOCKED: USER    NEWDPF tran0 17.025363 -10.223272 3.425356
DOCKED: USER    NEWDPF quaternion0 -0.521979 -0.496133 -0.678642 0.144348
DOCKED: USER    NEWDPF axisangle0 -0.527503 -0.501384 -0.685824 163.400931
DOCKED: USER    NEWDPF quat0 -0.527503 -0.501384 -0.685824 163.400931
DOCKED: USER    NEWDPF dihe0 -107.27 -102.50 71.02 180.00 -123.23 -59.07 172.74 14.42 -127.67 24.36 
DOCKED: USER  keepresnum = 1 
DOCKED: USER  
DOCKED: REMARK  Name = 
DOCKED: REMARK  10 active torsions:
DOCKED: REMARK  status: ('A' for Active; 'I' for Inactive)
DOCKED: REMARK    1  A    between atoms: C_2  and  C_5
DOCKED: REMARK    2  A    between atoms: C_6  and  C_7
DOCKED: REMARK    3  A    between atoms: C_10  and  C_11
DOCKED: REMARK    4  A    between atoms: C_11  and  N_12
DOCKED: REMARK    5  A    between atoms: N_12  and  C_13
DOCKED: REMARK    6  A    between atoms: N_12  and  C_16
DOCKED: REMARK    7  A    between atoms: C_13  and  C_14
DOCKED: REMARK    8  A    between atoms: C_14  and  O_15
DOCKED: REMARK    9  A    between atoms: C_16  and  C_17
DOCKED: REMARK   10  A    between atoms: C_17  and  C_18
DOCKED: REMARK                            x       y       z     vdW  Elec       q    Type
DOCKED: REMARK                         _______ _______ _______ _____ _____    ______ ____
DOCKED: USER                              x       y       z     vdW  Elec       q    Type
DOCKED: USER                           _______ _______ _______ _____ _____    ______ ____
DOCKED: ROOT
DOCKED: ATOM      1  N   UNL     1      17.465 -11.009   2.439 -0.45 +0.00    +0.000 N 
DOCKED: ATOM      2  H   UNL     1      17.725 -11.970   2.217 -0.01 +0.00    +0.000 HD
DOCKED: ENDROOT
DOCKED: BRANCH   1   3
DOCKED: ATOM      3  C   UNL     1      16.547 -11.153   3.599 -0.38 +0.00    +0.000 C 
DOCKED: BRANCH   3   7
DOCKED: ATOM      4  C   UNL     1      14.025  -7.689   4.305 -0.29 +0.00    +0.000 A 
DOCKED: ATOM      5  C   UNL     1      15.341  -7.533   3.847 -0.32 +0.00    +0.000 A 
DOCKED: ATOM      6  C   UNL     1      16.152  -8.648   3.616 -0.26 +0.00    +0.000 A 
DOCKED: ATOM      7  C   UNL     1      15.673  -9.943   3.867 -0.39 +0.00    +0.000 A 
DOCKED: ATOM      8  C   UNL     1      14.351 -10.103   4.314 -0.36 +0.00    +0.000 A 
DOCKED: ATOM      9  C   UNL     1      13.538  -8.989   4.544 -0.34 +0.00    +0.000 A 
DOCKED: BRANCH   4  11
DOCKED: ATOM     10  C   UNL     1      13.277  -5.367   3.789 -0.21 +0.00    +0.000 C 
DOCKED: ATOM     11  C   UNL     1      13.208  -6.472   4.545 -0.27 +0.00    +0.000 C 
DOCKED: BRANCH  10  13
DOCKED: ATOM     12  O   UNL     1      12.559  -3.139   3.352 -0.66 -0.00    +0.000 OA
DOCKED: ATOM     13  C   UNL     1      12.454  -4.173   4.067 -0.27 +0.00    +0.000 C 
DOCKED: ATOM     14  N   UNL     1      11.531  -4.187   5.157 -0.35 +0.00    +0.000 N 
DOCKED: ATOM     15  O   UNL     1      10.769  -3.100   5.425 -0.73 +0.00    +0.000 OA
DOCKED: ATOM     16  H   UNL     1      11.447  -4.992   5.718 -0.02 +0.00    +0.000 HD
DOCKED: ENDBRANCH  10  13
DOCKED: ENDBRANCH   4  11
DOCKED: ENDBRANCH   3   7
DOCKED: ENDBRANCH   1   3
DOCKED: BRANCH   1  17
DOCKED: ATOM     17  C   UNL     1      18.754 -10.343   2.741 -0.59 -0.00    +0.000 C 
DOCKED: BRANCH  17  18
DOCKED: ATOM     18  C   UNL     1      19.915 -10.989   1.980 -0.72 -0.00    +0.000 C 
DOCKED: BRANCH  18  19
DOCKED: ATOM     19  O   UNL     1      19.856 -12.382   2.115 -1.79 -0.00    +0.000 OA
DOCKED: ATOM     20  H   UNL     1      20.688 -12.772   1.806 -0.59 -0.00    +0.000 HD
DOCKED: ENDBRANCH  18  19
DOCKED: ENDBRANCH  17  18
DOCKED: ENDBRANCH   1  17
DOCKED: BRANCH   1  21
DOCKED: ATOM     21  C   UNL     1      16.807 -10.469   1.226 -0.37 +0.00    +0.000 C 
DOCKED: BRANCH  21  22
DOCKED: ATOM     22  C   UNL     1      15.904 -11.531   0.589 -0.42 +0.00    +0.000 C 
DOCKED: BRANCH  22  23
DOCKED: ATOM     23  C   UNL     1      14.457 -11.154   0.721 -0.32 +0.00    +0.000 A 
DOCKED: ATOM     24  C   UNL     1      13.404 -12.018   1.002 -0.39 +0.00    +0.000 A 
DOCKED: ATOM     25  N   UNL     1      12.257 -11.324   1.183 -0.38 +0.00    +0.000 N 
DOCKED: ATOM     26  C   UNL     1      12.581 -10.028   1.035 -0.19 +0.00    +0.000 A 
DOCKED: ATOM     27  C   UNL     1      13.916  -9.882   0.756 -0.20 +0.00    +0.000 A 
DOCKED: ATOM     28  C   UNL     1      14.498  -8.624   0.593 -0.23 +0.00    +0.000 A 
DOCKED: ATOM     29  C   UNL     1      13.669  -7.495   0.722 -0.18 +0.00    +0.000 A 
DOCKED: ATOM     30  C   UNL     1      12.295  -7.645   1.009 -0.08 +0.00    +0.000 A 
DOCKED: ATOM     31  C   UNL     1      11.736  -8.926   1.171 -0.10 +0.00    +0.000 A 
DOCKED: ATOM     32  H   UNL     1      11.366 -11.692   1.382 -0.04 +0.00    +0.000 HD
DOCKED: ENDBRANCH  22  23
DOCKED: ENDBRANCH  21  22
DOCKED: ENDBRANCH   1  21
DOCKED: TORSDOF 10
DOCKED: TER
DOCKED: ENDMDL
________________________________________________________________________________


	BEGINNING GENETIC ALGORITHM DOCKING 60 of 100
Run: 60 Seed: 1918793520 735168375 [ Run 60 of 100 GA/GALS ]
Beginning LAMARCKIAN GENETIC ALGORITHM (LGA), with a maximum of 2500000 energy evaluations.

Final-Value: -14.597


	FINAL GENETIC ALGORITHM DOCKED STATE
	_______________________________________________


Detailed state:  trans 21.181 -8.496 -6.202 quatxyzw -0.733489 -0.637422 -0.025275 -0.234623 center 0.288 0.007 -0.056 ntor 10 167.0555 -72.4618 39.3156 174.1884 171.4293 -11.1905 -177.5847 -130.6467 -12.1950 98.5596
State:	 21.181  -8.496  -6.202  -0.755 -0.656 -0.026 -152.861    167.06  -72.46   39.32  174.19  171.43  -11.19 -177.58 -130.65  -12.19   98.56

DOCKED: MODEL       60
DOCKED: USER    Run = 60
DOCKED: USER    DPF = ligand_dock.biased.dpf
DOCKED: USER  
DOCKED: USER    Estimated Free Energy of Binding    =   -9.32 kcal/mol  [=(1)+(2)+(3)-(4)]
DOCKED: USER    Estimated Inhibition Constant, Ki   =  146.61 nM (nanomolar)  [Temperature = 298.15 K]
DOCKED: USER    
DOCKED: USER    (1) Final Intermolecular Energy     =  -12.31 kcal/mol
DOCKED: USER        vdW + Hbond + desolv Energy     =  -12.31 kcal/mol
DOCKED: USER        Electrostatic Energy            =   +0.00 kcal/mol
DOCKED: USER    (2) Final Total Internal Energy     =   -2.29 kcal/mol
DOCKED: USER    (3) Torsional Free Energy           =   +2.98 kcal/mol
DOCKED: USER    (4) Unbound System's Energy  [=(2)] =   -2.29 kcal/mol
DOCKED: USER    
DOCKED: USER    
DOCKED: USER    NEWDPF move ligand.pdbqt
DOCKED: USER    NEWDPF about 0.288000 0.007000 -0.056000
DOCKED: USER    NEWDPF tran0 21.181273 -8.496450 -6.201767
DOCKED: USER    NEWDPF quaternion0 -0.733489 -0.637422 -0.025275 -0.234623
DOCKED: USER    NEWDPF axisangle0 -0.754552 -0.655725 -0.026000 -152.861198
DOCKED: USER    NEWDPF quat0 -0.754552 -0.655725 -0.026000 -152.861198
DOCKED: USER    NEWDPF dihe0 167.06 -72.46 39.32 174.19 171.43 -11.19 -177.58 -130.65 -12.19 98.56 
DOCKED: USER  keepresnum = 1 
DOCKED: USER  
DOCKED: REMARK  Name = 
DOCKED: REMARK  10 active torsions:
DOCKED: REMARK  status: ('A' for Active; 'I' for Inactive)
DOCKED: REMARK    1  A    between atoms: C_2  and  C_5
DOCKED: REMARK    2  A    between atoms: C_6  and  C_7
DOCKED: REMARK    3  A    between atoms: C_10  and  C_11
DOCKED: REMARK    4  A    between atoms: C_11  and  N_12
DOCKED: REMARK    5  A    between atoms: N_12  and  C_13
DOCKED: REMARK    6  A    between atoms: N_12  and  C_16
DOCKED: REMARK    7  A    between atoms: C_13  and  C_14
DOCKED: REMARK    8  A    between atoms: C_14  and  O_15
DOCKED: REMARK    9  A    between atoms: C_16  and  C_17
DOCKED: REMARK   10  A    between atoms: C_17  and  C_18
DOCKED: REMARK                            x       y       z     vdW  Elec       q    Type
DOCKED: REMARK                         _______ _______ _______ _____ _____    ______ ____
DOCKED: USER                              x       y       z     vdW  Elec       q    Type
DOCKED: USER                           _______ _______ _______ _____ _____    ______ ____
DOCKED: ROOT
DOCKED: ATOM      1  N   UNL     1      20.650  -9.673  -6.545 -0.20 -0.00    +0.000 N 
DOCKED: ATOM      2  H   UNL     1      20.880 -10.651  -6.719 -0.03 -0.00    +0.000 HD
DOCKED: ENDROOT
DOCKED: BRANCH   1   3
DOCKED: ATOM      3  C   UNL     1      21.748  -9.208  -5.657 -0.30 -0.00    +0.000 C 
DOCKED: BRANCH   3   7
DOCKED: ATOM      4  C   UNL     1      21.114  -9.845  -1.408 -0.57 -0.00    +0.000 A 
DOCKED: ATOM      5  C   UNL     1      21.551 -10.894  -2.232 -0.22 -0.00    +0.000 A 
DOCKED: ATOM      6  C   UNL     1      21.758 -10.688  -3.598 -0.38 -0.00    +0.000 A 
DOCKED: ATOM      7  C   UNL     1      21.505  -9.435  -4.178 -0.35 -0.00    +0.000 A 
DOCKED: ATOM      8  C   UNL     1      21.080  -8.380  -3.354 -0.37 -0.00    +0.000 A 
DOCKED: ATOM      9  C   UNL     1      20.874  -8.583  -1.986 -0.39 -0.00    +0.000 A 
DOCKED: BRANCH   4  11
DOCKED: ATOM     10  C   UNL     1      20.541 -11.314   0.522 -0.65 -0.00    +0.000 C 
DOCKED: ATOM     11  C   UNL     1      20.899 -10.117   0.035 -0.69 -0.00    +0.000 C 
DOCKED: BRANCH  10  13
DOCKED: ATOM     12  O   UNL     1      19.861 -12.639   2.381 -1.59 -0.00    +0.000 OA
DOCKED: ATOM     13  C   UNL     1      20.326 -11.542   1.965 -0.78 -0.00    +0.000 C 
DOCKED: ATOM     14  N   UNL     1      20.645 -10.510   2.901 -0.61 -0.00    +0.000 N 
DOCKED: ATOM     15  O   UNL     1      20.454 -10.704   4.228 -0.93 -0.00    +0.000 OA
DOCKED: ATOM     16  H   UNL     1      21.007  -9.653   2.580 -0.57 -0.00    +0.000 HD
DOCKED: ENDBRANCH  10  13
DOCKED: ENDBRANCH   4  11
DOCKED: ENDBRANCH   3   7
DOCKED: ENDBRANCH   1   3
DOCKED: BRANCH   1  17
DOCKED: ATOM     17  C   UNL     1      20.630  -9.056  -7.891 -0.14 -0.00    +0.000 C 
DOCKED: BRANCH  17  18
DOCKED: ATOM     18  C   UNL     1      21.020 -10.061  -8.978 -0.20 -0.00    +0.000 C 
DOCKED: BRANCH  18  19
DOCKED: ATOM     19  O   UNL     1      21.669 -11.159  -8.400 -0.32 -0.00    +0.000 OA
DOCKED: ATOM     20  H   UNL     1      21.076 -11.927  -8.409 -0.45 -0.00    +0.000 HD
DOCKED: ENDBRANCH  18  19
DOCKED: ENDBRANCH  17  18
DOCKED: ENDBRANCH   1  17
DOCKED: BRANCH   1  21
DOCKED: ATOM     21  C   UNL     1      19.321  -9.674  -5.890 -0.23 -0.00    +0.000 C 
DOCKED: BRANCH  21  22
DOCKED: ATOM     22  C   UNL     1      18.238  -9.220  -6.874 -0.14 -0.00    +0.000 C 
DOCKED: BRANCH  22  23
DOCKED: ATOM     23  C   UNL     1      17.186 -10.278  -7.040 -0.21 -0.00    +0.000 A 
DOCKED: ATOM     24  C   UNL     1      17.167 -11.274  -8.011 -0.26 -0.00    +0.000 A 
DOCKED: ATOM     25  N   UNL     1      16.150 -12.136  -7.785 -0.37 -0.00    +0.000 N 
DOCKED: ATOM     26  C   UNL     1      15.536 -11.701  -6.670 -0.29 -0.00    +0.000 A 
DOCKED: ATOM     27  C   UNL     1      16.142 -10.572  -6.183 -0.21 -0.00    +0.000 A 
DOCKED: ATOM     28  C   UNL     1      15.704  -9.952  -5.011 -0.17 -0.00    +0.000 A 
DOCKED: ATOM     29  C   UNL     1      14.610 -10.523  -4.336 -0.23 -0.00    +0.000 A 
DOCKED: ATOM     30  C   UNL     1      13.987 -11.686  -4.838 -0.17 -0.00    +0.000 A 
DOCKED: ATOM     31  C   UNL     1      14.452 -12.290  -6.020 -0.26 -0.00    +0.000 A 
DOCKED: ATOM     32  H   UNL     1      15.907 -12.921  -8.326 -0.04 +0.00    +0.000 HD
DOCKED: ENDBRANCH  22  23
DOCKED: ENDBRANCH  21  22
DOCKED: ENDBRANCH   1  21
DOCKED: TORSDOF 10
DOCKED: TER
DOCKED: ENDMDL
________________________________________________________________________________


	BEGINNING GENETIC ALGORITHM DOCKING 61 of 100
Run: 61 Seed: 801409712 412860075 [ Run 61 of 100 GA/GALS ]
Beginning LAMARCKIAN GENETIC ALGORITHM (LGA), with a maximum of 2500000 energy evaluations.

Final-Value: -14.476


	FINAL GENETIC ALGORITHM DOCKED STATE
	_______________________________________________


Detailed state:  trans 18.204 -10.609 1.927 quatxyzw -0.821461 -0.350296 -0.250040 0.374132 center 0.288 0.007 -0.056 ntor 10 110.8484 43.1131 -92.9444 -50.9831 -161.5689 119.8322 179.4741 -29.9764 -175.8366 118.0191
State:	 18.204 -10.609   1.927  -0.886 -0.378 -0.270 136.059    110.85   43.11  -92.94  -50.98 -161.57  119.83  179.47  -29.98 -175.84  118.02

DOCKED: MODEL       61
DOCKED: USER    Run = 61
DOCKED: USER    DPF = ligand_dock.biased.dpf
DOCKED: USER  
DOCKED: USER    Estimated Free Energy of Binding    =   -8.80 kcal/mol  [=(1)+(2)+(3)-(4)]
DOCKED: USER    Estimated Inhibition Constant, Ki   =  357.31 nM (nanomolar)  [Temperature = 298.15 K]
DOCKED: USER    
DOCKED: USER    (1) Final Intermolecular Energy     =  -11.78 kcal/mol
DOCKED: USER        vdW + Hbond + desolv Energy     =  -11.78 kcal/mol
DOCKED: USER        Electrostatic Energy            =   +0.00 kcal/mol
DOCKED: USER    (2) Final Total Internal Energy     =   -2.70 kcal/mol
DOCKED: USER    (3) Torsional Free Energy           =   +2.98 kcal/mol
DOCKED: USER    (4) Unbound System's Energy  [=(2)] =   -2.70 kcal/mol
DOCKED: USER    
DOCKED: USER    
DOCKED: USER    NEWDPF move ligand.pdbqt
DOCKED: USER    NEWDPF about 0.288000 0.007000 -0.056000
DOCKED: USER    NEWDPF tran0 18.204006 -10.608970 1.926816
DOCKED: USER    NEWDPF quaternion0 -0.821461 -0.350296 -0.250040 0.374132
DOCKED: USER    NEWDPF axisangle0 -0.885791 -0.377728 -0.269622 136.058670
DOCKED: USER    NEWDPF quat0 -0.885791 -0.377728 -0.269622 136.058670
DOCKED: USER    NEWDPF dihe0 110.85 43.11 -92.94 -50.98 -161.57 119.83 179.47 -29.98 -175.84 118.02 
DOCKED: USER  keepresnum = 1 
DOCKED: USER  
DOCKED: REMARK  Name = 
DOCKED: REMARK  10 active torsions:
DOCKED: REMARK  status: ('A' for Active; 'I' for Inactive)
DOCKED: REMARK    1  A    between atoms: C_2  and  C_5
DOCKED: REMARK    2  A    between atoms: C_6  and  C_7
DOCKED: REMARK    3  A    between atoms: C_10  and  C_11
DOCKED: REMARK    4  A    between atoms: C_11  and  N_12
DOCKED: REMARK    5  A    between atoms: N_12  and  C_13
DOCKED: REMARK    6  A    between atoms: N_12  and  C_16
DOCKED: REMARK    7  A    between atoms: C_13  and  C_14
DOCKED: REMARK    8  A    between atoms: C_14  and  O_15
DOCKED: REMARK    9  A    between atoms: C_16  and  C_17
DOCKED: REMARK   10  A    between atoms: C_17  and  C_18
DOCKED: REMARK                            x       y       z     vdW  Elec       q    Type
DOCKED: REMARK                         _______ _______ _______ _____ _____    ______ ____
DOCKED: USER                              x       y       z     vdW  Elec       q    Type
DOCKED: USER                           _______ _______ _______ _____ _____    ______ ____
DOCKED: ROOT
DOCKED: ATOM      1  N   UNL     1      17.268 -11.456   1.492 -0.41 +0.00    +0.000 N 
DOCKED: ATOM      2  H   UNL     1      16.641 -12.202   1.793 -0.02 +0.00    +0.000 HD
DOCKED: ENDROOT
DOCKED: BRANCH   1   3
DOCKED: ATOM      3  C   UNL     1      17.531 -10.694   2.741 -0.52 +0.00    +0.000 C 
DOCKED: BRANCH   3   7
DOCKED: ATOM      4  C   UNL     1      14.057  -8.578   4.264 -0.32 +0.00    +0.000 A 
DOCKED: ATOM      5  C   UNL     1      14.857  -8.011   3.260 -0.30 +0.00    +0.000 A 
DOCKED: ATOM      6  C   UNL     1      15.973  -8.693   2.768 -0.22 +0.00    +0.000 A 
DOCKED: ATOM      7  C   UNL     1      16.331  -9.946   3.289 -0.40 +0.00    +0.000 A 
DOCKED: ATOM      8  C   UNL     1      15.525 -10.522   4.285 -0.44 +0.00    +0.000 A 
DOCKED: ATOM      9  C   UNL     1      14.408  -9.841   4.778 -0.37 +0.00    +0.000 A 
DOCKED: BRANCH   4  11
DOCKED: ATOM     10  C   UNL     1      12.574  -6.576   4.337 -0.21 +0.00    +0.000 C 
DOCKED: ATOM     11  C   UNL     1      12.889  -7.808   4.761 -0.30 +0.00    +0.000 C 
DOCKED: BRANCH  10  13
DOCKED: ATOM     12  O   UNL     1      10.263  -6.367   4.874 -0.19 +0.00    +0.000 OA
DOCKED: ATOM     13  C   UNL     1      11.408  -5.838   4.864 -0.23 +0.00    +0.000 C 
DOCKED: ATOM     14  N   UNL     1      11.578  -4.511   5.365 -0.30 +0.00    +0.000 N 
DOCKED: ATOM     15  O   UNL     1      10.519  -3.821   5.852 -0.88 +0.00    +0.000 OA
DOCKED: ATOM     16  H   UNL     1      12.470  -4.095   5.359 -0.06 +0.00    +0.000 HD
DOCKED: ENDBRANCH  10  13
DOCKED: ENDBRANCH   4  11
DOCKED: ENDBRANCH   3   7
DOCKED: ENDBRANCH   1   3
DOCKED: BRANCH   1  17
DOCKED: ATOM     17  C   UNL     1      18.441 -12.168   0.934 -0.58 -0.00    +0.000 C 
DOCKED: BRANCH  17  18
DOCKED: ATOM     18  C   UNL     1      19.757 -11.550   1.416 -0.72 -0.00    +0.000 C 
DOCKED: BRANCH  18  19
DOCKED: ATOM     19  O   UNL     1      20.260 -12.286   2.497 -1.97 -0.00    +0.000 OA
DOCKED: ATOM     20  H   UNL     1      20.279 -13.228   2.266 -0.60 -0.00    +0.000 HD
DOCKED: ENDBRANCH  18  19
DOCKED: ENDBRANCH  17  18
DOCKED: ENDBRANCH   1  17
DOCKED: BRANCH   1  21
DOCKED: ATOM     21  C   UNL     1      16.524 -10.680   0.472 -0.36 +0.00    +0.000 C 
DOCKED: BRANCH  21  22
DOCKED: ATOM     22  C   UNL     1      15.174 -11.340   0.175 -0.38 +0.00    +0.000 C 
DOCKED: BRANCH  22  23
DOCKED: ATOM     23  C   UNL     1      14.039 -10.419   0.522 -0.23 +0.00    +0.000 A 
DOCKED: ATOM     24  C   UNL     1      14.008  -9.043   0.327 -0.19 +0.00    +0.000 A 
DOCKED: ATOM     25  N   UNL     1      12.785  -8.550   0.626 -0.11 +0.00    +0.000 N 
DOCKED: ATOM     26  C   UNL     1      12.039  -9.606   0.994 -0.15 +0.00    +0.000 A 
DOCKED: ATOM     27  C   UNL     1      12.768 -10.767   0.939 -0.29 +0.00    +0.000 A 
DOCKED: ATOM     28  C   UNL     1      12.200 -12.005   1.244 -0.34 +0.00    +0.000 A 
DOCKED: ATOM     29  C   UNL     1      10.844 -12.032   1.614 -0.31 +0.00    +0.000 A 
DOCKED: ATOM     30  C   UNL     1      10.093 -10.837   1.670 -0.24 +0.00    +0.000 A 
DOCKED: ATOM     31  C   UNL     1      10.692  -9.604   1.354 -0.14 +0.00    +0.000 A 
DOCKED: ATOM     32  H   UNL     1      12.498  -7.609   0.584 +0.00 +0.00    +0.000 HD
DOCKED: ENDBRANCH  22  23
DOCKED: ENDBRANCH  21  22
DOCKED: ENDBRANCH   1  21
DOCKED: TORSDOF 10
DOCKED: TER
DOCKED: ENDMDL
________________________________________________________________________________


	BEGINNING GENETIC ALGORITHM DOCKING 62 of 100
Run: 62 Seed: 854647186 1928784720 [ Run 62 of 100 GA/GALS ]
Beginning LAMARCKIAN GENETIC ALGORITHM (LGA), with a maximum of 2500000 energy evaluations.

Final-Value: -14.906


	FINAL GENETIC ALGORITHM DOCKED STATE
	_______________________________________________


Detailed state:  trans 21.642 -9.239 -5.805 quatxyzw -0.557623 0.154826 -0.752521 0.314320 center 0.288 0.007 -0.056 ntor 10 140.1549 151.0665 60.5977 -170.9709 -165.8424 112.9200 162.2876 -136.4171 168.7103 -29.5214
State:	 21.642  -9.239  -5.805  -0.587  0.163 -0.793 143.360    140.15  151.07   60.60 -170.97 -165.84  112.92  162.29 -136.42  168.71  -29.52

DOCKED: MODEL       62
DOCKED: USER    Run = 62
DOCKED: USER    DPF = ligand_dock.biased.dpf
DOCKED: USER  
DOCKED: USER    Estimated Free Energy of Binding    =  -10.18 kcal/mol  [=(1)+(2)+(3)-(4)]
DOCKED: USER    Estimated Inhibition Constant, Ki   =   34.60 nM (nanomolar)  [Temperature = 298.15 K]
DOCKED: USER    
DOCKED: USER    (1) Final Intermolecular Energy     =  -13.16 kcal/mol
DOCKED: USER        vdW + Hbond + desolv Energy     =  -13.16 kcal/mol
DOCKED: USER        Electrostatic Energy            =   +0.00 kcal/mol
DOCKED: USER    (2) Final Total Internal Energy     =   -1.75 kcal/mol
DOCKED: USER    (3) Torsional Free Energy           =   +2.98 kcal/mol
DOCKED: USER    (4) Unbound System's Energy  [=(2)] =   -1.75 kcal/mol
DOCKED: USER    
DOCKED: USER    
DOCKED: USER    NEWDPF move ligand.pdbqt
DOCKED: USER    NEWDPF about 0.288000 0.007000 -0.056000
DOCKED: USER    NEWDPF tran0 21.641703 -9.239187 -5.804637
DOCKED: USER    NEWDPF quaternion0 -0.557623 0.154826 -0.752521 0.314320
DOCKED: USER    NEWDPF axisangle0 -0.587394 0.163092 -0.792697 143.360405
DOCKED: USER    NEWDPF quat0 -0.587394 0.163092 -0.792697 143.360405
DOCKED: USER    NEWDPF dihe0 140.15 151.07 60.60 -170.97 -165.84 112.92 162.29 -136.42 168.71 -29.52 
DOCKED: USER  keepresnum = 1 
DOCKED: USER  
DOCKED: REMARK  Name = 
DOCKED: REMARK  10 active torsions:
DOCKED: REMARK  status: ('A' for Active; 'I' for Inactive)
DOCKED: REMARK    1  A    between atoms: C_2  and  C_5
DOCKED: REMARK    2  A    between atoms: C_6  and  C_7
DOCKED: REMARK    3  A    between atoms: C_10  and  C_11
DOCKED: REMARK    4  A    between atoms: C_11  and  N_12
DOCKED: REMARK    5  A    between atoms: N_12  and  C_13
DOCKED: REMARK    6  A    between atoms: N_12  and  C_16
DOCKED: REMARK    7  A    between atoms: C_13  and  C_14
DOCKED: REMARK    8  A    between atoms: C_14  and  O_15
DOCKED: REMARK    9  A    between atoms: C_16  and  C_17
DOCKED: REMARK   10  A    between atoms: C_17  and  C_18
DOCKED: REMARK                            x       y       z     vdW  Elec       q    Type
DOCKED: REMARK                         _______ _______ _______ _____ _____    ______ ____
DOCKED: USER                              x       y       z     vdW  Elec       q    Type
DOCKED: USER                           _______ _______ _______ _____ _____    ______ ____
DOCKED: ROOT
DOCKED: ATOM      1  N   UNL     1      22.074  -9.400  -7.058 -0.21 -0.00    +0.000 N 
DOCKED: ATOM      2  H   UNL     1      21.813  -9.779  -7.968 +0.00 -0.00    +0.000 HD
DOCKED: ENDROOT
DOCKED: BRANCH   1   3
DOCKED: ATOM      3  C   UNL     1      20.768  -9.143  -6.397 -0.20 -0.00    +0.000 C 
DOCKED: BRANCH   3   7
DOCKED: ATOM      4  C   UNL     1      20.793  -9.888  -2.118 -0.50 -0.00    +0.000 A 
DOCKED: ATOM      5  C   UNL     1      20.287 -10.847  -3.008 -0.41 -0.00    +0.000 A 
DOCKED: ATOM      6  C   UNL     1      20.281 -10.608  -4.385 -0.41 -0.00    +0.000 A 
DOCKED: ATOM      7  C   UNL     1      20.756  -9.393  -4.901 -0.28 -0.00    +0.000 A 
DOCKED: ATOM      8  C   UNL     1      21.276  -8.436  -4.014 -0.32 -0.00    +0.000 A 
DOCKED: ATOM      9  C   UNL     1      21.283  -8.673  -2.636 -0.43 -0.00    +0.000 A 
DOCKED: BRANCH   4  11
DOCKED: ATOM     10  C   UNL     1      20.172 -11.262  -0.134 -0.54 -0.00    +0.000 C 
DOCKED: ATOM     11  C   UNL     1      20.767 -10.184  -0.664 -0.66 -0.00    +0.000 C 
DOCKED: BRANCH  10  13
DOCKED: ATOM     12  O   UNL     1      19.721 -12.607   1.779 -1.63 -0.00    +0.000 OA
DOCKED: ATOM     13  C   UNL     1      20.159 -11.517   1.320 -0.74 -0.00    +0.000 C 
DOCKED: ATOM     14  N   UNL     1      20.644 -10.517   2.219 -0.59 -0.00    +0.000 N 
DOCKED: ATOM     15  O   UNL     1      20.638 -10.735   3.556 -1.18 -0.00    +0.000 OA
DOCKED: ATOM     16  H   UNL     1      20.986  -9.664   1.865 -0.54 -0.00    +0.000 HD
DOCKED: ENDBRANCH  10  13
DOCKED: ENDBRANCH   4  11
DOCKED: ENDBRANCH   3   7
DOCKED: ENDBRANCH   1   3
DOCKED: BRANCH   1  17
DOCKED: ATOM     17  C   UNL     1      22.890 -10.469  -6.437 -0.24 -0.00    +0.000 C 
DOCKED: BRANCH  17  18
DOCKED: ATOM     18  C   UNL     1      23.401 -11.466  -7.480 -0.48 -0.00    +0.000 C 
DOCKED: BRANCH  18  19
DOCKED: ATOM     19  O   UNL     1      23.632 -12.710  -6.878 -1.09 -0.00    +0.000 OA
DOCKED: ATOM     20  H   UNL     1      22.790 -13.182  -6.779 -0.42 -0.00    +0.000 HD
DOCKED: ENDBRANCH  18  19
DOCKED: ENDBRANCH  17  18
DOCKED: ENDBRANCH   1  17
DOCKED: BRANCH   1  21
DOCKED: ATOM     21  C   UNL     1      22.850  -8.168  -7.333 -0.17 -0.00    +0.000 C 
DOCKED: BRANCH  21  22
DOCKED: ATOM     22  C   UNL     1      24.322  -8.365  -6.953 -0.16 -0.00    +0.000 C 
DOCKED: BRANCH  22  23
DOCKED: ATOM     23  C   UNL     1      25.159  -8.632  -8.171 -0.17 -0.00    +0.000 A 
DOCKED: ATOM     24  C   UNL     1      24.931  -8.138  -9.450 -0.05 -0.00    +0.000 A 
DOCKED: ATOM     25  N   UNL     1      25.952  -8.466 -10.274 -0.05 -0.00    +0.000 N 
DOCKED: ATOM     26  C   UNL     1      26.831  -9.150  -9.520 -0.12 -0.00    +0.000 A 
DOCKED: ATOM     27  C   UNL     1      26.384  -9.269  -8.229 -0.25 -0.00    +0.000 A 
DOCKED: ATOM     28  C   UNL     1      27.140  -9.912  -7.247 -0.35 -0.00    +0.000 A 
DOCKED: ATOM     29  C   UNL     1      28.388 -10.442  -7.622 -0.43 -0.00    +0.000 A 
DOCKED: ATOM     30  C   UNL     1      28.848 -10.319  -8.951 -0.35 -0.00    +0.000 A 
DOCKED: ATOM     31  C   UNL     1      28.065  -9.663  -9.919 -0.18 -0.00    +0.000 A 
DOCKED: ATOM     32  H   UNL     1      26.037  -8.249 -11.230 +0.00 -0.00    +0.000 HD
DOCKED: ENDBRANCH  22  23
DOCKED: ENDBRANCH  21  22
DOCKED: ENDBRANCH   1  21
DOCKED: TORSDOF 10
DOCKED: TER
DOCKED: ENDMDL
________________________________________________________________________________


	BEGINNING GENETIC ALGORITHM DOCKING 63 of 100
Run: 63 Seed: 1455186160 1765372439 [ Run 63 of 100 GA/GALS ]
Beginning LAMARCKIAN GENETIC ALGORITHM (LGA), with a maximum of 2500000 energy evaluations.

Final-Value: -15.663


	FINAL GENETIC ALGORITHM DOCKED STATE
	_______________________________________________


Detailed state:  trans 21.689 -8.625 -6.665 quatxyzw 0.717101 0.574293 0.222707 -0.326121 center 0.288 0.007 -0.056 ntor 10 169.5881 -119.4851 64.0556 30.4590 17.5217 69.7219 161.4342 -31.9060 -131.3908 179.9881
State:	 21.689  -8.625  -6.665   0.759  0.608  0.236 -141.933    169.59 -119.49   64.06   30.46   17.52   69.72  161.43  -31.91 -131.39  179.99

DOCKED: MODEL       63
DOCKED: USER    Run = 63
DOCKED: USER    DPF = ligand_dock.biased.dpf
DOCKED: USER  
DOCKED: USER    Estimated Free Energy of Binding    =  -10.56 kcal/mol  [=(1)+(2)+(3)-(4)]
DOCKED: USER    Estimated Inhibition Constant, Ki   =   18.31 nM (nanomolar)  [Temperature = 298.15 K]
DOCKED: USER    
DOCKED: USER    (1) Final Intermolecular Energy     =  -13.54 kcal/mol
DOCKED: USER        vdW + Hbond + desolv Energy     =  -13.54 kcal/mol
DOCKED: USER        Electrostatic Energy            =   +0.00 kcal/mol
DOCKED: USER    (2) Final Total Internal Energy     =   -2.12 kcal/mol
DOCKED: USER    (3) Torsional Free Energy           =   +2.98 kcal/mol
DOCKED: USER    (4) Unbound System's Energy  [=(2)] =   -2.12 kcal/mol
DOCKED: USER    
DOCKED: USER    
DOCKED: USER    NEWDPF move ligand.pdbqt
DOCKED: USER    NEWDPF about 0.288000 0.007000 -0.056000
DOCKED: USER    NEWDPF tran0 21.689081 -8.625122 -6.665012
DOCKED: USER    NEWDPF quaternion0 0.717101 0.574293 0.222707 -0.326121
DOCKED: USER    NEWDPF axisangle0 0.758574 0.607507 0.235587 -141.932960
DOCKED: USER    NEWDPF quat0 0.758574 0.607507 0.235587 -141.932960
DOCKED: USER    NEWDPF dihe0 169.59 -119.49 64.06 30.46 17.52 69.72 161.43 -31.91 -131.39 179.99 
DOCKED: USER  keepresnum = 1 
DOCKED: USER  
DOCKED: REMARK  Name = 
DOCKED: REMARK  10 active torsions:
DOCKED: REMARK  status: ('A' for Active; 'I' for Inactive)
DOCKED: REMARK    1  A    between atoms: C_2  and  C_5
DOCKED: REMARK    2  A    between atoms: C_6  and  C_7
DOCKED: REMARK    3  A    between atoms: C_10  and  C_11
DOCKED: REMARK    4  A    between atoms: C_11  and  N_12
DOCKED: REMARK    5  A    between atoms: N_12  and  C_13
DOCKED: REMARK    6  A    between atoms: N_12  and  C_16
DOCKED: REMARK    7  A    between atoms: C_13  and  C_14
DOCKED: REMARK    8  A    between atoms: C_14  and  O_15
DOCKED: REMARK    9  A    between atoms: C_16  and  C_17
DOCKED: REMARK   10  A    between atoms: C_17  and  C_18
DOCKED: REMARK                            x       y       z     vdW  Elec       q    Type
DOCKED: REMARK                         _______ _______ _______ _____ _____    ______ ____
DOCKED: USER                              x       y       z     vdW  Elec       q    Type
DOCKED: USER                           _______ _______ _______ _____ _____    ______ ____
DOCKED: ROOT
DOCKED: ATOM      1  N   UNL     1      21.169  -9.846  -6.815 -0.22 -0.00    +0.000 N 
DOCKED: ATOM      2  H   UNL     1      20.994 -10.723  -6.324 -0.03 -0.00    +0.000 HD
DOCKED: ENDROOT
DOCKED: BRANCH   1   3
DOCKED: ATOM      3  C   UNL     1      21.262  -8.845  -5.720 -0.25 -0.00    +0.000 C 
DOCKED: BRANCH   3   7
DOCKED: ATOM      4  C   UNL     1      20.371 -10.441  -1.781 -0.48 -0.00    +0.000 A 
DOCKED: ATOM      5  C   UNL     1      19.628 -10.845  -2.901 -0.40 -0.00    +0.000 A 
DOCKED: ATOM      6  C   UNL     1      19.917 -10.333  -4.169 -0.36 -0.00    +0.000 A 
DOCKED: ATOM      7  C   UNL     1      20.937  -9.384  -4.341 -0.34 -0.00    +0.000 A 
DOCKED: ATOM      8  C   UNL     1      21.690  -8.988  -3.224 -0.30 -0.00    +0.000 A 
DOCKED: ATOM      9  C   UNL     1      21.403  -9.499  -1.954 -0.49 -0.00    +0.000 A 
DOCKED: BRANCH   4  11
DOCKED: ATOM     10  C   UNL     1      20.694 -10.740   0.673 -0.70 -0.00    +0.000 C 
DOCKED: ATOM     11  C   UNL     1      20.017 -11.005  -0.454 -0.55 -0.00    +0.000 C 
DOCKED: BRANCH  10  13
DOCKED: ATOM     12  O   UNL     1      19.754 -12.457   2.029 -1.70 -0.00    +0.000 OA
DOCKED: ATOM     13  C   UNL     1      20.317 -11.330   1.973 -0.76 -0.00    +0.000 C 
DOCKED: ATOM     14  N   UNL     1      20.590 -10.616   3.181 -0.65 -0.00    +0.000 N 
DOCKED: ATOM     15  O   UNL     1      20.250 -11.143   4.381 -0.97 -0.00    +0.000 OA
DOCKED: ATOM     16  H   UNL     1      21.029  -9.735   3.140 -0.61 -0.00    +0.000 HD
DOCKED: ENDBRANCH  10  13
DOCKED: ENDBRANCH   4  11
DOCKED: ENDBRANCH   3   7
DOCKED: ENDBRANCH   1   3
DOCKED: BRANCH   1  17
DOCKED: ATOM     17  C   UNL     1      22.431 -10.085  -7.552 -0.28 -0.00    +0.000 C 
DOCKED: BRANCH  17  18
DOCKED: ATOM     18  C   UNL     1      22.689 -11.580  -7.759 -0.39 -0.00    +0.000 C 
DOCKED: BRANCH  18  19
DOCKED: ATOM     19  O   UNL     1      22.884 -12.206  -6.521 -0.71 -0.00    +0.000 OA
DOCKED: ATOM     20  H   UNL     1      22.121 -12.769  -6.320 -0.60 -0.00    +0.000 HD
DOCKED: ENDBRANCH  18  19
DOCKED: ENDBRANCH  17  18
DOCKED: ENDBRANCH   1  17
DOCKED: BRANCH   1  21
DOCKED: ATOM     21  C   UNL     1      20.008  -9.637  -7.711 -0.19 -0.00    +0.000 C 
DOCKED: BRANCH  21  22
DOCKED: ATOM     22  C   UNL     1      19.085 -10.860  -7.688 -0.27 -0.00    +0.000 C 
DOCKED: BRANCH  22  23
DOCKED: ATOM     23  C   UNL     1      17.901 -10.623  -6.797 -0.28 -0.00    +0.000 A 
DOCKED: ATOM     24  C   UNL     1      17.744  -9.572  -5.899 -0.16 -0.00    +0.000 A 
DOCKED: ATOM     25  N   UNL     1      16.504  -9.590  -5.361 -0.15 -0.00    +0.000 N 
DOCKED: ATOM     26  C   UNL     1      15.870 -10.634  -5.924 -0.21 -0.00    +0.000 A 
DOCKED: ATOM     27  C   UNL     1      16.689 -11.288  -6.809 -0.31 -0.00    +0.000 A 
DOCKED: ATOM     28  C   UNL     1      16.245 -12.388  -7.545 -0.29 -0.00    +0.000 A 
DOCKED: ATOM     29  C   UNL     1      14.919 -12.815  -7.351 -0.36 -0.00    +0.000 A 
DOCKED: ATOM     30  C   UNL     1      14.076 -12.142  -6.439 -0.29 -0.00    +0.000 A 
DOCKED: ATOM     31  C   UNL     1      14.551 -11.034  -5.714 -0.23 -0.00    +0.000 A 
DOCKED: ATOM     32  H   UNL     1      16.137  -8.966  -4.694 +0.00 -0.00    +0.000 HD
DOCKED: ENDBRANCH  22  23
DOCKED: ENDBRANCH  21  22
DOCKED: ENDBRANCH   1  21
DOCKED: TORSDOF 10
DOCKED: TER
DOCKED: ENDMDL
________________________________________________________________________________


	BEGINNING GENETIC ALGORITHM DOCKING 64 of 100
Run: 64 Seed: 1257499064 453729917 [ Run 64 of 100 GA/GALS ]
Beginning LAMARCKIAN GENETIC ALGORITHM (LGA), with a maximum of 2500000 energy evaluations.

Final-Value: -14.202


	FINAL GENETIC ALGORITHM DOCKED STATE
	_______________________________________________


Detailed state:  trans 22.651 -9.016 -7.995 quatxyzw 0.388833 -0.862046 -0.101537 0.308829 center 0.288 0.007 -0.056 ntor 10 110.1829 -49.3902 52.3347 -105.0844 -92.6395 -127.7899 -168.0967 -167.0087 175.1329 140.3769
State:	 22.651  -9.016  -7.995   0.409 -0.906 -0.107 144.023    110.18  -49.39   52.33 -105.08  -92.64 -127.79 -168.10 -167.01  175.13  140.38

DOCKED: MODEL       64
DOCKED: USER    Run = 64
DOCKED: USER    DPF = ligand_dock.biased.dpf
DOCKED: USER  
DOCKED: USER    Estimated Free Energy of Binding    =   -8.84 kcal/mol  [=(1)+(2)+(3)-(4)]
DOCKED: USER    Estimated Inhibition Constant, Ki   =  329.59 nM (nanomolar)  [Temperature = 298.15 K]
DOCKED: USER    
DOCKED: USER    (1) Final Intermolecular Energy     =  -11.83 kcal/mol
DOCKED: USER        vdW + Hbond + desolv Energy     =  -11.83 kcal/mol
DOCKED: USER        Electrostatic Energy            =   +0.00 kcal/mol
DOCKED: USER    (2) Final Total Internal Energy     =   -2.38 kcal/mol
DOCKED: USER    (3) Torsional Free Energy           =   +2.98 kcal/mol
DOCKED: USER    (4) Unbound System's Energy  [=(2)] =   -2.38 kcal/mol
DOCKED: USER    
DOCKED: USER    
DOCKED: USER    NEWDPF move ligand.pdbqt
DOCKED: USER    NEWDPF about 0.288000 0.007000 -0.056000
DOCKED: USER    NEWDPF tran0 22.650591 -9.016062 -7.994704
DOCKED: USER    NEWDPF quaternion0 0.388833 -0.862046 -0.101537 0.308829
DOCKED: USER    NEWDPF axisangle0 0.408817 -0.906351 -0.106756 144.022672
DOCKED: USER    NEWDPF quat0 0.408817 -0.906351 -0.106756 144.022672
DOCKED: USER    NEWDPF dihe0 110.18 -49.39 52.33 -105.08 -92.64 -127.79 -168.10 -167.01 175.13 140.38 
DOCKED: USER  keepresnum = 1 
DOCKED: USER  
DOCKED: REMARK  Name = 
DOCKED: REMARK  10 active torsions:
DOCKED: REMARK  status: ('A' for Active; 'I' for Inactive)
DOCKED: REMARK    1  A    between atoms: C_2  and  C_5
DOCKED: REMARK    2  A    between atoms: C_6  and  C_7
DOCKED: REMARK    3  A    between atoms: C_10  and  C_11
DOCKED: REMARK    4  A    between atoms: C_11  and  N_12
DOCKED: REMARK    5  A    between atoms: N_12  and  C_13
DOCKED: REMARK    6  A    between atoms: N_12  and  C_16
DOCKED: REMARK    7  A    between atoms: C_13  and  C_14
DOCKED: REMARK    8  A    between atoms: C_14  and  O_15
DOCKED: REMARK    9  A    between atoms: C_16  and  C_17
DOCKED: REMARK   10  A    between atoms: C_17  and  C_18
DOCKED: REMARK                            x       y       z     vdW  Elec       q    Type
DOCKED: REMARK                         _______ _______ _______ _____ _____    ______ ____
DOCKED: USER                              x       y       z     vdW  Elec       q    Type
DOCKED: USER                           _______ _______ _______ _____ _____    ______ ____
DOCKED: ROOT
DOCKED: ATOM      1  N   UNL     1      23.534  -8.432  -7.181 -0.19 -0.00    +0.000 N 
DOCKED: ATOM      2  H   UNL     1      23.620  -7.751  -6.426 -0.02 -0.00    +0.000 HD
DOCKED: ENDROOT
DOCKED: BRANCH   1   3
DOCKED: ATOM      3  C   UNL     1      22.120  -8.880  -7.087 -0.20 -0.00    +0.000 C 
DOCKED: BRANCH   3   7
DOCKED: ATOM      4  C   UNL     1      20.834  -9.785  -3.039 -0.45 -0.00    +0.000 A 
DOCKED: ATOM      5  C   UNL     1      21.350 -10.793  -3.867 -0.46 -0.00    +0.000 A 
DOCKED: ATOM      6  C   UNL     1      21.766 -10.501  -5.169 -0.41 -0.00    +0.000 A 
DOCKED: ATOM      7  C   UNL     1      21.649  -9.200  -5.682 -0.26 -0.00    +0.000 A 
DOCKED: ATOM      8  C   UNL     1      21.145  -8.186  -4.850 -0.24 -0.00    +0.000 A 
DOCKED: ATOM      9  C   UNL     1      20.729  -8.475  -3.547 -0.34 -0.00    +0.000 A 
DOCKED: BRANCH   4  11
DOCKED: ATOM     10  C   UNL     1      21.230 -10.558  -0.702 -0.67 -0.00    +0.000 C 
DOCKED: ATOM     11  C   UNL     1      20.395 -10.148  -1.668 -0.56 -0.00    +0.000 C 
DOCKED: BRANCH  10  13
DOCKED: ATOM     12  O   UNL     1      20.958 -10.156   1.629 -0.60 -0.00    +0.000 OA
DOCKED: ATOM     13  C   UNL     1      20.752 -10.920   0.647 -0.70 -0.00    +0.000 C 
DOCKED: ATOM     14  N   UNL     1      20.052 -12.150   0.845 -0.57 -0.00    +0.000 N 
DOCKED: ATOM     15  O   UNL     1      19.608 -12.497   2.076 -1.61 -0.00    +0.000 OA
DOCKED: ATOM     16  H   UNL     1      19.890 -12.750   0.080 -0.33 -0.00    +0.000 HD
DOCKED: ENDBRANCH  10  13
DOCKED: ENDBRANCH   4  11
DOCKED: ENDBRANCH   3   7
DOCKED: ENDBRANCH   1   3
DOCKED: BRANCH   1  17
DOCKED: ATOM     17  C   UNL     1      23.868  -7.666  -8.404 -0.10 -0.00    +0.000 C 
DOCKED: BRANCH  17  18
DOCKED: ATOM     18  C   UNL     1      24.438  -6.286  -8.067 -0.07 -0.00    +0.000 C 
DOCKED: BRANCH  18  19
DOCKED: ATOM     19  O   UNL     1      24.606  -6.165  -6.682 -0.15 -0.00    +0.000 OA
DOCKED: ATOM     20  H   UNL     1      25.087  -6.938  -6.346 -0.02 -0.00    +0.000 HD
DOCKED: ENDBRANCH  18  19
DOCKED: ENDBRANCH  17  18
DOCKED: ENDBRANCH   1  17
DOCKED: BRANCH   1  21
DOCKED: ATOM     21  C   UNL     1      24.514  -9.503  -6.884 -0.00 -0.00    +0.000 C 
DOCKED: BRANCH  21  22
DOCKED: ATOM     22  C   UNL     1      25.175  -9.998  -8.175 -0.32 -0.00    +0.000 C 
DOCKED: BRANCH  22  23
DOCKED: ATOM     23  C   UNL     1      26.669 -10.038  -8.031 -0.36 -0.00    +0.000 A 
DOCKED: ATOM     24  C   UNL     1      27.536 -10.904  -8.689 -0.34 -0.00    +0.000 A 
DOCKED: ATOM     25  N   UNL     1      28.821 -10.575  -8.429 -0.46 -0.00    +0.000 N 
DOCKED: ATOM     26  C   UNL     1      28.774  -9.498  -7.626 -0.41 -0.00    +0.000 A 
DOCKED: ATOM     27  C   UNL     1      27.477  -9.137  -7.363 -0.37 -0.00    +0.000 A 
DOCKED: ATOM     28  C   UNL     1      27.169  -8.025  -6.577 -0.32 -0.00    +0.000 A 
DOCKED: ATOM     29  C   UNL     1      28.239  -7.276  -6.054 -0.29 -0.00    +0.000 A 
DOCKED: ATOM     30  C   UNL     1      29.574  -7.648  -6.324 -0.21 -0.00    +0.000 A 
DOCKED: ATOM     31  C   UNL     1      29.853  -8.772  -7.122 -0.23 -0.00    +0.000 A 
DOCKED: ATOM     32  H   UNL     1      29.629 -11.030  -8.760 -0.56 -0.00    +0.000 HD
DOCKED: ENDBRANCH  22  23
DOCKED: ENDBRANCH  21  22
DOCKED: ENDBRANCH   1  21
DOCKED: TORSDOF 10
DOCKED: TER
DOCKED: ENDMDL
________________________________________________________________________________


	BEGINNING GENETIC ALGORITHM DOCKING 65 of 100
Run: 65 Seed: 866619888 1005557573 [ Run 65 of 100 GA/GALS ]
Beginning LAMARCKIAN GENETIC ALGORITHM (LGA), with a maximum of 2500000 energy evaluations.

Final-Value: -16.444


	FINAL GENETIC ALGORITHM DOCKED STATE
	_______________________________________________


Detailed state:  trans 21.072 -9.117 -6.639 quatxyzw 0.562240 0.793061 0.077549 -0.221193 center 0.288 0.007 -0.056 ntor 10 123.4050 -46.4797 45.2559 148.1370 -113.0331 -159.7959 -76.5284 109.4042 -123.0125 153.0803
State:	 21.072  -9.117  -6.639   0.577  0.813  0.080 -154.442    123.41  -46.48   45.26  148.14 -113.03 -159.80  -76.53  109.40 -123.01  153.08

DOCKED: MODEL       65
DOCKED: USER    Run = 65
DOCKED: USER    DPF = ligand_dock.biased.dpf
DOCKED: USER  
DOCKED: USER    Estimated Free Energy of Binding    =  -11.03 kcal/mol  [=(1)+(2)+(3)-(4)]
DOCKED: USER    Estimated Inhibition Constant, Ki   =    8.25 nM (nanomolar)  [Temperature = 298.15 K]
DOCKED: USER    
DOCKED: USER    (1) Final Intermolecular Energy     =  -14.01 kcal/mol
DOCKED: USER        vdW + Hbond + desolv Energy     =  -14.01 kcal/mol
DOCKED: USER        Electrostatic Energy            =   +0.00 kcal/mol
DOCKED: USER    (2) Final Total Internal Energy     =   -2.43 kcal/mol
DOCKED: USER    (3) Torsional Free Energy           =   +2.98 kcal/mol
DOCKED: USER    (4) Unbound System's Energy  [=(2)] =   -2.43 kcal/mol
DOCKED: USER    
DOCKED: USER    
DOCKED: USER    NEWDPF move ligand.pdbqt
DOCKED: USER    NEWDPF about 0.288000 0.007000 -0.056000
DOCKED: USER    NEWDPF tran0 21.072365 -9.116758 -6.638858
DOCKED: USER    NEWDPF quaternion0 0.562240 0.793061 0.077549 -0.221193
DOCKED: USER    NEWDPF axisangle0 0.576521 0.813204 0.079519 -154.441821
DOCKED: USER    NEWDPF quat0 0.576521 0.813204 0.079519 -154.441821
DOCKED: USER    NEWDPF dihe0 123.41 -46.48 45.26 148.14 -113.03 -159.80 -76.53 109.40 -123.01 153.08 
DOCKED: USER  keepresnum = 1 
DOCKED: USER  
DOCKED: REMARK  Name = 
DOCKED: REMARK  10 active torsions:
DOCKED: REMARK  status: ('A' for Active; 'I' for Inactive)
DOCKED: REMARK    1  A    between atoms: C_2  and  C_5
DOCKED: REMARK    2  A    between atoms: C_6  and  C_7
DOCKED: REMARK    3  A    between atoms: C_10  and  C_11
DOCKED: REMARK    4  A    between atoms: C_11  and  N_12
DOCKED: REMARK    5  A    between atoms: N_12  and  C_13
DOCKED: REMARK    6  A    between atoms: N_12  and  C_16
DOCKED: REMARK    7  A    between atoms: C_13  and  C_14
DOCKED: REMARK    8  A    between atoms: C_14  and  O_15
DOCKED: REMARK    9  A    between atoms: C_16  and  C_17
DOCKED: REMARK   10  A    between atoms: C_17  and  C_18
DOCKED: REMARK                            x       y       z     vdW  Elec       q    Type
DOCKED: REMARK                         _______ _______ _______ _____ _____    ______ ____
DOCKED: USER                              x       y       z     vdW  Elec       q    Type
DOCKED: USER                           _______ _______ _______ _____ _____    ______ ____
DOCKED: ROOT
DOCKED: ATOM      1  N   UNL     1      21.162 -10.429  -6.410 -0.30 -0.00    +0.000 N 
DOCKED: ATOM      2  H   UNL     1      21.589 -11.122  -5.796 -0.04 -0.00    +0.000 HD
DOCKED: ENDROOT
DOCKED: BRANCH   1   3
DOCKED: ATOM      3  C   UNL     1      21.139  -9.194  -5.584 -0.28 -0.00    +0.000 C 
DOCKED: BRANCH   3   7
DOCKED: ATOM      4  C   UNL     1      20.636  -9.912  -1.330 -0.54 -0.00    +0.000 A 
DOCKED: ATOM      5  C   UNL     1      20.064 -10.778  -2.274 -0.39 -0.00    +0.000 A 
DOCKED: ATOM      6  C   UNL     1      20.229 -10.549  -3.643 -0.42 -0.00    +0.000 A 
DOCKED: ATOM      7  C   UNL     1      20.945  -9.431  -4.099 -0.36 -0.00    +0.000 A 
DOCKED: ATOM      8  C   UNL     1      21.530  -8.569  -3.156 -0.35 -0.00    +0.000 A 
DOCKED: ATOM      9  C   UNL     1      21.367  -8.797  -1.786 -0.47 -0.00    +0.000 A 
DOCKED: BRANCH   4  11
DOCKED: ATOM     10  C   UNL     1      20.565 -11.406   0.664 -0.65 -0.00    +0.000 C 
DOCKED: ATOM     11  C   UNL     1      20.423 -10.192   0.112 -0.64 -0.00    +0.000 C 
DOCKED: BRANCH  10  13
DOCKED: ATOM     12  O   UNL     1      19.866 -12.747   2.503 -1.51 -0.00    +0.000 OA
DOCKED: ATOM     13  C   UNL     1      20.334 -11.646   2.102 -0.79 -0.00    +0.000 C 
DOCKED: ATOM     14  N   UNL     1      20.642 -10.622   3.051 -0.64 -0.00    +0.000 N 
DOCKED: ATOM     15  O   UNL     1      20.436 -10.827   4.373 -0.90 -0.00    +0.000 OA
DOCKED: ATOM     16  H   UNL     1      21.008  -9.762   2.741 -0.60 -0.00    +0.000 HD
DOCKED: ENDBRANCH  10  13
DOCKED: ENDBRANCH   4  11
DOCKED: ENDBRANCH   3   7
DOCKED: ENDBRANCH   1   3
DOCKED: BRANCH   1  17
DOCKED: ATOM     17  C   UNL     1      22.063 -10.379  -7.585 -0.30 -0.00    +0.000 C 
DOCKED: BRANCH  17  18
DOCKED: ATOM     18  C   UNL     1      23.200 -11.398  -7.469 -0.47 -0.00    +0.000 C 
DOCKED: BRANCH  18  19
DOCKED: ATOM     19  O   UNL     1      22.977 -12.237  -6.369 -0.76 -0.00    +0.000 OA
DOCKED: ATOM     20  H   UNL     1      22.162 -12.744  -6.510 -0.59 -0.00    +0.000 HD
DOCKED: ENDBRANCH  18  19
DOCKED: ENDBRANCH  17  18
DOCKED: ENDBRANCH   1  17
DOCKED: BRANCH   1  21
DOCKED: ATOM     21  C   UNL     1      19.813 -10.946  -6.739 -0.28 -0.00    +0.000 C 
DOCKED: BRANCH  21  22
DOCKED: ATOM     22  C   UNL     1      18.767  -9.832  -6.617 -0.22 -0.00    +0.000 C 
DOCKED: BRANCH  22  23
DOCKED: ATOM     23  C   UNL     1      17.524 -10.335  -5.942 -0.23 -0.00    +0.000 A 
DOCKED: ATOM     24  C   UNL     1      16.991  -9.868  -4.745 -0.20 -0.00    +0.000 A 
DOCKED: ATOM     25  N   UNL     1      15.796 -10.451  -4.500 -0.22 -0.00    +0.000 N 
DOCKED: ATOM     26  C   UNL     1      15.562 -11.270  -5.541 -0.24 -0.00    +0.000 A 
DOCKED: ATOM     27  C   UNL     1      16.592 -11.224  -6.445 -0.30 -0.00    +0.000 A 
DOCKED: ATOM     28  C   UNL     1      16.563 -11.964  -7.628 -0.34 -0.00    +0.000 A 
DOCKED: ATOM     29  C   UNL     1      15.436 -12.770  -7.871 -0.38 +0.00    +0.000 A 
DOCKED: ATOM     30  C   UNL     1      14.376 -12.817  -6.940 -0.35 -0.00    +0.000 A 
DOCKED: ATOM     31  C   UNL     1      14.431 -12.057  -5.757 -0.27 -0.00    +0.000 A 
DOCKED: ATOM     32  H   UNL     1      15.214 -10.305  -3.720 -0.00 -0.00    +0.000 HD
DOCKED: ENDBRANCH  22  23
DOCKED: ENDBRANCH  21  22
DOCKED: ENDBRANCH   1  21
DOCKED: TORSDOF 10
DOCKED: TER
DOCKED: ENDMDL
________________________________________________________________________________


	BEGINNING GENETIC ALGORITHM DOCKING 66 of 100
Run: 66 Seed: 461727841 598385196 [ Run 66 of 100 GA/GALS ]
Beginning LAMARCKIAN GENETIC ALGORITHM (LGA), with a maximum of 2500000 energy evaluations.

Final-Value: -15.344


	FINAL GENETIC ALGORITHM DOCKED STATE
	_______________________________________________


Detailed state:  trans 20.656 -9.289 -6.680 quatxyzw 0.806620 0.580340 -0.033180 -0.107090 center 0.288 0.007 -0.056 ntor 10 129.9146 -5.8231 -38.3924 167.2092 57.0507 93.9519 -170.7619 -96.3864 92.4634 147.0990
State:	 20.656  -9.289  -6.680   0.811  0.584 -0.033 -167.705    129.91   -5.82  -38.39  167.21   57.05   93.95 -170.76  -96.39   92.46  147.10

DOCKED: MODEL       66
DOCKED: USER    Run = 66
DOCKED: USER    DPF = ligand_dock.biased.dpf
DOCKED: USER  
DOCKED: USER    Estimated Free Energy of Binding    =  -10.69 kcal/mol  [=(1)+(2)+(3)-(4)]
DOCKED: USER    Estimated Inhibition Constant, Ki   =   14.54 nM (nanomolar)  [Temperature = 298.15 K]
DOCKED: USER    
DOCKED: USER    (1) Final Intermolecular Energy     =  -13.68 kcal/mol
DOCKED: USER        vdW + Hbond + desolv Energy     =  -13.68 kcal/mol
DOCKED: USER        Electrostatic Energy            =   +0.00 kcal/mol
DOCKED: USER    (2) Final Total Internal Energy     =   -1.67 kcal/mol
DOCKED: USER    (3) Torsional Free Energy           =   +2.98 kcal/mol
DOCKED: USER    (4) Unbound System's Energy  [=(2)] =   -1.67 kcal/mol
DOCKED: USER    
DOCKED: USER    
DOCKED: USER    NEWDPF move ligand.pdbqt
DOCKED: USER    NEWDPF about 0.288000 0.007000 -0.056000
DOCKED: USER    NEWDPF tran0 20.655985 -9.288991 -6.680381
DOCKED: USER    NEWDPF quaternion0 0.806620 0.580340 -0.033180 -0.107090
DOCKED: USER    NEWDPF axisangle0 0.811286 0.583697 -0.033372 -167.704863
DOCKED: USER    NEWDPF quat0 0.811286 0.583697 -0.033372 -167.704863
DOCKED: USER    NEWDPF dihe0 129.91 -5.82 -38.39 167.21 57.05 93.95 -170.76 -96.39 92.46 147.10 
DOCKED: USER  keepresnum = 1 
DOCKED: USER  
DOCKED: REMARK  Name = 
DOCKED: REMARK  10 active torsions:
DOCKED: REMARK  status: ('A' for Active; 'I' for Inactive)
DOCKED: REMARK    1  A    between atoms: C_2  and  C_5
DOCKED: REMARK    2  A    between atoms: C_6  and  C_7
DOCKED: REMARK    3  A    between atoms: C_10  and  C_11
DOCKED: REMARK    4  A    between atoms: C_11  and  N_12
DOCKED: REMARK    5  A    between atoms: N_12  and  C_13
DOCKED: REMARK    6  A    between atoms: N_12  and  C_16
DOCKED: REMARK    7  A    between atoms: C_13  and  C_14
DOCKED: REMARK    8  A    between atoms: C_14  and  O_15
DOCKED: REMARK    9  A    between atoms: C_16  and  C_17
DOCKED: REMARK   10  A    between atoms: C_17  and  C_18
DOCKED: REMARK                            x       y       z     vdW  Elec       q    Type
DOCKED: REMARK                         _______ _______ _______ _____ _____    ______ ____
DOCKED: USER                              x       y       z     vdW  Elec       q    Type
DOCKED: USER                           _______ _______ _______ _____ _____    ______ ____
DOCKED: ROOT
DOCKED: ATOM      1  N   UNL     1      19.947 -10.405  -6.491 -0.27 -0.00    +0.000 N 
DOCKED: ATOM      2  H   UNL     1      19.958 -11.306  -6.015 -0.09 -0.00    +0.000 HD
DOCKED: ENDROOT
DOCKED: BRANCH   1   3
DOCKED: ATOM      3  C   UNL     1      20.871  -9.569  -5.681 -0.29 -0.00    +0.000 C 
DOCKED: BRANCH   3   7
DOCKED: ATOM      4  C   UNL     1      20.545 -10.153  -1.390 -0.53 -0.00    +0.000 A 
DOCKED: ATOM      5  C   UNL     1      21.387  -9.162  -1.914 -0.48 -0.00    +0.000 A 
DOCKED: ATOM      6  C   UNL     1      21.490  -8.972  -3.295 -0.36 -0.00    +0.000 A 
DOCKED: ATOM      7  C   UNL     1      20.774  -9.789  -4.184 -0.37 -0.00    +0.000 A 
DOCKED: ATOM      8  C   UNL     1      19.919 -10.774  -3.661 -0.41 -0.00    +0.000 A 
DOCKED: ATOM      9  C   UNL     1      19.815 -10.965  -2.280 -0.32 -0.00    +0.000 A 
DOCKED: BRANCH   4  11
DOCKED: ATOM     10  C   UNL     1      20.349 -11.510   0.692 -0.65 -0.00    +0.000 C 
DOCKED: ATOM     11  C   UNL     1      20.479 -10.323   0.084 -0.65 -0.00    +0.000 C 
DOCKED: BRANCH  10  13
DOCKED: ATOM     12  O   UNL     1      19.895 -12.712   2.697 -1.51 -0.00    +0.000 OA
DOCKED: ATOM     13  C   UNL     1      20.277 -11.636   2.161 -0.79 -0.00    +0.000 C 
DOCKED: ATOM     14  N   UNL     1      20.642 -10.527   2.987 -0.63 -0.00    +0.000 N 
DOCKED: ATOM     15  O   UNL     1      20.581 -10.627   4.336 -0.89 -0.00    +0.000 OA
DOCKED: ATOM     16  H   UNL     1      20.940  -9.685   2.571 -0.57 -0.00    +0.000 HD
DOCKED: ENDBRANCH  10  13
DOCKED: ENDBRANCH   4  11
DOCKED: ENDBRANCH   3   7
DOCKED: ENDBRANCH   1   3
DOCKED: BRANCH   1  17
DOCKED: ATOM     17  C   UNL     1      20.418 -10.710  -7.862 -0.23 -0.00    +0.000 C 
DOCKED: BRANCH  17  18
DOCKED: ATOM     18  C   UNL     1      21.944 -10.818  -7.923 -0.31 -0.00    +0.000 C 
DOCKED: BRANCH  18  19
DOCKED: ATOM     19  O   UNL     1      22.403 -11.659  -6.900 -0.49 -0.00    +0.000 OA
DOCKED: ATOM     20  H   UNL     1      22.140 -12.572  -7.091 -0.61 -0.00    +0.000 HD
DOCKED: ENDBRANCH  18  19
DOCKED: ENDBRANCH  17  18
DOCKED: ENDBRANCH   1  17
DOCKED: BRANCH   1  21
DOCKED: ATOM     21  C   UNL     1      18.541  -9.937  -6.454 -0.23 -0.00    +0.000 C 
DOCKED: BRANCH  21  22
DOCKED: ATOM     22  C   UNL     1      17.670 -10.782  -7.390 -0.32 -0.00    +0.000 C 
DOCKED: BRANCH  22  23
DOCKED: ATOM     23  C   UNL     1      16.462 -11.306  -6.670 -0.30 -0.00    +0.000 A 
DOCKED: ATOM     24  C   UNL     1      16.004 -10.895  -5.422 -0.23 -0.00    +0.000 A 
DOCKED: ATOM     25  N   UNL     1      14.818 -11.478  -5.137 -0.29 -0.00    +0.000 N 
DOCKED: ATOM     26  C   UNL     1      14.514 -12.241  -6.201 -0.29 -0.00    +0.000 A 
DOCKED: ATOM     27  C   UNL     1      15.491 -12.161  -7.160 -0.32 -0.00    +0.000 A 
DOCKED: ATOM     28  C   UNL     1      15.386 -12.841  -8.375 -0.32 +0.00    +0.000 A 
DOCKED: ATOM     29  C   UNL     1      14.237 -13.622  -8.591 -0.31 +0.00    +0.000 A 
DOCKED: ATOM     30  C   UNL     1      13.231 -13.706  -7.604 -0.30 -0.00    +0.000 A 
DOCKED: ATOM     31  C   UNL     1      13.363 -13.006  -6.391 -0.29 -0.00    +0.000 A 
DOCKED: ATOM     32  H   UNL     1      14.284 -11.366  -4.318 -0.03 -0.00    +0.000 HD
DOCKED: ENDBRANCH  22  23
DOCKED: ENDBRANCH  21  22
DOCKED: ENDBRANCH   1  21
DOCKED: TORSDOF 10
DOCKED: TER
DOCKED: ENDMDL
________________________________________________________________________________


	BEGINNING GENETIC ALGORITHM DOCKING 67 of 100
Run: 67 Seed: 1255397932 820829963 [ Run 67 of 100 GA/GALS ]
Beginning LAMARCKIAN GENETIC ALGORITHM (LGA), with a maximum of 2500000 energy evaluations.

Final-Value: -14.652


	FINAL GENETIC ALGORITHM DOCKED STATE
	_______________________________________________


Detailed state:  trans 17.708 -10.184 2.349 quatxyzw -0.661747 -0.679018 -0.287373 0.135799 center 0.288 0.007 -0.056 ntor 10 -136.6515 -106.8048 21.7339 -26.5091 173.6370 -118.7756 -78.2967 179.9530 179.8256 61.2068
State:	 17.708 -10.184   2.349  -0.668 -0.685 -0.290 164.390   -136.65 -106.80   21.73  -26.51  173.64 -118.78  -78.30  179.95  179.83   61.21

DOCKED: MODEL       67
DOCKED: USER    Run = 67
DOCKED: USER    DPF = ligand_dock.biased.dpf
DOCKED: USER  
DOCKED: USER    Estimated Free Energy of Binding    =   -8.72 kcal/mol  [=(1)+(2)+(3)-(4)]
DOCKED: USER    Estimated Inhibition Constant, Ki   =  405.14 nM (nanomolar)  [Temperature = 298.15 K]
DOCKED: USER    
DOCKED: USER    (1) Final Intermolecular Energy     =  -11.70 kcal/mol
DOCKED: USER        vdW + Hbond + desolv Energy     =  -11.70 kcal/mol
DOCKED: USER        Electrostatic Energy            =   +0.00 kcal/mol
DOCKED: USER    (2) Final Total Internal Energy     =   -2.95 kcal/mol
DOCKED: USER    (3) Torsional Free Energy           =   +2.98 kcal/mol
DOCKED: USER    (4) Unbound System's Energy  [=(2)] =   -2.95 kcal/mol
DOCKED: USER    
DOCKED: USER    
DOCKED: USER    NEWDPF move ligand.pdbqt
DOCKED: USER    NEWDPF about 0.288000 0.007000 -0.056000
DOCKED: USER    NEWDPF tran0 17.708284 -10.184459 2.349249
DOCKED: USER    NEWDPF quaternion0 -0.661747 -0.679018 -0.287373 0.135799
DOCKED: USER    NEWDPF axisangle0 -0.667935 -0.685367 -0.290060 164.390324
DOCKED: USER    NEWDPF quat0 -0.667935 -0.685367 -0.290060 164.390324
DOCKED: USER    NEWDPF dihe0 -136.65 -106.80 21.73 -26.51 173.64 -118.78 -78.30 179.95 179.83 61.21 
DOCKED: USER  keepresnum = 1 
DOCKED: USER  
DOCKED: REMARK  Name = 
DOCKED: REMARK  10 active torsions:
DOCKED: REMARK  status: ('A' for Active; 'I' for Inactive)
DOCKED: REMARK    1  A    between atoms: C_2  and  C_5
DOCKED: REMARK    2  A    between atoms: C_6  and  C_7
DOCKED: REMARK    3  A    between atoms: C_10  and  C_11
DOCKED: REMARK    4  A    between atoms: C_11  and  N_12
DOCKED: REMARK    5  A    between atoms: N_12  and  C_13
DOCKED: REMARK    6  A    between atoms: N_12  and  C_16
DOCKED: REMARK    7  A    between atoms: C_13  and  C_14
DOCKED: REMARK    8  A    between atoms: C_14  and  O_15
DOCKED: REMARK    9  A    between atoms: C_16  and  C_17
DOCKED: REMARK   10  A    between atoms: C_17  and  C_18
DOCKED: REMARK                            x       y       z     vdW  Elec       q    Type
DOCKED: REMARK                         _______ _______ _______ _____ _____    ______ ____
DOCKED: USER                              x       y       z     vdW  Elec       q    Type
DOCKED: USER                           _______ _______ _______ _____ _____    ______ ____
DOCKED: ROOT
DOCKED: ATOM      1  N   UNL     1      17.572 -11.441   1.920 -0.42 +0.00    +0.000 N 
DOCKED: ATOM      2  H   UNL     1      17.784 -12.411   2.156 -0.00 +0.00    +0.000 HD
DOCKED: ENDROOT
DOCKED: BRANCH   1   3
DOCKED: ATOM      3  C   UNL     1      17.578 -10.751   3.236 -0.44 +0.00    +0.000 C 
DOCKED: BRANCH   3   7
DOCKED: ATOM      4  C   UNL     1      13.913  -8.585   4.093 -0.29 +0.00    +0.000 A 
DOCKED: ATOM      5  C   UNL     1      14.961  -7.968   3.393 -0.31 +0.00    +0.000 A 
DOCKED: ATOM      6  C   UNL     1      16.139  -8.666   3.115 -0.22 +0.00    +0.000 A 
DOCKED: ATOM      7  C   UNL     1      16.307  -9.988   3.556 -0.36 +0.00    +0.000 A 
DOCKED: ATOM      8  C   UNL     1      15.255 -10.613   4.245 -0.44 +0.00    +0.000 A 
DOCKED: ATOM      9  C   UNL     1      14.075  -9.917   4.524 -0.32 +0.00    +0.000 A 
DOCKED: BRANCH   4  11
DOCKED: ATOM     10  C   UNL     1      12.668  -6.462   4.492 -0.23 +0.00    +0.000 C 
DOCKED: ATOM     11  C   UNL     1      12.686  -7.798   4.374 -0.25 +0.00    +0.000 C 
DOCKED: BRANCH  10  13
DOCKED: ATOM     12  O   UNL     1      10.305  -6.172   4.431 -0.15 +0.00    +0.000 OA
DOCKED: ATOM     13  C   UNL     1      11.428  -5.716   4.782 -0.22 +0.00    +0.000 C 
DOCKED: ATOM     14  N   UNL     1      11.498  -4.463   5.465 -0.31 +0.00    +0.000 N 
DOCKED: ATOM     15  O   UNL     1      10.370  -3.766   5.738 -0.91 +0.00    +0.000 OA
DOCKED: ATOM     16  H   UNL     1      12.373  -4.103   5.740 -0.09 +0.00    +0.000 HD
DOCKED: ENDBRANCH  10  13
DOCKED: ENDBRANCH   4  11
DOCKED: ENDBRANCH   3   7
DOCKED: ENDBRANCH   1   3
DOCKED: BRANCH   1  17
DOCKED: ATOM     17  C   UNL     1      18.662 -11.044   0.999 -0.54 -0.00    +0.000 C 
DOCKED: BRANCH  17  18
DOCKED: ATOM     18  C   UNL     1      19.884 -11.954   1.145 -0.71 -0.00    +0.000 C 
DOCKED: BRANCH  18  19
DOCKED: ATOM     19  O   UNL     1      20.263 -12.030   2.491 -1.99 -0.00    +0.000 OA
DOCKED: ATOM     20  H   UNL     1      20.848 -12.793   2.620 -0.59 -0.00    +0.000 HD
DOCKED: ENDBRANCH  18  19
DOCKED: ENDBRANCH  17  18
DOCKED: ENDBRANCH   1  17
DOCKED: BRANCH   1  21
DOCKED: ATOM     21  C   UNL     1      16.242 -11.458   1.267 -0.44 +0.00    +0.000 C 
DOCKED: BRANCH  21  22
DOCKED: ATOM     22  C   UNL     1      16.086 -10.252   0.335 -0.31 +0.00    +0.000 C 
DOCKED: BRANCH  22  23
DOCKED: ATOM     23  C   UNL     1      14.707  -9.667   0.441 -0.23 +0.00    +0.000 A 
DOCKED: ATOM     24  C   UNL     1      14.328  -8.382   0.069 -0.22 -0.00    +0.000 A 
DOCKED: ATOM     25  N   UNL     1      12.988  -8.235   0.173 -0.12 +0.00    +0.000 N 
DOCKED: ATOM     26  C   UNL     1      12.516  -9.422   0.591 -0.14 +0.00    +0.000 A 
DOCKED: ATOM     27  C   UNL     1      13.534 -10.325   0.763 -0.22 +0.00    +0.000 A 
DOCKED: ATOM     28  C   UNL     1      13.291 -11.640   1.161 -0.40 +0.00    +0.000 A 
DOCKED: ATOM     29  C   UNL     1      11.956 -12.020   1.387 -0.36 +0.00    +0.000 A 
DOCKED: ATOM     30  C   UNL     1      10.907 -11.092   1.211 -0.32 +0.00    +0.000 A 
DOCKED: ATOM     31  C   UNL     1      11.183  -9.773   0.805 -0.16 +0.00    +0.000 A 
DOCKED: ATOM     32  H   UNL     1      12.463  -7.425  -0.019 +0.00 -0.00    +0.000 HD
DOCKED: ENDBRANCH  22  23
DOCKED: ENDBRANCH  21  22
DOCKED: ENDBRANCH   1  21
DOCKED: TORSDOF 10
DOCKED: TER
DOCKED: ENDMDL
________________________________________________________________________________


	BEGINNING GENETIC ALGORITHM DOCKING 68 of 100
Run: 68 Seed: 1010913278 419614958 [ Run 68 of 100 GA/GALS ]
Beginning LAMARCKIAN GENETIC ALGORITHM (LGA), with a maximum of 2500000 energy evaluations.

Final-Value: -15.846


	FINAL GENETIC ALGORITHM DOCKED STATE
	_______________________________________________


Detailed state:  trans 22.050 -8.915 -6.784 quatxyzw 0.574559 0.641661 0.262886 -0.434792 center 0.288 0.007 -0.056 ntor 10 179.2945 -109.3668 91.1448 179.5576 -176.2616 -11.4181 -79.3296 96.9086 -113.6326 -165.4843
State:	 22.050  -8.915  -6.784   0.638  0.713  0.292 -128.456    179.29 -109.37   91.14  179.56 -176.26  -11.42  -79.33   96.91 -113.63 -165.48

DOCKED: MODEL       68
DOCKED: USER    Run = 68
DOCKED: USER    DPF = ligand_dock.biased.dpf
DOCKED: USER  
DOCKED: USER    Estimated Free Energy of Binding    =  -10.58 kcal/mol  [=(1)+(2)+(3)-(4)]
DOCKED: USER    Estimated Inhibition Constant, Ki   =   17.49 nM (nanomolar)  [Temperature = 298.15 K]
DOCKED: USER    
DOCKED: USER    (1) Final Intermolecular Energy     =  -13.57 kcal/mol
DOCKED: USER        vdW + Hbond + desolv Energy     =  -13.57 kcal/mol
DOCKED: USER        Electrostatic Energy            =   +0.00 kcal/mol
DOCKED: USER    (2) Final Total Internal Energy     =   -2.28 kcal/mol
DOCKED: USER    (3) Torsional Free Energy           =   +2.98 kcal/mol
DOCKED: USER    (4) Unbound System's Energy  [=(2)] =   -2.28 kcal/mol
DOCKED: USER    
DOCKED: USER    
DOCKED: USER    NEWDPF move ligand.pdbqt
DOCKED: USER    NEWDPF about 0.288000 0.007000 -0.056000
DOCKED: USER    NEWDPF tran0 22.050396 -8.915444 -6.783859
DOCKED: USER    NEWDPF quaternion0 0.574559 0.641661 0.262886 -0.434792
DOCKED: USER    NEWDPF axisangle0 0.638023 0.712536 0.291923 -128.455925
DOCKED: USER    NEWDPF quat0 0.638023 0.712536 0.291923 -128.455925
DOCKED: USER    NEWDPF dihe0 179.29 -109.37 91.14 179.56 -176.26 -11.42 -79.33 96.91 -113.63 -165.48 
DOCKED: USER  keepresnum = 1 
DOCKED: USER  
DOCKED: REMARK  Name = 
DOCKED: REMARK  10 active torsions:
DOCKED: REMARK  status: ('A' for Active; 'I' for Inactive)
DOCKED: REMARK    1  A    between atoms: C_2  and  C_5
DOCKED: REMARK    2  A    between atoms: C_6  and  C_7
DOCKED: REMARK    3  A    between atoms: C_10  and  C_11
DOCKED: REMARK    4  A    between atoms: C_11  and  N_12
DOCKED: REMARK    5  A    between atoms: N_12  and  C_13
DOCKED: REMARK    6  A    between atoms: N_12  and  C_16
DOCKED: REMARK    7  A    between atoms: C_13  and  C_14
DOCKED: REMARK    8  A    between atoms: C_14  and  O_15
DOCKED: REMARK    9  A    between atoms: C_16  and  C_17
DOCKED: REMARK   10  A    between atoms: C_17  and  C_18
DOCKED: REMARK                            x       y       z     vdW  Elec       q    Type
DOCKED: REMARK                         _______ _______ _______ _____ _____    ______ ____
DOCKED: USER                              x       y       z     vdW  Elec       q    Type
DOCKED: USER                           _______ _______ _______ _____ _____    ______ ____
DOCKED: ROOT
DOCKED: ATOM      1  N   UNL     1      21.846 -10.233  -6.707 -0.29 -0.00    +0.000 N 
DOCKED: ATOM      2  H   UNL     1      21.753 -11.006  -6.048 -0.04 -0.00    +0.000 HD
DOCKED: ENDROOT
DOCKED: BRANCH   1   3
DOCKED: ATOM      3  C   UNL     1      21.477  -9.040  -5.901 -0.26 -0.00    +0.000 C 
DOCKED: BRANCH   3   7
DOCKED: ATOM      4  C   UNL     1      21.045  -9.820  -1.651 -0.55 -0.00    +0.000 A 
DOCKED: ATOM      5  C   UNL     1      20.939 -10.862  -2.583 -0.35 -0.00    +0.000 A 
DOCKED: ATOM      6  C   UNL     1      21.081 -10.612  -3.951 -0.45 -0.00    +0.000 A 
DOCKED: ATOM      7  C   UNL     1      21.304  -9.307  -4.419 -0.34 -0.00    +0.000 A 
DOCKED: ATOM      8  C   UNL     1      21.423  -8.264  -3.486 -0.34 -0.00    +0.000 A 
DOCKED: ATOM      9  C   UNL     1      21.283  -8.512  -2.118 -0.44 -0.00    +0.000 A 
DOCKED: BRANCH   4  11
DOCKED: ATOM     10  C   UNL     1      20.313 -11.264   0.244 -0.64 -0.00    +0.000 C 
DOCKED: ATOM     11  C   UNL     1      20.876 -10.136  -0.210 -0.68 -0.00    +0.000 C 
DOCKED: BRANCH  10  13
DOCKED: ATOM     12  O   UNL     1      19.590 -12.594   2.083 -1.56 -0.00    +0.000 OA
DOCKED: ATOM     13  C   UNL     1      20.153 -11.537   1.686 -0.76 -0.00    +0.000 C 
DOCKED: ATOM     14  N   UNL     1      20.639 -10.594   2.644 -0.62 -0.00    +0.000 N 
DOCKED: ATOM     15  O   UNL     1      20.500 -10.830   3.971 -1.10 -0.00    +0.000 OA
DOCKED: ATOM     16  H   UNL     1      21.079  -9.768   2.338 -0.58 -0.00    +0.000 HD
DOCKED: ENDBRANCH  10  13
DOCKED: ENDBRANCH   4  11
DOCKED: ENDBRANCH   3   7
DOCKED: ENDBRANCH   1   3
DOCKED: BRANCH   1  17
DOCKED: ATOM     17  C   UNL     1      23.264 -10.285  -7.134 -0.33 -0.00    +0.000 C 
DOCKED: BRANCH  17  18
DOCKED: ATOM     18  C   UNL     1      23.676 -11.700  -7.548 -0.50 -0.00    +0.000 C 
DOCKED: BRANCH  18  19
DOCKED: ATOM     19  O   UNL     1      23.396 -12.600  -6.511 -0.99 -0.00    +0.000 OA
DOCKED: ATOM     20  H   UNL     1      22.762 -13.265  -6.823 -0.43 -0.00    +0.000 HD
DOCKED: ENDBRANCH  18  19
DOCKED: ENDBRANCH  17  18
DOCKED: ENDBRANCH   1  17
DOCKED: BRANCH   1  21
DOCKED: ATOM     21  C   UNL     1      20.900 -10.517  -7.811 -0.27 -0.00    +0.000 C 
DOCKED: BRANCH  21  22
DOCKED: ATOM     22  C   UNL     1      19.902  -9.365  -7.972 -0.16 -0.00    +0.000 C 
DOCKED: BRANCH  22  23
DOCKED: ATOM     23  C   UNL     1      18.525  -9.885  -8.269 -0.18 -0.00    +0.000 A 
DOCKED: ATOM     24  C   UNL     1      17.973 -10.078  -9.531 -0.11 -0.00    +0.000 A 
DOCKED: ATOM     25  N   UNL     1      16.769 -10.685  -9.432 -0.14 -0.00    +0.000 N 
DOCKED: ATOM     26  C   UNL     1      16.563 -10.890  -8.120 -0.23 -0.00    +0.000 A 
DOCKED: ATOM     27  C   UNL     1      17.615 -10.419  -7.376 -0.24 -0.00    +0.000 A 
DOCKED: ATOM     28  C   UNL     1      17.648 -10.548  -5.987 -0.26 -0.00    +0.000 A 
DOCKED: ATOM     29  C   UNL     1      16.559 -11.181  -5.361 -0.16 -0.00    +0.000 A 
DOCKED: ATOM     30  C   UNL     1      15.476 -11.666  -6.126 -0.27 -0.00    +0.000 A 
DOCKED: ATOM     31  C   UNL     1      15.472 -11.525  -7.525 -0.26 -0.00    +0.000 A 
DOCKED: ATOM     32  H   UNL     1      16.165 -10.927 -10.171 -0.01 -0.00    +0.000 HD
DOCKED: ENDBRANCH  22  23
DOCKED: ENDBRANCH  21  22
DOCKED: ENDBRANCH   1  21
DOCKED: TORSDOF 10
DOCKED: TER
DOCKED: ENDMDL
________________________________________________________________________________


	BEGINNING GENETIC ALGORITHM DOCKING 69 of 100
Run: 69 Seed: 2090290666 1126324724 [ Run 69 of 100 GA/GALS ]
Beginning LAMARCKIAN GENETIC ALGORITHM (LGA), with a maximum of 2500000 energy evaluations.

Final-Value: -13.680


	FINAL GENETIC ALGORITHM DOCKED STATE
	_______________________________________________


Detailed state:  trans 12.691 -9.917 1.589 quatxyzw -0.950700 0.011790 -0.137672 -0.277626 center 0.288 0.007 -0.056 ntor 10 25.8666 -95.5663 42.9526 -178.2618 80.4572 -72.4060 174.4463 59.2483 178.3840 -24.1542
State:	 12.691  -9.917   1.589  -0.990  0.012 -0.143 -147.763     25.87  -95.57   42.95 -178.26   80.46  -72.41  174.45   59.25  178.38  -24.15

DOCKED: MODEL       69
DOCKED: USER    Run = 69
DOCKED: USER    DPF = ligand_dock.biased.dpf
DOCKED: USER  
DOCKED: USER    Estimated Free Energy of Binding    =   -7.89 kcal/mol  [=(1)+(2)+(3)-(4)]
DOCKED: USER    Estimated Inhibition Constant, Ki   =    1.65 uM (micromolar)  [Temperature = 298.15 K]
DOCKED: USER    
DOCKED: USER    (1) Final Intermolecular Energy     =  -10.87 kcal/mol
DOCKED: USER        vdW + Hbond + desolv Energy     =  -10.87 kcal/mol
DOCKED: USER        Electrostatic Energy            =   +0.00 kcal/mol
DOCKED: USER    (2) Final Total Internal Energy     =   -2.81 kcal/mol
DOCKED: USER    (3) Torsional Free Energy           =   +2.98 kcal/mol
DOCKED: USER    (4) Unbound System's Energy  [=(2)] =   -2.81 kcal/mol
DOCKED: USER    
DOCKED: USER    
DOCKED: USER    NEWDPF move ligand.pdbqt
DOCKED: USER    NEWDPF about 0.288000 0.007000 -0.056000
DOCKED: USER    NEWDPF tran0 12.691381 -9.917323 1.589304
DOCKED: USER    NEWDPF quaternion0 -0.950700 0.011790 -0.137672 -0.277626
DOCKED: USER    NEWDPF axisangle0 -0.989602 0.012273 -0.143306 -147.762856
DOCKED: USER    NEWDPF quat0 -0.989602 0.012273 -0.143306 -147.762856
DOCKED: USER    NEWDPF dihe0 25.87 -95.57 42.95 -178.26 80.46 -72.41 174.45 59.25 178.38 -24.15 
DOCKED: USER  keepresnum = 1 
DOCKED: USER  
DOCKED: REMARK  Name = 
DOCKED: REMARK  10 active torsions:
DOCKED: REMARK  status: ('A' for Active; 'I' for Inactive)
DOCKED: REMARK    1  A    between atoms: C_2  and  C_5
DOCKED: REMARK    2  A    between atoms: C_6  and  C_7
DOCKED: REMARK    3  A    between atoms: C_10  and  C_11
DOCKED: REMARK    4  A    between atoms: C_11  and  N_12
DOCKED: REMARK    5  A    between atoms: N_12  and  C_13
DOCKED: REMARK    6  A    between atoms: N_12  and  C_16
DOCKED: REMARK    7  A    between atoms: C_13  and  C_14
DOCKED: REMARK    8  A    between atoms: C_14  and  O_15
DOCKED: REMARK    9  A    between atoms: C_16  and  C_17
DOCKED: REMARK   10  A    between atoms: C_17  and  C_18
DOCKED: REMARK                            x       y       z     vdW  Elec       q    Type
DOCKED: REMARK                         _______ _______ _______ _____ _____    ______ ____
DOCKED: USER                              x       y       z     vdW  Elec       q    Type
DOCKED: USER                           _______ _______ _______ _____ _____    ______ ____
DOCKED: ROOT
DOCKED: ATOM      1  N   UNL     1      11.425  -9.530   1.419 -0.15 +0.00    +0.000 N 
DOCKED: ATOM      2  H   UNL     1      10.486  -9.877   1.220 -0.00 +0.00    +0.000 HD
DOCKED: ENDROOT
DOCKED: BRANCH   1   3
DOCKED: ATOM      3  C   UNL     1      12.119 -10.710   1.998 -0.23 +0.00    +0.000 C 
DOCKED: BRANCH   3   7
DOCKED: ATOM      4  C   UNL     1      16.390 -10.788   1.214 -0.34 +0.00    +0.000 A 
DOCKED: ATOM      5  C   UNL     1      15.487 -11.380   0.318 -0.34 +0.00    +0.000 A 
DOCKED: ATOM      6  C   UNL     1      14.113 -11.353   0.569 -0.35 +0.00    +0.000 A 
DOCKED: ATOM      7  C   UNL     1      13.612 -10.757   1.737 -0.31 +0.00    +0.000 A 
DOCKED: ATOM      8  C   UNL     1      14.512 -10.152   2.629 -0.31 +0.00    +0.000 A 
DOCKED: ATOM      9  C   UNL     1      15.887 -10.177   2.380 -0.36 +0.00    +0.000 A 
DOCKED: BRANCH   4  11
DOCKED: ATOM     10  C   UNL     1      18.746 -11.434   1.709 -0.60 -0.00    +0.000 C 
DOCKED: ATOM     11  C   UNL     1      17.841 -10.854   0.908 -0.44 -0.00    +0.000 C 
DOCKED: BRANCH  10  13
DOCKED: ATOM     12  O   UNL     1      21.010 -12.030   2.143 -1.71 -0.00    +0.000 OA
DOCKED: ATOM     13  C   UNL     1      20.183 -11.470   1.373 -0.75 -0.00    +0.000 C 
DOCKED: ATOM     14  N   UNL     1      20.644 -10.862   0.165 -0.62 -0.00    +0.000 N 
DOCKED: ATOM     15  O   UNL     1      21.959 -10.886  -0.157 -0.73 -0.00    +0.000 OA
DOCKED: ATOM     16  H   UNL     1      20.001 -10.423  -0.439 -0.01 -0.00    +0.000 HD
DOCKED: ENDBRANCH  10  13
DOCKED: ENDBRANCH   4  11
DOCKED: ENDBRANCH   3   7
DOCKED: ENDBRANCH   1   3
DOCKED: BRANCH   1  17
DOCKED: ATOM     17  C   UNL     1      11.937  -9.088   0.101 -0.13 +0.00    +0.000 C 
DOCKED: BRANCH  17  18
DOCKED: ATOM     18  C   UNL     1      10.901  -9.295  -1.006 -0.16 -0.00    +0.000 C 
DOCKED: BRANCH  18  19
DOCKED: ATOM     19  O   UNL     1      10.250 -10.522  -0.825 -0.23 -0.00    +0.000 OA
DOCKED: ATOM     20  H   UNL     1      10.873 -11.168  -0.459 -0.03 +0.00    +0.000 HD
DOCKED: ENDBRANCH  18  19
DOCKED: ENDBRANCH  17  18
DOCKED: ENDBRANCH   1  17
DOCKED: BRANCH   1  21
DOCKED: ATOM     21  C   UNL     1      11.256  -8.413   2.378 -0.12 +0.00    +0.000 C 
DOCKED: BRANCH  21  22
DOCKED: ATOM     22  C   UNL     1      11.172  -8.946   3.812 -0.08 +0.00    +0.000 C 
DOCKED: BRANCH  22  23
DOCKED: ATOM     23  C   UNL     1      12.365  -8.515   4.615 -0.26 +0.00    +0.000 A 
DOCKED: ATOM     24  C   UNL     1      12.894  -9.173   5.720 -0.37 +0.00    +0.000 A 
DOCKED: ATOM     25  N   UNL     1      14.046  -8.585   6.115 -0.51 +0.00    +0.000 N 
DOCKED: ATOM     26  C   UNL     1      14.257  -7.570   5.258 -0.39 +0.00    +0.000 A 
DOCKED: ATOM     27  C   UNL     1      13.254  -7.497   4.325 -0.23 +0.00    +0.000 A 
DOCKED: ATOM     28  C   UNL     1      13.269  -6.544   3.306 -0.15 +0.00    +0.000 A 
DOCKED: ATOM     29  C   UNL     1      14.352  -5.647   3.261 -0.23 +0.00    +0.000 A 
DOCKED: ATOM     30  C   UNL     1      15.383  -5.722   4.222 -0.33 +0.00    +0.000 A 
DOCKED: ATOM     31  C   UNL     1      15.343  -6.696   5.236 -0.34 +0.00    +0.000 A 
DOCKED: ATOM     32  H   UNL     1      14.615  -8.845   6.875 -0.06 +0.00    +0.000 HD
DOCKED: ENDBRANCH  22  23
DOCKED: ENDBRANCH  21  22
DOCKED: ENDBRANCH   1  21
DOCKED: TORSDOF 10
DOCKED: TER
DOCKED: ENDMDL
________________________________________________________________________________


	BEGINNING GENETIC ALGORITHM DOCKING 70 of 100
Run: 70 Seed: 2048372568 319278653 [ Run 70 of 100 GA/GALS ]
Beginning LAMARCKIAN GENETIC ALGORITHM (LGA), with a maximum of 2500000 energy evaluations.

Final-Value: -16.281


	FINAL GENETIC ALGORITHM DOCKED STATE
	_______________________________________________


Detailed state:  trans 21.039 -10.018 -6.009 quatxyzw -0.520549 0.488806 -0.619517 0.326029 center 0.288 0.007 -0.056 ntor 10 21.4617 168.6130 -168.6736 -179.4547 -149.2862 -180.0000 -48.1457 -49.3262 169.0855 7.0425
State:	 21.039 -10.018  -6.009  -0.551  0.517 -0.655 141.944     21.46  168.61 -168.67 -179.45 -149.29 -180.00  -48.15  -49.33  169.09    7.04

DOCKED: MODEL       70
DOCKED: USER    Run = 70
DOCKED: USER    DPF = ligand_dock.biased.dpf
DOCKED: USER  
DOCKED: USER    Estimated Free Energy of Binding    =  -11.42 kcal/mol  [=(1)+(2)+(3)-(4)]
DOCKED: USER    Estimated Inhibition Constant, Ki   =    4.27 nM (nanomolar)  [Temperature = 298.15 K]
DOCKED: USER    
DOCKED: USER    (1) Final Intermolecular Energy     =  -14.40 kcal/mol
DOCKED: USER        vdW + Hbond + desolv Energy     =  -14.40 kcal/mol
DOCKED: USER        Electrostatic Energy            =   +0.00 kcal/mol
DOCKED: USER    (2) Final Total Internal Energy     =   -1.88 kcal/mol
DOCKED: USER    (3) Torsional Free Energy           =   +2.98 kcal/mol
DOCKED: USER    (4) Unbound System's Energy  [=(2)] =   -1.88 kcal/mol
DOCKED: USER    
DOCKED: USER    
DOCKED: USER    NEWDPF move ligand.pdbqt
DOCKED: USER    NEWDPF about 0.288000 0.007000 -0.056000
DOCKED: USER    NEWDPF tran0 21.039229 -10.018435 -6.008636
DOCKED: USER    NEWDPF quaternion0 -0.520549 0.488806 -0.619517 0.326029
DOCKED: USER    NEWDPF axisangle0 -0.550636 0.517058 -0.655324 141.944143
DOCKED: USER    NEWDPF quat0 -0.550636 0.517058 -0.655324 141.944143
DOCKED: USER    NEWDPF dihe0 21.46 168.61 -168.67 -179.45 -149.29 -180.00 -48.15 -49.33 169.09 7.04 
DOCKED: USER  keepresnum = 1 
DOCKED: USER  
DOCKED: REMARK  Name = 
DOCKED: REMARK  10 active torsions:
DOCKED: REMARK  status: ('A' for Active; 'I' for Inactive)
DOCKED: REMARK    1  A    between atoms: C_2  and  C_5
DOCKED: REMARK    2  A    between atoms: C_6  and  C_7
DOCKED: REMARK    3  A    between atoms: C_10  and  C_11
DOCKED: REMARK    4  A    between atoms: C_11  and  N_12
DOCKED: REMARK    5  A    between atoms: N_12  and  C_13
DOCKED: REMARK    6  A    between atoms: N_12  and  C_16
DOCKED: REMARK    7  A    between atoms: C_13  and  C_14
DOCKED: REMARK    8  A    between atoms: C_14  and  O_15
DOCKED: REMARK    9  A    between atoms: C_16  and  C_17
DOCKED: REMARK   10  A    between atoms: C_17  and  C_18
DOCKED: REMARK                            x       y       z     vdW  Elec       q    Type
DOCKED: REMARK                         _______ _______ _______ _____ _____    ______ ____
DOCKED: USER                              x       y       z     vdW  Elec       q    Type
DOCKED: USER                           _______ _______ _______ _____ _____    ______ ____
DOCKED: ROOT
DOCKED: ATOM      1  N   UNL     1      21.637  -9.789  -7.180 -0.21 -0.00    +0.000 N 
DOCKED: ATOM      2  H   UNL     1      21.456  -9.542  -8.153 +0.00 -0.00    +0.000 HD
DOCKED: ENDROOT
DOCKED: BRANCH   1   3
DOCKED: ATOM      3  C   UNL     1      20.451  -9.260  -6.458 -0.20 -0.00    +0.000 C 
DOCKED: BRANCH   3   7
DOCKED: ATOM      4  C   UNL     1      20.575  -9.921  -2.167 -0.48 -0.00    +0.000 A 
DOCKED: ATOM      5  C   UNL     1      19.841 -10.777  -3.001 -0.40 -0.00    +0.000 A 
DOCKED: ATOM      6  C   UNL     1      19.803 -10.566  -4.382 -0.37 -0.00    +0.000 A 
DOCKED: ATOM      7  C   UNL     1      20.476  -9.476  -4.957 -0.27 -0.00    +0.000 A 
DOCKED: ATOM      8  C   UNL     1      21.223  -8.625  -4.126 -0.32 -0.00    +0.000 A 
DOCKED: ATOM      9  C   UNL     1      21.263  -8.835  -2.744 -0.43 -0.00    +0.000 A 
DOCKED: BRANCH   4  11
DOCKED: ATOM     10  C   UNL     1      20.076 -11.292  -0.146 -0.53 -0.00    +0.000 C 
DOCKED: ATOM     11  C   UNL     1      20.575 -10.181  -0.705 -0.64 -0.00    +0.000 C 
DOCKED: BRANCH  10  13
DOCKED: ATOM     12  O   UNL     1      19.594 -12.560   1.811 -1.60 -0.00    +0.000 OA
DOCKED: ATOM     13  C   UNL     1      20.084 -11.509   1.314 -0.74 -0.00    +0.000 C 
DOCKED: ATOM     14  N   UNL     1      20.652 -10.519   2.174 -0.59 -0.00    +0.000 N 
DOCKED: ATOM     15  O   UNL     1      20.667 -10.703   3.516 -1.16 -0.00    +0.000 OA
DOCKED: ATOM     16  H   UNL     1      21.035  -9.697   1.789 -0.54 -0.00    +0.000 HD
DOCKED: ENDBRANCH  10  13
DOCKED: ENDBRANCH   4  11
DOCKED: ENDBRANCH   3   7
DOCKED: ENDBRANCH   1   3
DOCKED: BRANCH   1  17
DOCKED: ATOM     17  C   UNL     1      21.755 -11.265  -7.194 -0.18 -0.00    +0.000 C 
DOCKED: BRANCH  17  18
DOCKED: ATOM     18  C   UNL     1      22.719 -11.764  -6.114 -0.43 -0.00    +0.000 C 
DOCKED: BRANCH  18  19
DOCKED: ATOM     19  O   UNL     1      23.550 -12.761  -6.641 -1.07 -0.00    +0.000 OA
DOCKED: ATOM     20  H   UNL     1      23.037 -13.326  -7.240 -0.29 -0.00    +0.000 HD
DOCKED: ENDBRANCH  18  19
DOCKED: ENDBRANCH  17  18
DOCKED: ENDBRANCH   1  17
DOCKED: BRANCH   1  21
DOCKED: ATOM     21  C   UNL     1      22.903  -9.112  -6.813 -0.26 -0.00    +0.000 C 
DOCKED: BRANCH  21  22
DOCKED: ATOM     22  C   UNL     1      23.743  -8.829  -8.064 -0.18 -0.00    +0.000 C 
DOCKED: BRANCH  22  23
DOCKED: ATOM     23  C   UNL     1      24.955  -9.714  -8.107 -0.25 -0.00    +0.000 A 
DOCKED: ATOM     24  C   UNL     1      25.088 -10.892  -8.833 -0.30 -0.00    +0.000 A 
DOCKED: ATOM     25  N   UNL     1      26.354 -11.360  -8.749 -0.40 -0.00    +0.000 N 
DOCKED: ATOM     26  C   UNL     1      27.026 -10.478  -7.988 -0.38 -0.00    +0.000 A 
DOCKED: ATOM     27  C   UNL     1      26.207  -9.457  -7.579 -0.32 -0.00    +0.000 A 
DOCKED: ATOM     28  C   UNL     1      26.684  -8.399  -6.804 -0.31 -0.00    +0.000 A 
DOCKED: ATOM     29  C   UNL     1      28.045  -8.409  -6.447 -0.39 -0.00    +0.000 A 
DOCKED: ATOM     30  C   UNL     1      28.888  -9.460  -6.868 -0.42 -0.00    +0.000 A 
DOCKED: ATOM     31  C   UNL     1      28.379 -10.512  -7.651 -0.42 -0.00    +0.000 A 
DOCKED: ATOM     32  H   UNL     1      26.713 -12.179  -9.161 -0.33 -0.00    +0.000 HD
DOCKED: ENDBRANCH  22  23
DOCKED: ENDBRANCH  21  22
DOCKED: ENDBRANCH   1  21
DOCKED: TORSDOF 10
DOCKED: TER
DOCKED: ENDMDL
________________________________________________________________________________


	BEGINNING GENETIC ALGORITHM DOCKING 71 of 100
Run: 71 Seed: 614782871 11521204 [ Run 71 of 100 GA/GALS ]
Beginning LAMARCKIAN GENETIC ALGORITHM (LGA), with a maximum of 2500000 energy evaluations.

Final-Value: -14.398


	FINAL GENETIC ALGORITHM DOCKED STATE
	_______________________________________________


Detailed state:  trans 21.614 -8.075 -6.197 quatxyzw 0.716511 0.615505 0.124351 0.303813 center 0.288 0.007 -0.056 ntor 10 149.0130 -77.1509 80.7441 122.1877 39.5295 178.8911 -77.8334 1.0492 173.5595 88.5583
State:	 21.614  -8.075  -6.197   0.752  0.646  0.131 144.626    149.01  -77.15   80.74  122.19   39.53  178.89  -77.83    1.05  173.56   88.56

DOCKED: MODEL       71
DOCKED: USER    Run = 71
DOCKED: USER    DPF = ligand_dock.biased.dpf
DOCKED: USER  
DOCKED: USER    Estimated Free Energy of Binding    =   -8.99 kcal/mol  [=(1)+(2)+(3)-(4)]
DOCKED: USER    Estimated Inhibition Constant, Ki   =  258.58 nM (nanomolar)  [Temperature = 298.15 K]
DOCKED: USER    
DOCKED: USER    (1) Final Intermolecular Energy     =  -11.97 kcal/mol
DOCKED: USER        vdW + Hbond + desolv Energy     =  -11.97 kcal/mol
DOCKED: USER        Electrostatic Energy            =   +0.00 kcal/mol
DOCKED: USER    (2) Final Total Internal Energy     =   -2.43 kcal/mol
DOCKED: USER    (3) Torsional Free Energy           =   +2.98 kcal/mol
DOCKED: USER    (4) Unbound System's Energy  [=(2)] =   -2.43 kcal/mol
DOCKED: USER    
DOCKED: USER    
DOCKED: USER    NEWDPF move ligand.pdbqt
DOCKED: USER    NEWDPF about 0.288000 0.007000 -0.056000
DOCKED: USER    NEWDPF tran0 21.613694 -8.075361 -6.196870
DOCKED: USER    NEWDPF quaternion0 0.716511 0.615505 0.124351 0.303813
DOCKED: USER    NEWDPF axisangle0 0.752060 0.646042 0.130520 144.626464
DOCKED: USER    NEWDPF quat0 0.752060 0.646042 0.130520 144.626464
DOCKED: USER    NEWDPF dihe0 149.01 -77.15 80.74 122.19 39.53 178.89 -77.83 1.05 173.56 88.56 
DOCKED: USER  keepresnum = 1 
DOCKED: USER  
DOCKED: REMARK  Name = 
DOCKED: REMARK  10 active torsions:
DOCKED: REMARK  status: ('A' for Active; 'I' for Inactive)
DOCKED: REMARK    1  A    between atoms: C_2  and  C_5
DOCKED: REMARK    2  A    between atoms: C_6  and  C_7
DOCKED: REMARK    3  A    between atoms: C_10  and  C_11
DOCKED: REMARK    4  A    between atoms: C_11  and  N_12
DOCKED: REMARK    5  A    between atoms: N_12  and  C_13
DOCKED: REMARK    6  A    between atoms: N_12  and  C_16
DOCKED: REMARK    7  A    between atoms: C_13  and  C_14
DOCKED: REMARK    8  A    between atoms: C_14  and  O_15
DOCKED: REMARK    9  A    between atoms: C_16  and  C_17
DOCKED: REMARK   10  A    between atoms: C_17  and  C_18
DOCKED: REMARK                            x       y       z     vdW  Elec       q    Type
DOCKED: REMARK                         _______ _______ _______ _____ _____    ______ ____
DOCKED: USER                              x       y       z     vdW  Elec       q    Type
DOCKED: USER                           _______ _______ _______ _____ _____    ______ ____
DOCKED: ROOT
DOCKED: ATOM      1  N   UNL     1      21.047  -9.106  -6.829 -0.15 -0.00    +0.000 N 
DOCKED: ATOM      2  H   UNL     1      21.239 -10.027  -7.221 -0.00 -0.00    +0.000 HD
DOCKED: ENDROOT
DOCKED: BRANCH   1   3
DOCKED: ATOM      3  C   UNL     1      22.116  -8.926  -5.813 -0.28 -0.00    +0.000 C 
DOCKED: BRANCH   3   7
DOCKED: ATOM      4  C   UNL     1      20.864  -9.884  -1.766 -0.53 -0.00    +0.000 A 
DOCKED: ATOM      5  C   UNL     1      20.803  -8.565  -2.240 -0.38 -0.00    +0.000 A 
DOCKED: ATOM      6  C   UNL     1      21.203  -8.257  -3.543 -0.35 -0.00    +0.000 A 
DOCKED: ATOM      7  C   UNL     1      21.701  -9.258  -4.393 -0.31 -0.00    +0.000 A 
DOCKED: ATOM      8  C   UNL     1      21.751 -10.581  -3.926 -0.41 -0.00    +0.000 A 
DOCKED: ATOM      9  C   UNL     1      21.350 -10.892  -2.622 -0.30 -0.00    +0.000 A 
DOCKED: BRANCH   4  11
DOCKED: ATOM     10  C   UNL     1      20.778 -11.262   0.310 -0.60 -0.00    +0.000 C 
DOCKED: ATOM     11  C   UNL     1      20.438 -10.157  -0.371 -0.63 -0.00    +0.000 C 
DOCKED: BRANCH  10  13
DOCKED: ATOM     12  O   UNL     1      19.643 -12.524   1.980 -1.62 -0.00    +0.000 OA
DOCKED: ATOM     13  C   UNL     1      20.325 -11.502   1.694 -0.77 -0.00    +0.000 C 
DOCKED: ATOM     14  N   UNL     1      20.660 -10.567   2.722 -0.60 -0.00    +0.000 N 
DOCKED: ATOM     15  O   UNL     1      20.252 -10.772   3.996 -1.06 -0.00    +0.000 OA
DOCKED: ATOM     16  H   UNL     1      21.192  -9.767   2.502 -0.58 -0.00    +0.000 HD
DOCKED: ENDBRANCH  10  13
DOCKED: ENDBRANCH   4  11
DOCKED: ENDBRANCH   3   7
DOCKED: ENDBRANCH   1   3
DOCKED: BRANCH   1  17
DOCKED: ATOM     17  C   UNL     1      21.128  -8.191  -7.992 -0.08 -0.00    +0.000 C 
DOCKED: BRANCH  17  18
DOCKED: ATOM     18  C   UNL     1      20.527  -8.823  -9.250 -0.09 -0.00    +0.000 C 
DOCKED: BRANCH  18  19
DOCKED: ATOM     19  O   UNL     1      20.526 -10.218  -9.128 -0.21 -0.00    +0.000 OA
DOCKED: ATOM     20  H   UNL     1      19.703 -10.505  -8.702 -0.02 -0.00    +0.000 HD
DOCKED: ENDBRANCH  18  19
DOCKED: ENDBRANCH  17  18
DOCKED: ENDBRANCH   1  17
DOCKED: BRANCH   1  21
DOCKED: ATOM     21  C   UNL     1      19.686  -9.181  -6.248 -0.18 -0.00    +0.000 C 
DOCKED: BRANCH  21  22
DOCKED: ATOM     22  C   UNL     1      19.353 -10.622  -5.846 -0.35 -0.00    +0.000 C 
DOCKED: BRANCH  22  23
DOCKED: ATOM     23  C   UNL     1      17.937 -10.966  -6.205 -0.32 -0.00    +0.000 A 
DOCKED: ATOM     24  C   UNL     1      17.518 -11.644  -7.345 -0.32 -0.00    +0.000 A 
DOCKED: ATOM     25  N   UNL     1      16.192 -11.902  -7.283 -0.36 -0.00    +0.000 N 
DOCKED: ATOM     26  C   UNL     1      15.773 -11.405  -6.105 -0.26 -0.00    +0.000 A 
DOCKED: ATOM     27  C   UNL     1      16.810 -10.830  -5.416 -0.24 -0.00    +0.000 A 
DOCKED: ATOM     28  C   UNL     1      16.629 -10.274  -4.149 -0.20 -0.00    +0.000 A 
DOCKED: ATOM     29  C   UNL     1      15.339 -10.319  -3.590 -0.23 -0.00    +0.000 A 
DOCKED: ATOM     30  C   UNL     1      14.272 -10.911  -4.299 -0.26 -0.00    +0.000 A 
DOCKED: ATOM     31  C   UNL     1      14.485 -11.467  -5.574 -0.26 -0.00    +0.000 A 
DOCKED: ATOM     32  H   UNL     1      15.644 -12.359  -7.960 -0.02 -0.00    +0.000 HD
DOCKED: ENDBRANCH  22  23
DOCKED: ENDBRANCH  21  22
DOCKED: ENDBRANCH   1  21
DOCKED: TORSDOF 10
DOCKED: TER
DOCKED: ENDMDL
________________________________________________________________________________


	BEGINNING GENETIC ALGORITHM DOCKING 72 of 100
Run: 72 Seed: 1296761788 179869980 [ Run 72 of 100 GA/GALS ]
Beginning LAMARCKIAN GENETIC ALGORITHM (LGA), with a maximum of 2500000 energy evaluations.

Final-Value: -14.999


	FINAL GENETIC ALGORITHM DOCKED STATE
	_______________________________________________


Detailed state:  trans 20.899 -8.975 -5.486 quatxyzw 0.236130 -0.685474 0.046032 -0.687203 center 0.288 0.007 -0.056 ntor 10 23.9987 -70.1247 87.6296 -71.5083 -93.0452 175.0317 -163.5309 -11.6724 109.9651 0.3337
State:	 20.899  -8.975  -5.486   0.325 -0.944  0.063 -93.182     24.00  -70.12   87.63  -71.51  -93.05  175.03 -163.53  -11.67  109.97    0.33

DOCKED: MODEL       72
DOCKED: USER    Run = 72
DOCKED: USER    DPF = ligand_dock.biased.dpf
DOCKED: USER  
DOCKED: USER    Estimated Free Energy of Binding    =   -9.95 kcal/mol  [=(1)+(2)+(3)-(4)]
DOCKED: USER    Estimated Inhibition Constant, Ki   =   51.22 nM (nanomolar)  [Temperature = 298.15 K]
DOCKED: USER    
DOCKED: USER    (1) Final Intermolecular Energy     =  -12.93 kcal/mol
DOCKED: USER        vdW + Hbond + desolv Energy     =  -12.93 kcal/mol
DOCKED: USER        Electrostatic Energy            =   +0.00 kcal/mol
DOCKED: USER    (2) Final Total Internal Energy     =   -2.07 kcal/mol
DOCKED: USER    (3) Torsional Free Energy           =   +2.98 kcal/mol
DOCKED: USER    (4) Unbound System's Energy  [=(2)] =   -2.07 kcal/mol
DOCKED: USER    
DOCKED: USER    
DOCKED: USER    NEWDPF move ligand.pdbqt
DOCKED: USER    NEWDPF about 0.288000 0.007000 -0.056000
DOCKED: USER    NEWDPF tran0 20.898760 -8.975310 -5.485897
DOCKED: USER    NEWDPF quaternion0 0.236130 -0.685474 0.046032 -0.687203
DOCKED: USER    NEWDPF axisangle0 0.325039 -0.943575 0.063365 -93.181727
DOCKED: USER    NEWDPF quat0 0.325039 -0.943575 0.063365 -93.181727
DOCKED: USER    NEWDPF dihe0 24.00 -70.12 87.63 -71.51 -93.05 175.03 -163.53 -11.67 109.97 0.33 
DOCKED: USER  keepresnum = 1 
DOCKED: USER  
DOCKED: REMARK  Name = 
DOCKED: REMARK  10 active torsions:
DOCKED: REMARK  status: ('A' for Active; 'I' for Inactive)
DOCKED: REMARK    1  A    between atoms: C_2  and  C_5
DOCKED: REMARK    2  A    between atoms: C_6  and  C_7
DOCKED: REMARK    3  A    between atoms: C_10  and  C_11
DOCKED: REMARK    4  A    between atoms: C_11  and  N_12
DOCKED: REMARK    5  A    between atoms: N_12  and  C_13
DOCKED: REMARK    6  A    between atoms: N_12  and  C_16
DOCKED: REMARK    7  A    between atoms: C_13  and  C_14
DOCKED: REMARK    8  A    between atoms: C_14  and  O_15
DOCKED: REMARK    9  A    between atoms: C_16  and  C_17
DOCKED: REMARK   10  A    between atoms: C_17  and  C_18
DOCKED: REMARK                            x       y       z     vdW  Elec       q    Type
DOCKED: REMARK                         _______ _______ _______ _____ _____    ______ ____
DOCKED: USER                              x       y       z     vdW  Elec       q    Type
DOCKED: USER                           _______ _______ _______ _____ _____    ______ ____
DOCKED: ROOT
DOCKED: ATOM      1  N   UNL     1      20.943  -8.907  -6.819 -0.14 -0.00    +0.000 N 
DOCKED: ATOM      2  H   UNL     1      21.008  -8.254  -7.600 +0.00 -0.00    +0.000 HD
DOCKED: ENDROOT
DOCKED: BRANCH   1   3
DOCKED: ATOM      3  C   UNL     1      21.543  -8.157  -5.684 -0.22 -0.00    +0.000 C 
DOCKED: BRANCH   3   7
DOCKED: ATOM      4  C   UNL     1      21.212 -10.158  -1.843 -0.54 -0.00    +0.000 A 
DOCKED: ATOM      5  C   UNL     1      21.392  -8.768  -1.913 -0.46 -0.00    +0.000 A 
DOCKED: ATOM      6  C   UNL     1      21.496  -8.124  -3.149 -0.34 -0.00    +0.000 A 
DOCKED: ATOM      7  C   UNL     1      21.450  -8.859  -4.343 -0.31 -0.00    +0.000 A 
DOCKED: ATOM      8  C   UNL     1      21.256 -10.249  -4.277 -0.42 -0.00    +0.000 A 
DOCKED: ATOM      9  C   UNL     1      21.151 -10.895  -3.042 -0.36 -0.00    +0.000 A 
DOCKED: BRANCH   4  11
DOCKED: ATOM     10  C   UNL     1      20.110 -10.584   0.352 -0.63 -0.00    +0.000 C 
DOCKED: ATOM     11  C   UNL     1      21.118 -10.796  -0.506 -0.61 -0.00    +0.000 C 
DOCKED: BRANCH  10  13
DOCKED: ATOM     12  O   UNL     1      19.798 -12.459   1.785 -1.73 -0.00    +0.000 OA
DOCKED: ATOM     13  C   UNL     1      20.059 -11.230   1.678 -0.73 -0.00    +0.000 C 
DOCKED: ATOM     14  N   UNL     1      20.306 -10.456   2.854 -0.62 -0.00    +0.000 N 
DOCKED: ATOM     15  O   UNL     1      20.262 -11.033   4.078 -1.11 -0.00    +0.000 OA
DOCKED: ATOM     16  H   UNL     1      20.510  -9.495   2.774 -0.55 -0.00    +0.000 HD
DOCKED: ENDBRANCH  10  13
DOCKED: ENDBRANCH   4  11
DOCKED: ENDBRANCH   3   7
DOCKED: ENDBRANCH   1   3
DOCKED: BRANCH   1  17
DOCKED: ATOM     17  C   UNL     1      19.493  -9.180  -6.691 -0.16 -0.00    +0.000 C 
DOCKED: BRANCH  17  18
DOCKED: ATOM     18  C   UNL     1      18.847  -9.447  -8.053 -0.16 -0.00    +0.000 C 
DOCKED: BRANCH  18  19
DOCKED: ATOM     19  O   UNL     1      19.705  -9.028  -9.078 -0.10 -0.00    +0.000 OA
DOCKED: ATOM     20  H   UNL     1      20.170  -8.224  -8.800 +0.00 -0.00    +0.000 HD
DOCKED: ENDBRANCH  18  19
DOCKED: ENDBRANCH  17  18
DOCKED: ENDBRANCH   1  17
DOCKED: BRANCH   1  21
DOCKED: ATOM     21  C   UNL     1      21.723 -10.102  -7.216 -0.29 -0.00    +0.000 C 
DOCKED: BRANCH  21  22
DOCKED: ATOM     22  C   UNL     1      22.591  -9.794  -8.441 -0.19 -0.00    +0.000 C 
DOCKED: BRANCH  22  23
DOCKED: ATOM     23  C   UNL     1      23.979 -10.338  -8.266 -0.25 -0.00    +0.000 A 
DOCKED: ATOM     24  C   UNL     1      24.438 -11.577  -8.701 -0.36 -0.00    +0.000 A 
DOCKED: ATOM     25  N   UNL     1      25.771 -11.686  -8.497 -0.43 -0.00    +0.000 N 
DOCKED: ATOM     26  C   UNL     1      26.159 -10.520  -7.951 -0.35 -0.00    +0.000 A 
DOCKED: ATOM     27  C   UNL     1      25.094  -9.669  -7.797 -0.28 -0.00    +0.000 A 
DOCKED: ATOM     28  C   UNL     1      25.252  -8.382  -7.281 -0.22 -0.00    +0.000 A 
DOCKED: ATOM     29  C   UNL     1      26.548  -7.976  -6.915 -0.26 -0.00    +0.000 A 
DOCKED: ATOM     30  C   UNL     1      27.644  -8.852  -7.073 -0.38 -0.00    +0.000 A 
DOCKED: ATOM     31  C   UNL     1      27.455 -10.142  -7.600 -0.42 -0.00    +0.000 A 
DOCKED: ATOM     32  H   UNL     1      26.341 -12.460  -8.705 -0.30 -0.00    +0.000 HD
DOCKED: ENDBRANCH  22  23
DOCKED: ENDBRANCH  21  22
DOCKED: ENDBRANCH   1  21
DOCKED: TORSDOF 10
DOCKED: TER
DOCKED: ENDMDL
________________________________________________________________________________


	BEGINNING GENETIC ALGORITHM DOCKING 73 of 100
Run: 73 Seed: 473905813 442753677 [ Run 73 of 100 GA/GALS ]
Beginning LAMARCKIAN GENETIC ALGORITHM (LGA), with a maximum of 2500000 energy evaluations.

Final-Value: -14.340


	FINAL GENETIC ALGORITHM DOCKED STATE
	_______________________________________________


Detailed state:  trans 20.465 -10.562 -7.642 quatxyzw 0.530045 -0.645973 0.526010 -0.158380 center 0.288 0.007 -0.056 ntor 10 146.8351 -39.6562 74.5931 180.0000 -1.7998 -26.6028 163.8004 -177.2510 180.0000 34.9508
State:	 20.465 -10.562  -7.642   0.537 -0.654  0.533 -161.774    146.84  -39.66   74.59  180.00   -1.80  -26.60  163.80 -177.25  180.00   34.95

DOCKED: MODEL       73
DOCKED: USER    Run = 73
DOCKED: USER    DPF = ligand_dock.biased.dpf
DOCKED: USER  
DOCKED: USER    Estimated Free Energy of Binding    =   -8.80 kcal/mol  [=(1)+(2)+(3)-(4)]
DOCKED: USER    Estimated Inhibition Constant, Ki   =  355.07 nM (nanomolar)  [Temperature = 298.15 K]
DOCKED: USER    
DOCKED: USER    (1) Final Intermolecular Energy     =  -11.78 kcal/mol
DOCKED: USER        vdW + Hbond + desolv Energy     =  -11.78 kcal/mol
DOCKED: USER        Electrostatic Energy            =   +0.00 kcal/mol
DOCKED: USER    (2) Final Total Internal Energy     =   -2.56 kcal/mol
DOCKED: USER    (3) Torsional Free Energy           =   +2.98 kcal/mol
DOCKED: USER    (4) Unbound System's Energy  [=(2)] =   -2.56 kcal/mol
DOCKED: USER    
DOCKED: USER    
DOCKED: USER    NEWDPF move ligand.pdbqt
DOCKED: USER    NEWDPF about 0.288000 0.007000 -0.056000
DOCKED: USER    NEWDPF tran0 20.465132 -10.562303 -7.642365
DOCKED: USER    NEWDPF quaternion0 0.530045 -0.645973 0.526010 -0.158380
DOCKED: USER    NEWDPF axisangle0 0.536820 -0.654231 0.532735 -161.774225
DOCKED: USER    NEWDPF quat0 0.536820 -0.654231 0.532735 -161.774225
DOCKED: USER    NEWDPF dihe0 146.84 -39.66 74.59 180.00 -1.80 -26.60 163.80 -177.25 180.00 34.95 
DOCKED: USER  keepresnum = 1 
DOCKED: USER  
DOCKED: REMARK  Name = 
DOCKED: REMARK  10 active torsions:
DOCKED: REMARK  status: ('A' for Active; 'I' for Inactive)
DOCKED: REMARK    1  A    between atoms: C_2  and  C_5
DOCKED: REMARK    2  A    between atoms: C_6  and  C_7
DOCKED: REMARK    3  A    between atoms: C_10  and  C_11
DOCKED: REMARK    4  A    between atoms: C_11  and  N_12
DOCKED: REMARK    5  A    between atoms: N_12  and  C_13
DOCKED: REMARK    6  A    between atoms: N_12  and  C_16
DOCKED: REMARK    7  A    between atoms: C_13  and  C_14
DOCKED: REMARK    8  A    between atoms: C_14  and  O_15
DOCKED: REMARK    9  A    between atoms: C_16  and  C_17
DOCKED: REMARK   10  A    between atoms: C_17  and  C_18
DOCKED: REMARK                            x       y       z     vdW  Elec       q    Type
DOCKED: REMARK                         _______ _______ _______ _____ _____    ______ ____
DOCKED: USER                              x       y       z     vdW  Elec       q    Type
DOCKED: USER                           _______ _______ _______ _____ _____    ______ ____
DOCKED: ROOT
DOCKED: ATOM      1  N   UNL     1      21.229  -9.854  -8.478 -0.17 -0.00    +0.000 N 
DOCKED: ATOM      2  H   UNL     1      21.193  -9.187  -9.248 +0.00 -0.00    +0.000 HD
DOCKED: ENDROOT
DOCKED: BRANCH   1   3
DOCKED: ATOM      3  C   UNL     1      19.931  -9.658  -7.782 -0.20 -0.00    +0.000 C 
DOCKED: BRANCH   3   7
DOCKED: ATOM      4  C   UNL     1      20.070 -10.544  -3.533 -0.41 -0.00    +0.000 A 
DOCKED: ATOM      5  C   UNL     1      19.797 -11.556  -4.466 -0.44 -0.00    +0.000 A 
DOCKED: ATOM      6  C   UNL     1      19.755 -11.271  -5.833 -0.37 -0.00    +0.000 A 
DOCKED: ATOM      7  C   UNL     1      19.957  -9.962  -6.297 -0.23 -0.00    +0.000 A 
DOCKED: ATOM      8  C   UNL     1      20.244  -8.949  -5.366 -0.19 -0.00    +0.000 A 
DOCKED: ATOM      9  C   UNL     1      20.287  -9.232  -3.997 -0.31 -0.00    +0.000 A 
DOCKED: BRANCH   4  11
DOCKED: ATOM     10  C   UNL     1      20.740 -10.181  -1.159 -0.63 -0.00    +0.000 C 
DOCKED: ATOM     11  C   UNL     1      20.092 -10.895  -2.090 -0.42 -0.00    +0.000 C 
DOCKED: BRANCH  10  13
DOCKED: ATOM     12  O   UNL     1      21.385  -9.890   1.114 -0.48 -0.00    +0.000 OA
DOCKED: ATOM     13  C   UNL     1      20.747 -10.569   0.265 -0.69 -0.00    +0.000 C 
DOCKED: ATOM     14  N   UNL     1      20.024 -11.728   0.687 -0.61 -0.00    +0.000 N 
DOCKED: ATOM     15  O   UNL     1      20.021 -12.098   1.990 -1.82 -0.00    +0.000 OA
DOCKED: ATOM     16  H   UNL     1      19.525 -12.261   0.026 -0.11 -0.00    +0.000 HD
DOCKED: ENDBRANCH  10  13
DOCKED: ENDBRANCH   4  11
DOCKED: ENDBRANCH   3   7
DOCKED: ENDBRANCH   1   3
DOCKED: BRANCH   1  17
DOCKED: ATOM     17  C   UNL     1      21.391 -11.169  -9.141 -0.17 -0.00    +0.000 C 
DOCKED: BRANCH  17  18
DOCKED: ATOM     18  C   UNL     1      22.198 -11.052 -10.436 -0.19 -0.00    +0.000 C 
DOCKED: BRANCH  18  19
DOCKED: ATOM     19  O   UNL     1      22.858  -9.816 -10.477 -0.08 -0.00    +0.000 OA
DOCKED: ATOM     20  H   UNL     1      23.711  -9.890 -10.022 +0.01 -0.00    +0.000 HD
DOCKED: ENDBRANCH  18  19
DOCKED: ENDBRANCH  17  18
DOCKED: ENDBRANCH   1  17
DOCKED: BRANCH   1  21
DOCKED: ATOM     21  C   UNL     1      22.403  -9.473  -7.658 -0.22 -0.00    +0.000 C 
DOCKED: BRANCH  21  22
DOCKED: ATOM     22  C   UNL     1      22.978 -10.699  -6.940 -0.38 -0.00    +0.000 C 
DOCKED: BRANCH  22  23
DOCKED: ATOM     23  C   UNL     1      24.219 -11.190  -7.628 -0.39 -0.00    +0.000 A 
DOCKED: ATOM     24  C   UNL     1      24.337 -12.350  -8.385 -0.41 -0.00    +0.000 A 
DOCKED: ATOM     25  N   UNL     1      25.555 -12.415  -8.968 -0.41 -0.00    +0.000 N 
DOCKED: ATOM     26  C   UNL     1      26.203 -11.296  -8.598 -0.34 -0.00    +0.000 A 
DOCKED: ATOM     27  C   UNL     1      25.419 -10.520  -7.782 -0.32 -0.00    +0.000 A 
DOCKED: ATOM     28  C   UNL     1      25.861  -9.289  -7.295 -0.30 -0.00    +0.000 A 
DOCKED: ATOM     29  C   UNL     1      27.148  -8.860  -7.665 -0.29 -0.00    +0.000 A 
DOCKED: ATOM     30  C   UNL     1      27.955  -9.659  -8.504 -0.31 -0.00    +0.000 A 
DOCKED: ATOM     31  C   UNL     1      27.482 -10.894  -8.983 -0.33 -0.00    +0.000 A 
DOCKED: ATOM     32  H   UNL     1      25.899 -13.133  -9.545 -0.59 -0.00    +0.000 HD
DOCKED: ENDBRANCH  22  23
DOCKED: ENDBRANCH  21  22
DOCKED: ENDBRANCH   1  21
DOCKED: TORSDOF 10
DOCKED: TER
DOCKED: ENDMDL
________________________________________________________________________________


	BEGINNING GENETIC ALGORITHM DOCKING 74 of 100
Run: 74 Seed: 636805429 251413444 [ Run 74 of 100 GA/GALS ]
Beginning LAMARCKIAN GENETIC ALGORITHM (LGA), with a maximum of 2500000 energy evaluations.

Final-Value: -12.907


	FINAL GENETIC ALGORITHM DOCKED STATE
	_______________________________________________


Detailed state:  trans 15.747 -9.606 -3.020 quatxyzw -0.046082 0.245194 -0.026910 -0.968004 center 0.288 0.007 -0.056 ntor 10 99.9886 -7.9441 28.6749 163.1309 0.3500 137.8809 137.0706 -150.4208 -5.1879 8.1380
State:	 15.747  -9.606  -3.020  -0.184  0.977 -0.107 -29.066     99.99   -7.94   28.67  163.13    0.35  137.88  137.07 -150.42   -5.19    8.14

DOCKED: MODEL       74
DOCKED: USER    Run = 74
DOCKED: USER    DPF = ligand_dock.biased.dpf
DOCKED: USER  
DOCKED: USER    Estimated Free Energy of Binding    =   -7.63 kcal/mol  [=(1)+(2)+(3)-(4)]
DOCKED: USER    Estimated Inhibition Constant, Ki   =    2.56 uM (micromolar)  [Temperature = 298.15 K]
DOCKED: USER    
DOCKED: USER    (1) Final Intermolecular Energy     =  -10.61 kcal/mol
DOCKED: USER        vdW + Hbond + desolv Energy     =  -10.61 kcal/mol
DOCKED: USER        Electrostatic Energy            =   +0.00 kcal/mol
DOCKED: USER    (2) Final Total Internal Energy     =   -2.30 kcal/mol
DOCKED: USER    (3) Torsional Free Energy           =   +2.98 kcal/mol
DOCKED: USER    (4) Unbound System's Energy  [=(2)] =   -2.30 kcal/mol
DOCKED: USER    
DOCKED: USER    
DOCKED: USER    NEWDPF move ligand.pdbqt
DOCKED: USER    NEWDPF about 0.288000 0.007000 -0.056000
DOCKED: USER    NEWDPF tran0 15.747280 -9.606210 -3.020260
DOCKED: USER    NEWDPF quaternion0 -0.046082 0.245194 -0.026910 -0.968004
DOCKED: USER    NEWDPF axisangle0 -0.183642 0.977126 -0.107239 -29.065594
DOCKED: USER    NEWDPF quat0 -0.183642 0.977126 -0.107239 -29.065594
DOCKED: USER    NEWDPF dihe0 99.99 -7.94 28.67 163.13 0.35 137.88 137.07 -150.42 -5.19 8.14 
DOCKED: USER  keepresnum = 1 
DOCKED: USER  
DOCKED: REMARK  Name = 
DOCKED: REMARK  10 active torsions:
DOCKED: REMARK  status: ('A' for Active; 'I' for Inactive)
DOCKED: REMARK    1  A    between atoms: C_2  and  C_5
DOCKED: REMARK    2  A    between atoms: C_6  and  C_7
DOCKED: REMARK    3  A    between atoms: C_10  and  C_11
DOCKED: REMARK    4  A    between atoms: C_11  and  N_12
DOCKED: REMARK    5  A    between atoms: N_12  and  C_13
DOCKED: REMARK    6  A    between atoms: N_12  and  C_16
DOCKED: REMARK    7  A    between atoms: C_13  and  C_14
DOCKED: REMARK    8  A    between atoms: C_14  and  O_15
DOCKED: REMARK    9  A    between atoms: C_16  and  C_17
DOCKED: REMARK   10  A    between atoms: C_17  and  C_18
DOCKED: REMARK                            x       y       z     vdW  Elec       q    Type
DOCKED: REMARK                         _______ _______ _______ _____ _____    ______ ____
DOCKED: USER                              x       y       z     vdW  Elec       q    Type
DOCKED: USER                           _______ _______ _______ _____ _____    ______ ____
DOCKED: ROOT
DOCKED: ATOM      1  N   UNL     1      14.597  -9.812  -2.374 -0.21 -0.00    +0.000 N 
DOCKED: ATOM      2  H   UNL     1      13.670  -9.418  -2.215 +0.00 -0.00    +0.000 HD
DOCKED: ENDROOT
DOCKED: BRANCH   1   3
DOCKED: ATOM      3  C   UNL     1      15.007  -9.228  -3.678 -0.19 -0.00    +0.000 C 
DOCKED: BRANCH   3   7
DOCKED: ATOM      4  C   UNL     1      18.864 -10.538  -5.184 -0.31 -0.00    +0.000 A 
DOCKED: ATOM      5  C   UNL     1      17.700 -11.271  -5.464 -0.23 -0.00    +0.000 A 
DOCKED: ATOM      6  C   UNL     1      16.459 -10.847  -4.982 -0.18 -0.00    +0.000 A 
DOCKED: ATOM      7  C   UNL     1      16.357  -9.697  -4.184 -0.20 -0.00    +0.000 A 
DOCKED: ATOM      8  C   UNL     1      17.518  -8.954  -3.913 -0.13 -0.00    +0.000 A 
DOCKED: ATOM      9  C   UNL     1      18.761  -9.375  -4.396 -0.22 -0.00    +0.000 A 
DOCKED: BRANCH   4  11
DOCKED: ATOM     10  C   UNL     1      21.248 -10.267  -5.860 -0.38 -0.00    +0.000 C 
DOCKED: ATOM     11  C   UNL     1      20.160 -11.036  -5.710 -0.42 -0.00    +0.000 C 
DOCKED: BRANCH  10  13
DOCKED: ATOM     12  O   UNL     1      23.402 -10.018  -6.844 -0.34 -0.00    +0.000 OA
DOCKED: ATOM     13  C   UNL     1      22.517 -10.797  -6.397 -0.41 -0.00    +0.000 C 
DOCKED: ATOM     14  N   UNL     1      22.745 -12.208  -6.413 -0.54 -0.00    +0.000 N 
DOCKED: ATOM     15  O   UNL     1      23.903 -12.711  -6.902 -1.12 +0.00    +0.000 OA
DOCKED: ATOM     16  H   UNL     1      22.055 -12.820  -6.065 -0.58 -0.00    +0.000 HD
DOCKED: ENDBRANCH  10  13
DOCKED: ENDBRANCH   4  11
DOCKED: ENDBRANCH   3   7
DOCKED: ENDBRANCH   1   3
DOCKED: BRANCH   1  17
DOCKED: ATOM     17  C   UNL     1      15.391  -9.361  -1.208 -0.23 -0.00    +0.000 C 
DOCKED: BRANCH  17  18
DOCKED: ATOM     18  C   UNL     1      14.673  -8.254  -0.431 -0.23 -0.00    +0.000 C 
DOCKED: BRANCH  18  19
DOCKED: ATOM     19  O   UNL     1      13.335  -8.610  -0.222 -0.16 -0.00    +0.000 OA
DOCKED: ATOM     20  H   UNL     1      13.281  -9.555  -0.011 +0.01 +0.00    +0.000 HD
DOCKED: ENDBRANCH  18  19
DOCKED: ENDBRANCH  17  18
DOCKED: ENDBRANCH   1  17
DOCKED: BRANCH   1  21
DOCKED: ATOM     21  C   UNL     1      14.418 -11.283  -2.416 -0.35 -0.00    +0.000 C 
DOCKED: BRANCH  21  22
DOCKED: ATOM     22  C   UNL     1      15.337 -11.965  -1.397 -0.25 +0.00    +0.000 C 
DOCKED: BRANCH  22  23
DOCKED: ATOM     23  C   UNL     1      14.802 -11.807  -0.003 -0.39 +0.00    +0.000 A 
DOCKED: ATOM     24  C   UNL     1      13.543 -12.195   0.444 -0.32 +0.00    +0.000 A 
DOCKED: ATOM     25  N   UNL     1      13.444 -12.029   1.782 -0.42 +0.00    +0.000 N 
DOCKED: ATOM     26  C   UNL     1      14.636 -11.555   2.187 -0.43 +0.00    +0.000 A 
DOCKED: ATOM     27  C   UNL     1      15.493 -11.409   1.126 -0.36 +0.00    +0.000 A 
DOCKED: ATOM     28  C   UNL     1      16.804 -10.963   1.299 -0.36 +0.00    +0.000 A 
DOCKED: ATOM     29  C   UNL     1      17.228 -10.661   2.606 -0.43 +0.00    +0.000 A 
DOCKED: ATOM     30  C   UNL     1      16.345 -10.811   3.697 -0.44 +0.00    +0.000 A 
DOCKED: ATOM     31  C   UNL     1      15.030 -11.266   3.493 -0.43 +0.00    +0.000 A 
DOCKED: ATOM     32  H   UNL     1      12.660 -12.217   2.347 -0.35 +0.00    +0.000 HD
DOCKED: ENDBRANCH  22  23
DOCKED: ENDBRANCH  21  22
DOCKED: ENDBRANCH   1  21
DOCKED: TORSDOF 10
DOCKED: TER
DOCKED: ENDMDL
________________________________________________________________________________


	BEGINNING GENETIC ALGORITHM DOCKING 75 of 100
Run: 75 Seed: 970877653 759592812 [ Run 75 of 100 GA/GALS ]
Beginning LAMARCKIAN GENETIC ALGORITHM (LGA), with a maximum of 2500000 energy evaluations.

Final-Value: -13.948


	FINAL GENETIC ALGORITHM DOCKED STATE
	_______________________________________________


Detailed state:  trans 19.476 -9.938 -8.357 quatxyzw 0.195555 -0.927126 -0.310908 0.074376 center 0.288 0.007 -0.056 ntor 10 15.7126 -55.5890 22.3898 41.0278 -86.0458 -15.2629 -147.4637 -95.4112 32.1490 166.8408
State:	 19.476  -9.938  -8.357   0.196 -0.930 -0.312 171.469     15.71  -55.59   22.39   41.03  -86.05  -15.26 -147.46  -95.41   32.15  166.84

DOCKED: MODEL       75
DOCKED: USER    Run = 75
DOCKED: USER    DPF = ligand_dock.biased.dpf
DOCKED: USER  
DOCKED: USER    Estimated Free Energy of Binding    =   -8.80 kcal/mol  [=(1)+(2)+(3)-(4)]
DOCKED: USER    Estimated Inhibition Constant, Ki   =  356.78 nM (nanomolar)  [Temperature = 298.15 K]
DOCKED: USER    
DOCKED: USER    (1) Final Intermolecular Energy     =  -11.78 kcal/mol
DOCKED: USER        vdW + Hbond + desolv Energy     =  -11.78 kcal/mol
DOCKED: USER        Electrostatic Energy            =   +0.00 kcal/mol
DOCKED: USER    (2) Final Total Internal Energy     =   -2.17 kcal/mol
DOCKED: USER    (3) Torsional Free Energy           =   +2.98 kcal/mol
DOCKED: USER    (4) Unbound System's Energy  [=(2)] =   -2.17 kcal/mol
DOCKED: USER    
DOCKED: USER    
DOCKED: USER    NEWDPF move ligand.pdbqt
DOCKED: USER    NEWDPF about 0.288000 0.007000 -0.056000
DOCKED: USER    NEWDPF tran0 19.475596 -9.938489 -8.356564
DOCKED: USER    NEWDPF quaternion0 0.195555 -0.927126 -0.310908 0.074376
DOCKED: USER    NEWDPF axisangle0 0.196099 -0.929701 -0.311772 171.469297
DOCKED: USER    NEWDPF quat0 0.196099 -0.929701 -0.311772 171.469297
DOCKED: USER    NEWDPF dihe0 15.71 -55.59 22.39 41.03 -86.05 -15.26 -147.46 -95.41 32.15 166.84 
DOCKED: USER  keepresnum = 1 
DOCKED: USER  
DOCKED: REMARK  Name = 
DOCKED: REMARK  10 active torsions:
DOCKED: REMARK  status: ('A' for Active; 'I' for Inactive)
DOCKED: REMARK    1  A    between atoms: C_2  and  C_5
DOCKED: REMARK    2  A    between atoms: C_6  and  C_7
DOCKED: REMARK    3  A    between atoms: C_10  and  C_11
DOCKED: REMARK    4  A    between atoms: C_11  and  N_12
DOCKED: REMARK    5  A    between atoms: N_12  and  C_13
DOCKED: REMARK    6  A    between atoms: N_12  and  C_16
DOCKED: REMARK    7  A    between atoms: C_13  and  C_14
DOCKED: REMARK    8  A    between atoms: C_14  and  O_15
DOCKED: REMARK    9  A    between atoms: C_16  and  C_17
DOCKED: REMARK   10  A    between atoms: C_17  and  C_18
DOCKED: REMARK                            x       y       z     vdW  Elec       q    Type
DOCKED: REMARK                         _______ _______ _______ _____ _____    ______ ____
DOCKED: USER                              x       y       z     vdW  Elec       q    Type
DOCKED: USER                           _______ _______ _______ _____ _____    ______ ____
DOCKED: ROOT
DOCKED: ATOM      1  N   UNL     1      20.787  -9.749  -8.187 -0.17 -0.00    +0.000 N 
DOCKED: ATOM      2  H   UNL     1      21.478  -9.370  -7.541 +0.00 -0.00    +0.000 HD
DOCKED: ENDROOT
DOCKED: BRANCH   1   3
DOCKED: ATOM      3  C   UNL     1      19.624 -10.059  -7.314 -0.25 -0.00    +0.000 C 
DOCKED: BRANCH   3   7
DOCKED: ATOM      4  C   UNL     1      20.524 -10.437  -3.082 -0.45 -0.00    +0.000 A 
DOCKED: ATOM      5  C   UNL     1      19.548  -9.533  -3.528 -0.29 -0.00    +0.000 A 
DOCKED: ATOM      6  C   UNL     1      19.256  -9.414  -4.889 -0.21 -0.00    +0.000 A 
DOCKED: ATOM      7  C   UNL     1      19.955 -10.175  -5.839 -0.27 -0.00    +0.000 A 
DOCKED: ATOM      8  C   UNL     1      20.924 -11.090  -5.395 -0.44 -0.00    +0.000 A 
DOCKED: ATOM      9  C   UNL     1      21.216 -11.212  -4.033 -0.30 -0.00    +0.000 A 
DOCKED: BRANCH   4  11
DOCKED: ATOM     10  C   UNL     1      19.978 -11.090  -0.739 -0.45 -0.00    +0.000 C 
DOCKED: ATOM     11  C   UNL     1      20.804 -10.519  -1.626 -0.59 -0.00    +0.000 C 
DOCKED: BRANCH  10  13
DOCKED: ATOM     12  O   UNL     1      20.820 -10.156   1.283 -0.70 -0.00    +0.000 OA
DOCKED: ATOM     13  C   UNL     1      20.288 -11.142   0.703 -0.70 -0.00    +0.000 C 
DOCKED: ATOM     14  N   UNL     1      19.986 -12.322   1.451 -0.69 -0.00    +0.000 N 
DOCKED: ATOM     15  O   UNL     1      20.265 -12.386   2.775 -1.82 -0.00    +0.000 OA
DOCKED: ATOM     16  H   UNL     1      19.571 -13.094   1.001 -0.52 -0.00    +0.000 HD
DOCKED: ENDBRANCH  10  13
DOCKED: ENDBRANCH   4  11
DOCKED: ENDBRANCH   3   7
DOCKED: ENDBRANCH   1   3
DOCKED: BRANCH   1  17
DOCKED: ATOM     17  C   UNL     1      20.562  -8.659  -9.164 -0.08 -0.00    +0.000 C 
DOCKED: BRANCH  17  18
DOCKED: ATOM     18  C   UNL     1      21.006  -7.303  -8.608 -0.04 -0.00    +0.000 C 
DOCKED: BRANCH  18  19
DOCKED: ATOM     19  O   UNL     1      21.495  -7.460  -7.305 -0.08 -0.00    +0.000 OA
DOCKED: ATOM     20  H   UNL     1      20.899  -8.038  -6.804 +0.00 -0.00    +0.000 HD
DOCKED: ENDBRANCH  18  19
DOCKED: ENDBRANCH  17  18
DOCKED: ENDBRANCH   1  17
DOCKED: BRANCH   1  21
DOCKED: ATOM     21  C   UNL     1      21.406 -10.950  -8.794 -0.24 -0.00    +0.000 C 
DOCKED: BRANCH  21  22
DOCKED: ATOM     22  C   UNL     1      22.544 -10.548  -9.739 -0.18 -0.00    +0.000 C 
DOCKED: BRANCH  22  23
DOCKED: ATOM     23  C   UNL     1      23.585 -11.627  -9.815 -0.22 -0.00    +0.000 A 
DOCKED: ATOM     24  C   UNL     1      24.769 -11.681  -9.088 -0.34 -0.00    +0.000 A 
DOCKED: ATOM     25  N   UNL     1      25.404 -12.855  -9.303 -0.37 -0.00    +0.000 N 
DOCKED: ATOM     26  C   UNL     1      24.623 -13.550 -10.149 -0.34 -0.00    +0.000 A 
DOCKED: ATOM     27  C   UNL     1      23.501 -12.835 -10.482 -0.28 -0.00    +0.000 A 
DOCKED: ATOM     28  C   UNL     1      22.518 -13.361 -11.322 -0.26 -0.00    +0.000 A 
DOCKED: ATOM     29  C   UNL     1      22.713 -14.659 -11.827 -0.33 +0.00    +0.000 A 
DOCKED: ATOM     30  C   UNL     1      23.869 -15.395 -11.485 -0.27 +0.00    +0.000 A 
DOCKED: ATOM     31  C   UNL     1      24.840 -14.840 -10.632 -0.35 -0.00    +0.000 A 
DOCKED: ATOM     32  H   UNL     1      26.264 -13.143  -8.920 -0.56 -0.00    +0.000 HD
DOCKED: ENDBRANCH  22  23
DOCKED: ENDBRANCH  21  22
DOCKED: ENDBRANCH   1  21
DOCKED: TORSDOF 10
DOCKED: TER
DOCKED: ENDMDL
________________________________________________________________________________


	BEGINNING GENETIC ALGORITHM DOCKING 76 of 100
Run: 76 Seed: 513637414 1003914799 [ Run 76 of 100 GA/GALS ]
Beginning LAMARCKIAN GENETIC ALGORITHM (LGA), with a maximum of 2500000 energy evaluations.

Final-Value: -14.550


	FINAL GENETIC ALGORITHM DOCKED STATE
	_______________________________________________


Detailed state:  trans 17.647 -10.063 1.405 quatxyzw 0.210882 -0.191938 -0.623666 0.727825 center 0.288 0.007 -0.056 ntor 10 159.1894 -18.7214 6.2898 177.9140 88.9447 126.4321 159.2269 64.6352 10.5835 -131.5029
State:	 17.647 -10.063   1.405   0.308 -0.280 -0.909 86.591    159.19  -18.72    6.29  177.91   88.94  126.43  159.23   64.64   10.58 -131.50

DOCKED: MODEL       76
DOCKED: USER    Run = 76
DOCKED: USER    DPF = ligand_dock.biased.dpf
DOCKED: USER  
DOCKED: USER    Estimated Free Energy of Binding    =   -9.17 kcal/mol  [=(1)+(2)+(3)-(4)]
DOCKED: USER    Estimated Inhibition Constant, Ki   =  189.23 nM (nanomolar)  [Temperature = 298.15 K]
DOCKED: USER    
DOCKED: USER    (1) Final Intermolecular Energy     =  -12.15 kcal/mol
DOCKED: USER        vdW + Hbond + desolv Energy     =  -12.15 kcal/mol
DOCKED: USER        Electrostatic Energy            =   +0.00 kcal/mol
DOCKED: USER    (2) Final Total Internal Energy     =   -2.40 kcal/mol
DOCKED: USER    (3) Torsional Free Energy           =   +2.98 kcal/mol
DOCKED: USER    (4) Unbound System's Energy  [=(2)] =   -2.40 kcal/mol
DOCKED: USER    
DOCKED: USER    
DOCKED: USER    NEWDPF move ligand.pdbqt
DOCKED: USER    NEWDPF about 0.288000 0.007000 -0.056000
DOCKED: USER    NEWDPF tran0 17.646664 -10.063131 1.404509
DOCKED: USER    NEWDPF quaternion0 0.210882 -0.191938 -0.623666 0.727825
DOCKED: USER    NEWDPF axisangle0 0.307514 -0.279890 -0.909449 86.591237
DOCKED: USER    NEWDPF quat0 0.307514 -0.279890 -0.909449 86.591237
DOCKED: USER    NEWDPF dihe0 159.19 -18.72 6.29 177.91 88.94 126.43 159.23 64.64 10.58 -131.50 
DOCKED: USER  keepresnum = 1 
DOCKED: USER  
DOCKED: REMARK  Name = 
DOCKED: REMARK  10 active torsions:
DOCKED: REMARK  status: ('A' for Active; 'I' for Inactive)
DOCKED: REMARK    1  A    between atoms: C_2  and  C_5
DOCKED: REMARK    2  A    between atoms: C_6  and  C_7
DOCKED: REMARK    3  A    between atoms: C_10  and  C_11
DOCKED: REMARK    4  A    between atoms: C_11  and  N_12
DOCKED: REMARK    5  A    between atoms: N_12  and  C_13
DOCKED: REMARK    6  A    between atoms: N_12  and  C_16
DOCKED: REMARK    7  A    between atoms: C_13  and  C_14
DOCKED: REMARK    8  A    between atoms: C_14  and  O_15
DOCKED: REMARK    9  A    between atoms: C_16  and  C_17
DOCKED: REMARK   10  A    between atoms: C_17  and  C_18
DOCKED: REMARK                            x       y       z     vdW  Elec       q    Type
DOCKED: REMARK                         _______ _______ _______ _____ _____    ______ ____
DOCKED: USER                              x       y       z     vdW  Elec       q    Type
DOCKED: USER                           _______ _______ _______ _____ _____    ______ ____
DOCKED: ROOT
DOCKED: ATOM      1  N   UNL     1      17.755 -11.178   2.131 -0.45 +0.00    +0.000 N 
DOCKED: ATOM      2  H   UNL     1      17.270 -12.041   2.377 -0.01 +0.00    +0.000 HD
DOCKED: ENDROOT
DOCKED: BRANCH   1   3
DOCKED: ATOM      3  C   UNL     1      17.160 -10.803   0.822 -0.40 +0.00    +0.000 C 
DOCKED: BRANCH   3   7
DOCKED: ATOM      4  C   UNL     1      12.854 -11.280   0.522 -0.35 +0.00    +0.000 A 
DOCKED: ATOM      5  C   UNL     1      13.422 -10.009   0.700 -0.19 +0.00    +0.000 A 
DOCKED: ATOM      6  C   UNL     1      14.808  -9.856   0.794 -0.24 +0.00    +0.000 A 
DOCKED: ATOM      7  C   UNL     1      15.656 -10.973   0.740 -0.31 +0.00    +0.000 A 
DOCKED: ATOM      8  C   UNL     1      15.090 -12.245   0.548 -0.44 +0.00    +0.000 A 
DOCKED: ATOM      9  C   UNL     1      13.704 -12.401   0.453 -0.28 +0.00    +0.000 A 
DOCKED: BRANCH   4  11
DOCKED: ATOM     10  C   UNL     1      10.619 -11.979   1.377 -0.45 +0.00    +0.000 C 
DOCKED: ATOM     11  C   UNL     1      11.376 -11.391   0.439 -0.36 +0.00    +0.000 C 
DOCKED: BRANCH  10  13
DOCKED: ATOM     12  O   UNL     1       8.473 -12.693   2.120 -0.50 +0.00    +0.000 OA
DOCKED: ATOM     13  C   UNL     1       9.151 -12.079   1.253 -0.40 +0.00    +0.000 C 
DOCKED: ATOM     14  N   UNL     1       8.492 -11.476   0.137 -0.26 -0.00    +0.000 N 
DOCKED: ATOM     15  O   UNL     1       7.146 -11.559   0.009 -0.23 -0.00    +0.000 OA
DOCKED: ATOM     16  H   UNL     1       9.019 -10.996  -0.543 -0.02 -0.00    +0.000 HD
DOCKED: ENDBRANCH  10  13
DOCKED: ENDBRANCH   4  11
DOCKED: ENDBRANCH   3   7
DOCKED: ENDBRANCH   1   3
DOCKED: BRANCH   1  17
DOCKED: ATOM     17  C   UNL     1      17.447 -10.254   3.247 -0.35 +0.00    +0.000 C 
DOCKED: BRANCH  17  18
DOCKED: ATOM     18  C   UNL     1      16.023 -10.459   3.771 -0.50 +0.00    +0.000 C 
DOCKED: BRANCH  18  19
DOCKED: ATOM     19  O   UNL     1      15.689 -11.818   3.725 -0.54 +0.00    +0.000 OA
DOCKED: ATOM     20  H   UNL     1      15.807 -12.210   4.604 -0.50 +0.00    +0.000 HD
DOCKED: ENDBRANCH  18  19
DOCKED: ENDBRANCH  17  18
DOCKED: ENDBRANCH   1  17
DOCKED: BRANCH   1  21
DOCKED: ATOM     21  C   UNL     1      19.194 -11.524   2.049 -0.67 -0.00    +0.000 C 
DOCKED: BRANCH  21  22
DOCKED: ATOM     22  C   UNL     1      19.561 -11.959   0.626 -0.62 -0.00    +0.000 C 
DOCKED: BRANCH  22  23
DOCKED: ATOM     23  C   UNL     1      20.175 -10.823  -0.140 -0.55 -0.00    +0.000 A 
DOCKED: ATOM     24  C   UNL     1      21.151  -9.949   0.326 -0.56 -0.00    +0.000 A 
DOCKED: ATOM     25  N   UNL     1      21.571  -9.134  -0.668 -0.57 -0.00    +0.000 N 
DOCKED: ATOM     26  C   UNL     1      20.880  -9.498  -1.763 -0.52 -0.00    +0.000 A 
DOCKED: ATOM     27  C   UNL     1      20.020 -10.529  -1.482 -0.46 -0.00    +0.000 A 
DOCKED: ATOM     28  C   UNL     1      19.217 -11.104  -2.468 -0.32 -0.00    +0.000 A 
DOCKED: ATOM     29  C   UNL     1      19.312 -10.590  -3.774 -0.36 -0.00    +0.000 A 
DOCKED: ATOM     30  C   UNL     1      20.198  -9.529  -4.063 -0.31 -0.00    +0.000 A 
DOCKED: ATOM     31  C   UNL     1      20.998  -8.972  -3.049 -0.41 -0.00    +0.000 A 
DOCKED: ATOM     32  H   UNL     1      22.246  -8.420  -0.605 -0.02 -0.00    +0.000 HD
DOCKED: ENDBRANCH  22  23
DOCKED: ENDBRANCH  21  22
DOCKED: ENDBRANCH   1  21
DOCKED: TORSDOF 10
DOCKED: TER
DOCKED: ENDMDL
________________________________________________________________________________


	BEGINNING GENETIC ALGORITHM DOCKING 77 of 100
Run: 77 Seed: 482681313 1610430860 [ Run 77 of 100 GA/GALS ]
Beginning LAMARCKIAN GENETIC ALGORITHM (LGA), with a maximum of 2500000 energy evaluations.

Final-Value: -16.396


	FINAL GENETIC ALGORITHM DOCKED STATE
	_______________________________________________


Detailed state:  trans 21.684 -9.170 -6.587 quatxyzw -0.799589 -0.482028 -0.051558 0.354468 center 0.288 0.007 -0.056 ntor 10 143.8425 -2.1839 -11.1703 173.0907 -154.8632 -109.6603 170.4633 -82.3807 -73.9611 -179.6409
State:	 21.684  -9.170  -6.587  -0.855 -0.516 -0.055 138.478    143.84   -2.18  -11.17  173.09 -154.86 -109.66  170.46  -82.38  -73.96 -179.64

DOCKED: MODEL       77
DOCKED: USER    Run = 77
DOCKED: USER    DPF = ligand_dock.biased.dpf
DOCKED: USER  
DOCKED: USER    Estimated Free Energy of Binding    =  -10.92 kcal/mol  [=(1)+(2)+(3)-(4)]
DOCKED: USER    Estimated Inhibition Constant, Ki   =    9.82 nM (nanomolar)  [Temperature = 298.15 K]
DOCKED: USER    
DOCKED: USER    (1) Final Intermolecular Energy     =  -13.91 kcal/mol
DOCKED: USER        vdW + Hbond + desolv Energy     =  -13.91 kcal/mol
DOCKED: USER        Electrostatic Energy            =   +0.00 kcal/mol
DOCKED: USER    (2) Final Total Internal Energy     =   -2.49 kcal/mol
DOCKED: USER    (3) Torsional Free Energy           =   +2.98 kcal/mol
DOCKED: USER    (4) Unbound System's Energy  [=(2)] =   -2.49 kcal/mol
DOCKED: USER    
DOCKED: USER    
DOCKED: USER    NEWDPF move ligand.pdbqt
DOCKED: USER    NEWDPF about 0.288000 0.007000 -0.056000
DOCKED: USER    NEWDPF tran0 21.683521 -9.169897 -6.587325
DOCKED: USER    NEWDPF quaternion0 -0.799589 -0.482028 -0.051558 0.354468
DOCKED: USER    NEWDPF axisangle0 -0.855114 -0.515500 -0.055138 138.478284
DOCKED: USER    NEWDPF quat0 -0.855114 -0.515500 -0.055138 138.478284
DOCKED: USER    NEWDPF dihe0 143.84 -2.18 -11.17 173.09 -154.86 -109.66 170.46 -82.38 -73.96 -179.64 
DOCKED: USER  keepresnum = 1 
DOCKED: USER  
DOCKED: REMARK  Name = 
DOCKED: REMARK  10 active torsions:
DOCKED: REMARK  status: ('A' for Active; 'I' for Inactive)
DOCKED: REMARK    1  A    between atoms: C_2  and  C_5
DOCKED: REMARK    2  A    between atoms: C_6  and  C_7
DOCKED: REMARK    3  A    between atoms: C_10  and  C_11
DOCKED: REMARK    4  A    between atoms: C_11  and  N_12
DOCKED: REMARK    5  A    between atoms: N_12  and  C_13
DOCKED: REMARK    6  A    between atoms: N_12  and  C_16
DOCKED: REMARK    7  A    between atoms: C_13  and  C_14
DOCKED: REMARK    8  A    between atoms: C_14  and  O_15
DOCKED: REMARK    9  A    between atoms: C_16  and  C_17
DOCKED: REMARK   10  A    between atoms: C_17  and  C_18
DOCKED: REMARK                            x       y       z     vdW  Elec       q    Type
DOCKED: REMARK                         _______ _______ _______ _____ _____    ______ ____
DOCKED: USER                              x       y       z     vdW  Elec       q    Type
DOCKED: USER                           _______ _______ _______ _____ _____    ______ ____
DOCKED: ROOT
DOCKED: ATOM      1  N   UNL     1      20.771 -10.133  -6.439 -0.26 -0.00    +0.000 N 
DOCKED: ATOM      2  H   UNL     1      20.424 -10.833  -5.783 -0.02 -0.00    +0.000 HD
DOCKED: ENDROOT
DOCKED: BRANCH   1   3
DOCKED: ATOM      3  C   UNL     1      21.417  -9.121  -5.563 -0.29 -0.00    +0.000 C 
DOCKED: BRANCH   3   7
DOCKED: ATOM      4  C   UNL     1      20.964  -9.839  -1.303 -0.57 -0.00    +0.000 A 
DOCKED: ATOM      5  C   UNL     1      20.746 -10.870  -2.229 -0.33 -0.00    +0.000 A 
DOCKED: ATOM      6  C   UNL     1      20.895 -10.640  -3.600 -0.45 -0.00    +0.000 A 
DOCKED: ATOM      7  C   UNL     1      21.237  -9.365  -4.077 -0.37 -0.00    +0.000 A 
DOCKED: ATOM      8  C   UNL     1      21.468  -8.334  -3.152 -0.36 -0.00    +0.000 A 
DOCKED: ATOM      9  C   UNL     1      21.320  -8.562  -1.780 -0.46 -0.00    +0.000 A 
DOCKED: BRANCH   4  11
DOCKED: ATOM     10  C   UNL     1      20.504 -11.350   0.626 -0.67 -0.00    +0.000 C 
DOCKED: ATOM     11  C   UNL     1      20.782 -10.131   0.141 -0.68 -0.00    +0.000 C 
DOCKED: BRANCH  10  13
DOCKED: ATOM     12  O   UNL     1      19.910 -12.717   2.483 -1.55 -0.00    +0.000 OA
DOCKED: ATOM     13  C   UNL     1      20.321 -11.598   2.069 -0.78 -0.00    +0.000 C 
DOCKED: ATOM     14  N   UNL     1      20.609 -10.560   3.009 -0.64 -0.00    +0.000 N 
DOCKED: ATOM     15  O   UNL     1      20.445 -10.772   4.336 -0.89 -0.00    +0.000 OA
DOCKED: ATOM     16  H   UNL     1      20.929  -9.685   2.689 -0.58 -0.00    +0.000 HD
DOCKED: ENDBRANCH  10  13
DOCKED: ENDBRANCH   4  11
DOCKED: ENDBRANCH   3   7
DOCKED: ENDBRANCH   1   3
DOCKED: BRANCH   1  17
DOCKED: ATOM     17  C   UNL     1      21.698 -10.884  -7.317 -0.33 -0.00    +0.000 C 
DOCKED: BRANCH  17  18
DOCKED: ATOM     18  C   UNL     1      22.753 -11.642  -6.506 -0.50 -0.00    +0.000 C 
DOCKED: BRANCH  18  19
DOCKED: ATOM     19  O   UNL     1      22.128 -12.433  -5.533 -0.79 -0.00    +0.000 OA
DOCKED: ATOM     20  H   UNL     1      21.849 -13.273  -5.930 -0.62 -0.00    +0.000 HD
DOCKED: ENDBRANCH  18  19
DOCKED: ENDBRANCH  17  18
DOCKED: ENDBRANCH   1  17
DOCKED: BRANCH   1  21
DOCKED: ATOM     21  C   UNL     1      19.583  -9.620  -7.160 -0.20 -0.00    +0.000 C 
DOCKED: BRANCH  21  22
DOCKED: ATOM     22  C   UNL     1      18.832 -10.767  -7.844 -0.26 -0.00    +0.000 C 
DOCKED: BRANCH  22  23
DOCKED: ATOM     23  C   UNL     1      17.523 -11.036  -7.159 -0.31 -0.00    +0.000 A 
DOCKED: ATOM     24  C   UNL     1      16.498 -11.848  -7.632 -0.34 -0.00    +0.000 A 
DOCKED: ATOM     25  N   UNL     1      15.525 -11.971  -6.702 -0.32 -0.00    +0.000 N 
DOCKED: ATOM     26  C   UNL     1      15.934 -11.257  -5.639 -0.24 -0.00    +0.000 A 
DOCKED: ATOM     27  C   UNL     1      17.152 -10.673  -5.878 -0.26 -0.00    +0.000 A 
DOCKED: ATOM     28  C   UNL     1      17.800  -9.907  -4.908 -0.22 -0.00    +0.000 A 
DOCKED: ATOM     29  C   UNL     1      17.163  -9.745  -3.665 -0.22 -0.00    +0.000 A 
DOCKED: ATOM     30  C   UNL     1      15.909 -10.345  -3.419 -0.21 -0.00    +0.000 A 
DOCKED: ATOM     31  C   UNL     1      15.281 -11.116  -4.415 -0.18 -0.00    +0.000 A 
DOCKED: ATOM     32  H   UNL     1      14.686 -12.481  -6.785 -0.02 -0.00    +0.000 HD
DOCKED: ENDBRANCH  22  23
DOCKED: ENDBRANCH  21  22
DOCKED: ENDBRANCH   1  21
DOCKED: TORSDOF 10
DOCKED: TER
DOCKED: ENDMDL
________________________________________________________________________________


	BEGINNING GENETIC ALGORITHM DOCKING 78 of 100
Run: 78 Seed: 1571165693 181770751 [ Run 78 of 100 GA/GALS ]
Beginning LAMARCKIAN GENETIC ALGORITHM (LGA), with a maximum of 2500000 energy evaluations.

Final-Value: -14.467


	FINAL GENETIC ALGORITHM DOCKED STATE
	_______________________________________________


Detailed state:  trans 20.867 -10.109 -6.669 quatxyzw -0.859657 0.470603 -0.090405 -0.177060 center 0.288 0.007 -0.056 ntor 10 141.3814 -59.8003 13.4826 -127.4144 -124.2290 83.6590 179.1682 -41.3907 8.3196 98.7368
State:	 20.867 -10.109  -6.669  -0.873  0.478 -0.092 -159.603    141.38  -59.80   13.48 -127.41 -124.23   83.66  179.17  -41.39    8.32   98.74

DOCKED: MODEL       78
DOCKED: USER    Run = 78
DOCKED: USER    DPF = ligand_dock.biased.dpf
DOCKED: USER  
DOCKED: USER    Estimated Free Energy of Binding    =   -8.74 kcal/mol  [=(1)+(2)+(3)-(4)]
DOCKED: USER    Estimated Inhibition Constant, Ki   =  389.67 nM (nanomolar)  [Temperature = 298.15 K]
DOCKED: USER    
DOCKED: USER    (1) Final Intermolecular Energy     =  -11.73 kcal/mol
DOCKED: USER        vdW + Hbond + desolv Energy     =  -11.73 kcal/mol
DOCKED: USER        Electrostatic Energy            =   +0.00 kcal/mol
DOCKED: USER    (2) Final Total Internal Energy     =   -2.74 kcal/mol
DOCKED: USER    (3) Torsional Free Energy           =   +2.98 kcal/mol
DOCKED: USER    (4) Unbound System's Energy  [=(2)] =   -2.74 kcal/mol
DOCKED: USER    
DOCKED: USER    
DOCKED: USER    NEWDPF move ligand.pdbqt
DOCKED: USER    NEWDPF about 0.288000 0.007000 -0.056000
DOCKED: USER    NEWDPF tran0 20.867366 -10.108771 -6.669056
DOCKED: USER    NEWDPF quaternion0 -0.859657 0.470603 -0.090405 -0.177060
DOCKED: USER    NEWDPF axisangle0 -0.873457 0.478157 -0.091856 -159.602902
DOCKED: USER    NEWDPF quat0 -0.873457 0.478157 -0.091856 -159.602902
DOCKED: USER    NEWDPF dihe0 141.38 -59.80 13.48 -127.41 -124.23 83.66 179.17 -41.39 8.32 98.74 
DOCKED: USER  keepresnum = 1 
DOCKED: USER  
DOCKED: REMARK  Name = 
DOCKED: REMARK  10 active torsions:
DOCKED: REMARK  status: ('A' for Active; 'I' for Inactive)
DOCKED: REMARK    1  A    between atoms: C_2  and  C_5
DOCKED: REMARK    2  A    between atoms: C_6  and  C_7
DOCKED: REMARK    3  A    between atoms: C_10  and  C_11
DOCKED: REMARK    4  A    between atoms: C_11  and  N_12
DOCKED: REMARK    5  A    between atoms: N_12  and  C_13
DOCKED: REMARK    6  A    between atoms: N_12  and  C_16
DOCKED: REMARK    7  A    between atoms: C_13  and  C_14
DOCKED: REMARK    8  A    between atoms: C_14  and  O_15
DOCKED: REMARK    9  A    between atoms: C_16  and  C_17
DOCKED: REMARK   10  A    between atoms: C_17  and  C_18
DOCKED: REMARK                            x       y       z     vdW  Elec       q    Type
DOCKED: REMARK                         _______ _______ _______ _____ _____    ______ ____
DOCKED: USER                              x       y       z     vdW  Elec       q    Type
DOCKED: USER                           _______ _______ _______ _____ _____    ______ ____
DOCKED: ROOT
DOCKED: ATOM      1  N   UNL     1      20.402  -8.864  -6.537 -0.13 -0.00    +0.000 N 
DOCKED: ATOM      2  H   UNL     1      19.546  -8.323  -6.410 +0.01 -0.00    +0.000 HD
DOCKED: ENDROOT
DOCKED: BRANCH   1   3
DOCKED: ATOM      3  C   UNL     1      20.051 -10.205  -6.000 -0.31 -0.00    +0.000 C 
DOCKED: BRANCH   3   7
DOCKED: ATOM      4  C   UNL     1      20.670 -10.734  -1.734 -0.41 -0.00    +0.000 A 
DOCKED: ATOM      5  C   UNL     1      19.387 -10.484  -2.245 -0.38 -0.00    +0.000 A 
DOCKED: ATOM      6  C   UNL     1      19.187 -10.317  -3.618 -0.33 -0.00    +0.000 A 
DOCKED: ATOM      7  C   UNL     1      20.271 -10.367  -4.509 -0.37 -0.00    +0.000 A 
DOCKED: ATOM      8  C   UNL     1      21.554 -10.630  -4.002 -0.44 -0.00    +0.000 A 
DOCKED: ATOM      9  C   UNL     1      21.756 -10.798  -2.629 -0.20 -0.00    +0.000 A 
DOCKED: BRANCH   4  11
DOCKED: ATOM     10  C   UNL     1      19.917 -11.471   0.525 -0.65 -0.00    +0.000 C 
DOCKED: ATOM     11  C   UNL     1      20.831 -10.893  -0.267 -0.64 -0.00    +0.000 C 
DOCKED: BRANCH  10  13
DOCKED: ATOM     12  O   UNL     1      19.966 -12.717   2.554 -1.54 -0.00    +0.000 OA
DOCKED: ATOM     13  C   UNL     1      20.110 -11.601   1.983 -0.77 -0.00    +0.000 C 
DOCKED: ATOM     14  N   UNL     1      20.462 -10.452   2.756 -0.58 -0.00    +0.000 N 
DOCKED: ATOM     15  O   UNL     1      20.643 -10.555   4.094 -1.02 -0.00    +0.000 OA
DOCKED: ATOM     16  H   UNL     1      20.575  -9.580   2.313 -0.52 -0.00    +0.000 HD
DOCKED: ENDBRANCH  10  13
DOCKED: ENDBRANCH   4  11
DOCKED: ENDBRANCH   3   7
DOCKED: ENDBRANCH   1   3
DOCKED: BRANCH   1  17
DOCKED: ATOM     17  C   UNL     1      20.650  -8.819  -7.996 -0.12 -0.00    +0.000 C 
DOCKED: BRANCH  17  18
DOCKED: ATOM     18  C   UNL     1      19.347  -8.680  -8.787 -0.09 -0.00    +0.000 C 
DOCKED: BRANCH  18  19
DOCKED: ATOM     19  O   UNL     1      18.252  -8.745  -7.915 -0.08 -0.00    +0.000 OA
DOCKED: ATOM     20  H   UNL     1      18.119  -7.880  -7.499 +0.00 -0.00    +0.000 HD
DOCKED: ENDBRANCH  18  19
DOCKED: ENDBRANCH  17  18
DOCKED: ENDBRANCH   1  17
DOCKED: BRANCH   1  21
DOCKED: ATOM     21  C   UNL     1      21.448  -8.169  -5.751 -0.22 -0.00    +0.000 C 
DOCKED: BRANCH  21  22
DOCKED: ATOM     22  C   UNL     1      20.996  -6.749  -5.393 -0.16 -0.00    +0.000 C 
DOCKED: BRANCH  22  23
DOCKED: ATOM     23  C   UNL     1      20.903  -6.575  -3.905 -0.26 -0.00    +0.000 A 
DOCKED: ATOM     24  C   UNL     1      21.222  -7.528  -2.943 -0.38 -0.00    +0.000 A 
DOCKED: ATOM     25  N   UNL     1      21.152  -6.992  -1.704 -0.47 -0.00    +0.000 N 
DOCKED: ATOM     26  C   UNL     1      20.807  -5.704  -1.875 -0.37 -0.00    +0.000 A 
DOCKED: ATOM     27  C   UNL     1      20.650  -5.409  -3.205 -0.26 -0.00    +0.000 A 
DOCKED: ATOM     28  C   UNL     1      20.325  -4.123  -3.639 -0.15 -0.00    +0.000 A 
DOCKED: ATOM     29  C   UNL     1      20.160  -3.124  -2.662 -0.16 -0.00    +0.000 A 
DOCKED: ATOM     30  C   UNL     1      20.321  -3.428  -1.293 -0.33 -0.00    +0.000 A 
DOCKED: ATOM     31  C   UNL     1      20.652  -4.733  -0.886 -0.37 +0.00    +0.000 A 
DOCKED: ATOM     32  H   UNL     1      21.319  -7.451  -0.849 -0.04 +0.00    +0.000 HD
DOCKED: ENDBRANCH  22  23
DOCKED: ENDBRANCH  21  22
DOCKED: ENDBRANCH   1  21
DOCKED: TORSDOF 10
DOCKED: TER
DOCKED: ENDMDL
________________________________________________________________________________


	BEGINNING GENETIC ALGORITHM DOCKING 79 of 100
Run: 79 Seed: 2109559059 554960341 [ Run 79 of 100 GA/GALS ]
Beginning LAMARCKIAN GENETIC ALGORITHM (LGA), with a maximum of 2500000 energy evaluations.

Final-Value: -14.825


	FINAL GENETIC ALGORITHM DOCKED STATE
	_______________________________________________


Detailed state:  trans 17.790 -11.964 1.337 quatxyzw -0.538273 0.391760 -0.511230 -0.543536 center 0.288 0.007 -0.056 ntor 10 -163.0066 31.0411 -160.4715 -116.6970 179.7526 91.2456 -169.0102 -51.5053 -153.9198 130.7466
State:	 17.790 -11.964   1.337  -0.641  0.467 -0.609 -114.151   -163.01   31.04 -160.47 -116.70  179.75   91.25 -169.01  -51.51 -153.92  130.75

DOCKED: MODEL       79
DOCKED: USER    Run = 79
DOCKED: USER    DPF = ligand_dock.biased.dpf
DOCKED: USER  
DOCKED: USER    Estimated Free Energy of Binding    =  -10.20 kcal/mol  [=(1)+(2)+(3)-(4)]
DOCKED: USER    Estimated Inhibition Constant, Ki   =   33.47 nM (nanomolar)  [Temperature = 298.15 K]
DOCKED: USER    
DOCKED: USER    (1) Final Intermolecular Energy     =  -13.18 kcal/mol
DOCKED: USER        vdW + Hbond + desolv Energy     =  -13.18 kcal/mol
DOCKED: USER        Electrostatic Energy            =   +0.00 kcal/mol
DOCKED: USER    (2) Final Total Internal Energy     =   -1.64 kcal/mol
DOCKED: USER    (3) Torsional Free Energy           =   +2.98 kcal/mol
DOCKED: USER    (4) Unbound System's Energy  [=(2)] =   -1.64 kcal/mol
DOCKED: USER    
DOCKED: USER    
DOCKED: USER    NEWDPF move ligand.pdbqt
DOCKED: USER    NEWDPF about 0.288000 0.007000 -0.056000
DOCKED: USER    NEWDPF tran0 17.789952 -11.963772 1.337070
DOCKED: USER    NEWDPF quaternion0 -0.538273 0.391760 -0.511230 -0.543536
DOCKED: USER    NEWDPF axisangle0 -0.641270 0.466722 -0.609052 -114.150709
DOCKED: USER    NEWDPF quat0 -0.641270 0.466722 -0.609052 -114.150709
DOCKED: USER    NEWDPF dihe0 -163.01 31.04 -160.47 -116.70 179.75 91.25 -169.01 -51.51 -153.92 130.75 
DOCKED: USER  keepresnum = 1 
DOCKED: USER  
DOCKED: REMARK  Name = 
DOCKED: REMARK  10 active torsions:
DOCKED: REMARK  status: ('A' for Active; 'I' for Inactive)
DOCKED: REMARK    1  A    between atoms: C_2  and  C_5
DOCKED: REMARK    2  A    between atoms: C_6  and  C_7
DOCKED: REMARK    3  A    between atoms: C_10  and  C_11
DOCKED: REMARK    4  A    between atoms: C_11  and  N_12
DOCKED: REMARK    5  A    between atoms: N_12  and  C_13
DOCKED: REMARK    6  A    between atoms: N_12  and  C_16
DOCKED: REMARK    7  A    between atoms: C_13  and  C_14
DOCKED: REMARK    8  A    between atoms: C_14  and  O_15
DOCKED: REMARK    9  A    between atoms: C_16  and  C_17
DOCKED: REMARK   10  A    between atoms: C_17  and  C_18
DOCKED: REMARK                            x       y       z     vdW  Elec       q    Type
DOCKED: REMARK                         _______ _______ _______ _____ _____    ______ ____
DOCKED: USER                              x       y       z     vdW  Elec       q    Type
DOCKED: USER                           _______ _______ _______ _____ _____    ______ ____
DOCKED: ROOT
DOCKED: ATOM      1  N   UNL     1      17.529 -10.662   1.476 -0.40 -0.00    +0.000 N 
DOCKED: ATOM      2  H   UNL     1      17.152  -9.849   0.988 -0.02 -0.00    +0.000 HD
DOCKED: ENDROOT
DOCKED: BRANCH   1   3
DOCKED: ATOM      3  C   UNL     1      16.905 -11.813   0.773 -0.48 +0.00    +0.000 C 
DOCKED: BRANCH   3   7
DOCKED: ATOM      4  C   UNL     1      12.568 -11.643   0.628 -0.38 +0.00    +0.000 A 
DOCKED: ATOM      5  C   UNL     1      13.240 -11.712   1.857 -0.33 +0.00    +0.000 A 
DOCKED: ATOM      6  C   UNL     1      14.636 -11.763   1.904 -0.43 +0.00    +0.000 A 
DOCKED: ATOM      7  C   UNL     1      15.390 -11.777   0.721 -0.40 +0.00    +0.000 A 
DOCKED: ATOM      8  C   UNL     1      14.721 -11.695  -0.511 -0.37 +0.00    +0.000 A 
DOCKED: ATOM      9  C   UNL     1      13.324 -11.643  -0.561 -0.32 +0.00    +0.000 A 
DOCKED: BRANCH   4  11
DOCKED: ATOM     10  C   UNL     1      10.329 -12.020   1.657 -0.37 +0.00    +0.000 C 
DOCKED: ATOM     11  C   UNL     1      11.084 -11.601   0.631 -0.39 +0.00    +0.000 C 
DOCKED: BRANCH  10  13
DOCKED: ATOM     12  O   UNL     1       8.211 -11.266   2.443 -0.34 +0.00    +0.000 OA
DOCKED: ATOM     13  C   UNL     1       8.854 -11.971   1.617 -0.40 +0.00    +0.000 C 
DOCKED: ATOM     14  N   UNL     1       8.145 -12.731   0.636 -0.32 -0.00    +0.000 N 
DOCKED: ATOM     15  O   UNL     1       6.793 -12.697   0.587 -0.36 -0.00    +0.000 OA
DOCKED: ATOM     16  H   UNL     1       8.644 -13.283  -0.010 -0.49 -0.00    +0.000 HD
DOCKED: ENDBRANCH  10  13
DOCKED: ENDBRANCH   4  11
DOCKED: ENDBRANCH   3   7
DOCKED: ENDBRANCH   1   3
DOCKED: BRANCH   1  17
DOCKED: ATOM     17  C   UNL     1      18.995 -10.544   1.305 -0.54 -0.00    +0.000 C 
DOCKED: BRANCH  17  18
DOCKED: ATOM     18  C   UNL     1      19.754 -11.310   2.392 -0.73 -0.00    +0.000 C 
DOCKED: BRANCH  18  19
DOCKED: ATOM     19  O   UNL     1      19.906 -12.650   2.011 -1.66 -0.00    +0.000 OA
DOCKED: ATOM     20  H   UNL     1      20.808 -12.942   2.212 -0.60 -0.00    +0.000 HD
DOCKED: ENDBRANCH  18  19
DOCKED: ENDBRANCH  17  18
DOCKED: ENDBRANCH   1  17
DOCKED: BRANCH   1  21
DOCKED: ATOM     21  C   UNL     1      17.099 -10.528   2.888 -0.50 +0.00    +0.000 C 
DOCKED: BRANCH  21  22
DOCKED: ATOM     22  C   UNL     1      16.868  -9.055   3.241 -0.20 +0.00    +0.000 C 
DOCKED: BRANCH  22  23
DOCKED: ATOM     23  C   UNL     1      15.531  -8.865   3.898 -0.31 +0.00    +0.000 A 
DOCKED: ATOM     24  C   UNL     1      14.681  -9.873   4.341 -0.40 +0.00    +0.000 A 
DOCKED: ATOM     25  N   UNL     1      13.627  -9.346   5.003 -0.42 +0.00    +0.000 N 
DOCKED: ATOM     26  C   UNL     1      13.812  -8.014   4.996 -0.36 +0.00    +0.000 A 
DOCKED: ATOM     27  C   UNL     1      14.966  -7.681   4.334 -0.36 +0.00    +0.000 A 
DOCKED: ATOM     28  C   UNL     1      15.392  -6.356   4.223 -0.31 +0.00    +0.000 A 
DOCKED: ATOM     29  C   UNL     1      14.595  -5.359   4.814 -0.37 +0.00    +0.000 A 
DOCKED: ATOM     30  C   UNL     1      13.407  -5.702   5.495 -0.32 +0.00    +0.000 A 
DOCKED: ATOM     31  C   UNL     1      13.005  -7.046   5.594 -0.26 +0.00    +0.000 A 
DOCKED: ATOM     32  H   UNL     1      12.876  -9.836   5.409 -0.03 +0.00    +0.000 HD
DOCKED: ENDBRANCH  22  23
DOCKED: ENDBRANCH  21  22
DOCKED: ENDBRANCH   1  21
DOCKED: TORSDOF 10
DOCKED: TER
DOCKED: ENDMDL
________________________________________________________________________________


	BEGINNING GENETIC ALGORITHM DOCKING 80 of 100
Run: 80 Seed: 1071501651 1921482492 [ Run 80 of 100 GA/GALS ]
Beginning LAMARCKIAN GENETIC ALGORITHM (LGA), with a maximum of 2500000 energy evaluations.

Final-Value: -14.774


	FINAL GENETIC ALGORITHM DOCKED STATE
	_______________________________________________


Detailed state:  trans 11.393 -6.800 4.446 quatxyzw 0.770077 -0.552210 -0.289300 -0.135466 center 0.288 0.007 -0.056 ntor 10 -176.1148 -92.4298 75.8276 83.1813 49.5616 1.8288 -155.8935 -23.0459 56.0360 34.3306
State:	 11.393  -6.800   4.446   0.777 -0.557 -0.292 -164.429   -176.11  -92.43   75.83   83.18   49.56    1.83 -155.89  -23.05   56.04   34.33

DOCKED: MODEL       80
DOCKED: USER    Run = 80
DOCKED: USER    DPF = ligand_dock.biased.dpf
DOCKED: USER  
DOCKED: USER    Estimated Free Energy of Binding    =   -9.69 kcal/mol  [=(1)+(2)+(3)-(4)]
DOCKED: USER    Estimated Inhibition Constant, Ki   =   78.59 nM (nanomolar)  [Temperature = 298.15 K]
DOCKED: USER    
DOCKED: USER    (1) Final Intermolecular Energy     =  -12.68 kcal/mol
DOCKED: USER        vdW + Hbond + desolv Energy     =  -12.68 kcal/mol
DOCKED: USER        Electrostatic Energy            =   +0.00 kcal/mol
DOCKED: USER    (2) Final Total Internal Energy     =   -2.10 kcal/mol
DOCKED: USER    (3) Torsional Free Energy           =   +2.98 kcal/mol
DOCKED: USER    (4) Unbound System's Energy  [=(2)] =   -2.10 kcal/mol
DOCKED: USER    
DOCKED: USER    
DOCKED: USER    NEWDPF move ligand.pdbqt
DOCKED: USER    NEWDPF about 0.288000 0.007000 -0.056000
DOCKED: USER    NEWDPF tran0 11.393327 -6.799973 4.445557
DOCKED: USER    NEWDPF quaternion0 0.770077 -0.552210 -0.289300 -0.135466
DOCKED: USER    NEWDPF axisangle0 0.777242 -0.557347 -0.291992 -164.428820
DOCKED: USER    NEWDPF quat0 0.777242 -0.557347 -0.291992 -164.428820
DOCKED: USER    NEWDPF dihe0 -176.11 -92.43 75.83 83.18 49.56 1.83 -155.89 -23.05 56.04 34.33 
DOCKED: USER  keepresnum = 1 
DOCKED: USER  
DOCKED: REMARK  Name = 
DOCKED: REMARK  10 active torsions:
DOCKED: REMARK  status: ('A' for Active; 'I' for Inactive)
DOCKED: REMARK    1  A    between atoms: C_2  and  C_5
DOCKED: REMARK    2  A    between atoms: C_6  and  C_7
DOCKED: REMARK    3  A    between atoms: C_10  and  C_11
DOCKED: REMARK    4  A    between atoms: C_11  and  N_12
DOCKED: REMARK    5  A    between atoms: N_12  and  C_13
DOCKED: REMARK    6  A    between atoms: N_12  and  C_16
DOCKED: REMARK    7  A    between atoms: C_13  and  C_14
DOCKED: REMARK    8  A    between atoms: C_14  and  O_15
DOCKED: REMARK    9  A    between atoms: C_16  and  C_17
DOCKED: REMARK   10  A    between atoms: C_17  and  C_18
DOCKED: REMARK                            x       y       z     vdW  Elec       q    Type
DOCKED: REMARK                         _______ _______ _______ _____ _____    ______ ____
DOCKED: USER                              x       y       z     vdW  Elec       q    Type
DOCKED: USER                           _______ _______ _______ _____ _____    ______ ____
DOCKED: ROOT
DOCKED: ATOM      1  N   UNL     1      11.339  -5.485   4.668 -0.20 +0.00    +0.000 N 
DOCKED: ATOM      2  H   UNL     1      11.028  -4.784   5.341 -0.01 +0.00    +0.000 HD
DOCKED: ENDROOT
DOCKED: BRANCH   1   3
DOCKED: ATOM      3  C   UNL     1      11.521  -6.707   5.494 -0.22 +0.00    +0.000 C 
DOCKED: BRANCH   3   7
DOCKED: ATOM      4  C   UNL     1      14.464  -9.525   3.989 -0.36 +0.00    +0.000 A 
DOCKED: ATOM      5  C   UNL     1      14.239  -9.393   5.368 -0.42 +0.00    +0.000 A 
DOCKED: ATOM      6  C   UNL     1      13.290  -8.489   5.852 -0.42 +0.00    +0.000 A 
DOCKED: ATOM      7  C   UNL     1      12.564  -7.674   4.969 -0.26 +0.00    +0.000 A 
DOCKED: ATOM      8  C   UNL     1      12.778  -7.813   3.587 -0.15 +0.00    +0.000 A 
DOCKED: ATOM      9  C   UNL     1      13.726  -8.718   3.101 -0.22 +0.00    +0.000 A 
DOCKED: BRANCH   4  11
DOCKED: ATOM     10  C   UNL     1      16.190 -10.350   2.391 -0.43 +0.00    +0.000 C 
DOCKED: ATOM     11  C   UNL     1      15.490 -10.492   3.526 -0.50 +0.00    +0.000 C 
DOCKED: BRANCH  10  13
DOCKED: ATOM     12  O   UNL     1      16.846 -12.394   1.360 -0.93 +0.00    +0.000 OA
DOCKED: ATOM     13  C   UNL     1      17.196 -11.340   1.959 -0.45 +0.00    +0.000 C 
DOCKED: ATOM     14  N   UNL     1      18.581 -11.105   2.224 -0.51 -0.00    +0.000 N 
DOCKED: ATOM     15  O   UNL     1      19.516 -12.004   1.835 -1.59 -0.00    +0.000 OA
DOCKED: ATOM     16  H   UNL     1      18.857 -10.284   2.692 -0.04 -0.00    +0.000 HD
DOCKED: ENDBRANCH  10  13
DOCKED: ENDBRANCH   4  11
DOCKED: ENDBRANCH   3   7
DOCKED: ENDBRANCH   1   3
DOCKED: BRANCH   1  17
DOCKED: ATOM     17  C   UNL     1      10.238  -5.555   3.680 -0.11 +0.00    +0.000 C 
DOCKED: BRANCH  17  18
DOCKED: ATOM     18  C   UNL     1       9.567  -4.193   3.484 -0.20 +0.00    +0.000 C 
DOCKED: BRANCH  18  19
DOCKED: ATOM     19  O   UNL     1       9.494  -3.518   4.709 -0.57 +0.00    +0.000 OA
DOCKED: ATOM     20  H   UNL     1       9.930  -2.655   4.629 -0.62 +0.00    +0.000 HD
DOCKED: ENDBRANCH  18  19
DOCKED: ENDBRANCH  17  18
DOCKED: ENDBRANCH   1  17
DOCKED: BRANCH   1  21
DOCKED: ATOM     21  C   UNL     1      12.601  -4.967   4.090 -0.22 +0.00    +0.000 C 
DOCKED: BRANCH  21  22
DOCKED: ATOM     22  C   UNL     1      12.987  -3.638   4.747 -0.35 +0.00    +0.000 C 
DOCKED: BRANCH  22  23
DOCKED: ATOM     23  C   UNL     1      14.476  -3.536   4.918 -0.33 -0.00    +0.000 A 
DOCKED: ATOM     24  C   UNL     1      15.231  -4.131   5.923 -0.45 +0.00    +0.000 A 
DOCKED: ATOM     25  N   UNL     1      16.551  -3.944   5.696 -0.50 -0.00    +0.000 N 
DOCKED: ATOM     26  C   UNL     1      16.636  -3.249   4.548 -0.43 -0.00    +0.000 A 
DOCKED: ATOM     27  C   UNL     1      15.390  -2.985   4.040 -0.40 -0.00    +0.000 A 
DOCKED: ATOM     28  C   UNL     1      15.219  -2.303   2.834 -0.32 -0.00    +0.000 A 
DOCKED: ATOM     29  C   UNL     1      16.373  -1.889   2.145 -0.31 -0.00    +0.000 A 
DOCKED: ATOM     30  C   UNL     1      17.656  -2.161   2.669 -0.42 -0.00    +0.000 A 
DOCKED: ATOM     31  C   UNL     1      17.797  -2.853   3.885 -0.26 -0.00    +0.000 A 
DOCKED: ATOM     32  H   UNL     1      17.299  -4.253   6.257 -0.47 -0.00    +0.000 HD
DOCKED: ENDBRANCH  22  23
DOCKED: ENDBRANCH  21  22
DOCKED: ENDBRANCH   1  21
DOCKED: TORSDOF 10
DOCKED: TER
DOCKED: ENDMDL
________________________________________________________________________________


	BEGINNING GENETIC ALGORITHM DOCKING 81 of 100
Run: 81 Seed: 1377243292 834513971 [ Run 81 of 100 GA/GALS ]
Beginning LAMARCKIAN GENETIC ALGORITHM (LGA), with a maximum of 2500000 energy evaluations.

Final-Value: -15.662


	FINAL GENETIC ALGORITHM DOCKED STATE
	_______________________________________________


Detailed state:  trans 21.331 -10.056 -5.636 quatxyzw -0.390027 0.465695 -0.093706 0.788813 center 0.288 0.007 -0.056 ntor 10 163.1120 -20.9705 49.5528 -163.5304 141.1063 133.9826 -164.2480 39.3977 -35.6823 -42.8318
State:	 21.331 -10.056  -5.636  -0.635  0.758 -0.152 75.850    163.11  -20.97   49.55 -163.53  141.11  133.98 -164.25   39.40  -35.68  -42.83

DOCKED: MODEL       81
DOCKED: USER    Run = 81
DOCKED: USER    DPF = ligand_dock.biased.dpf
DOCKED: USER  
DOCKED: USER    Estimated Free Energy of Binding    =  -10.56 kcal/mol  [=(1)+(2)+(3)-(4)]
DOCKED: USER    Estimated Inhibition Constant, Ki   =   18.10 nM (nanomolar)  [Temperature = 298.15 K]
DOCKED: USER    
DOCKED: USER    (1) Final Intermolecular Energy     =  -13.55 kcal/mol
DOCKED: USER        vdW + Hbond + desolv Energy     =  -13.55 kcal/mol
DOCKED: USER        Electrostatic Energy            =   +0.00 kcal/mol
DOCKED: USER    (2) Final Total Internal Energy     =   -2.12 kcal/mol
DOCKED: USER    (3) Torsional Free Energy           =   +2.98 kcal/mol
DOCKED: USER    (4) Unbound System's Energy  [=(2)] =   -2.12 kcal/mol
DOCKED: USER    
DOCKED: USER    
DOCKED: USER    NEWDPF move ligand.pdbqt
DOCKED: USER    NEWDPF about 0.288000 0.007000 -0.056000
DOCKED: USER    NEWDPF tran0 21.331312 -10.056000 -5.636166
DOCKED: USER    NEWDPF quaternion0 -0.390027 0.465695 -0.093706 0.788813
DOCKED: USER    NEWDPF axisangle0 -0.634569 0.757680 -0.152459 75.850472
DOCKED: USER    NEWDPF quat0 -0.634569 0.757680 -0.152459 75.850472
DOCKED: USER    NEWDPF dihe0 163.11 -20.97 49.55 -163.53 141.11 133.98 -164.25 39.40 -35.68 -42.83 
DOCKED: USER  keepresnum = 1 
DOCKED: USER  
DOCKED: REMARK  Name = 
DOCKED: REMARK  10 active torsions:
DOCKED: REMARK  status: ('A' for Active; 'I' for Inactive)
DOCKED: REMARK    1  A    between atoms: C_2  and  C_5
DOCKED: REMARK    2  A    between atoms: C_6  and  C_7
DOCKED: REMARK    3  A    between atoms: C_10  and  C_11
DOCKED: REMARK    4  A    between atoms: C_11  and  N_12
DOCKED: REMARK    5  A    between atoms: N_12  and  C_13
DOCKED: REMARK    6  A    between atoms: N_12  and  C_16
DOCKED: REMARK    7  A    between atoms: C_13  and  C_14
DOCKED: REMARK    8  A    between atoms: C_14  and  O_15
DOCKED: REMARK    9  A    between atoms: C_16  and  C_17
DOCKED: REMARK   10  A    between atoms: C_17  and  C_18
DOCKED: REMARK                            x       y       z     vdW  Elec       q    Type
DOCKED: REMARK                         _______ _______ _______ _____ _____    ______ ____
DOCKED: USER                              x       y       z     vdW  Elec       q    Type
DOCKED: USER                           _______ _______ _______ _____ _____    ______ ____
DOCKED: ROOT
DOCKED: ATOM      1  N   UNL     1      20.773  -9.983  -6.847 -0.23 -0.00    +0.000 N 
DOCKED: ATOM      2  H   UNL     1      20.272  -9.358  -7.477 +0.00 -0.00    +0.000 HD
DOCKED: ENDROOT
DOCKED: BRANCH   1   3
DOCKED: ATOM      3  C   UNL     1      21.509  -9.058  -5.946 -0.26 -0.00    +0.000 C 
DOCKED: BRANCH   3   7
DOCKED: ATOM      4  C   UNL     1      21.154  -9.919  -1.704 -0.55 -0.00    +0.000 A 
DOCKED: ATOM      5  C   UNL     1      21.630 -10.894  -2.595 -0.20 -0.00    +0.000 A 
DOCKED: ATOM      6  C   UNL     1      21.747 -10.616  -3.959 -0.41 -0.00    +0.000 A 
DOCKED: ATOM      7  C   UNL     1      21.363  -9.365  -4.469 -0.34 -0.00    +0.000 A 
DOCKED: ATOM      8  C   UNL     1      20.899  -8.384  -3.578 -0.35 -0.00    +0.000 A 
DOCKED: ATOM      9  C   UNL     1      20.782  -8.659  -2.212 -0.39 -0.00    +0.000 A 
DOCKED: BRANCH   4  11
DOCKED: ATOM     10  C   UNL     1      20.274 -11.266   0.200 -0.63 -0.00    +0.000 C 
DOCKED: ATOM     11  C   UNL     1      21.038 -10.268  -0.266 -0.70 -0.00    +0.000 C 
DOCKED: BRANCH  10  13
DOCKED: ATOM     12  O   UNL     1      19.693 -12.671   2.032 -1.57 -0.00    +0.000 OA
DOCKED: ATOM     13  C   UNL     1      20.177 -11.575   1.640 -0.76 -0.00    +0.000 C 
DOCKED: ATOM     14  N   UNL     1      20.635 -10.621   2.602 -0.62 -0.00    +0.000 N 
DOCKED: ATOM     15  O   UNL     1      20.552 -10.889   3.927 -1.12 -0.00    +0.000 OA
DOCKED: ATOM     16  H   UNL     1      21.013  -9.764   2.299 -0.58 -0.00    +0.000 HD
DOCKED: ENDBRANCH  10  13
DOCKED: ENDBRANCH   4  11
DOCKED: ENDBRANCH   3   7
DOCKED: ENDBRANCH   1   3
DOCKED: BRANCH   1  17
DOCKED: ATOM     17  C   UNL     1      19.706 -10.776  -6.194 -0.36 -0.00    +0.000 C 
DOCKED: BRANCH  17  18
DOCKED: ATOM     18  C   UNL     1      18.335 -10.499  -6.817 -0.31 -0.00    +0.000 C 
DOCKED: BRANCH  18  19
DOCKED: ATOM     19  O   UNL     1      18.478 -10.249  -8.188 -0.24 -0.00    +0.000 OA
DOCKED: ATOM     20  H   UNL     1      18.210 -11.035  -8.689 -0.02 -0.00    +0.000 HD
DOCKED: ENDBRANCH  18  19
DOCKED: ENDBRANCH  17  18
DOCKED: ENDBRANCH   1  17
DOCKED: BRANCH   1  21
DOCKED: ATOM     21  C   UNL     1      21.660 -10.805  -7.704 -0.30 -0.00    +0.000 C 
DOCKED: BRANCH  21  22
DOCKED: ATOM     22  C   UNL     1      22.718  -9.926  -8.380 -0.21 -0.00    +0.000 C 
DOCKED: BRANCH  22  23
DOCKED: ATOM     23  C   UNL     1      24.077 -10.556  -8.289 -0.27 -0.00    +0.000 A 
DOCKED: ATOM     24  C   UNL     1      24.411 -11.851  -8.672 -0.39 -0.00    +0.000 A 
DOCKED: ATOM     25  N   UNL     1      25.747 -12.042  -8.579 -0.40 -0.00    +0.000 N 
DOCKED: ATOM     26  C   UNL     1      26.261 -10.874  -8.157 -0.33 -0.00    +0.000 A 
DOCKED: ATOM     27  C   UNL     1      25.273  -9.940  -7.972 -0.30 -0.00    +0.000 A 
DOCKED: ATOM     28  C   UNL     1      25.563  -8.636  -7.567 -0.23 -0.00    +0.000 A 
DOCKED: ATOM     29  C   UNL     1      26.912  -8.302  -7.349 -0.26 -0.00    +0.000 A 
DOCKED: ATOM     30  C   UNL     1      27.928  -9.263  -7.539 -0.38 -0.00    +0.000 A 
DOCKED: ATOM     31  C   UNL     1      27.606 -10.569  -7.951 -0.36 -0.00    +0.000 A 
DOCKED: ATOM     32  H   UNL     1      26.243 -12.869  -8.780 -0.47 -0.00    +0.000 HD
DOCKED: ENDBRANCH  22  23
DOCKED: ENDBRANCH  21  22
DOCKED: ENDBRANCH   1  21
DOCKED: TORSDOF 10
DOCKED: TER
DOCKED: ENDMDL
________________________________________________________________________________


	BEGINNING GENETIC ALGORITHM DOCKING 82 of 100
Run: 82 Seed: 983735735 1344527602 [ Run 82 of 100 GA/GALS ]
Beginning LAMARCKIAN GENETIC ALGORITHM (LGA), with a maximum of 2500000 energy evaluations.

Final-Value: -13.620


	FINAL GENETIC ALGORITHM DOCKED STATE
	_______________________________________________


Detailed state:  trans 18.277 -10.467 0.696 quatxyzw 0.556276 0.524439 0.365297 -0.531111 center 0.288 0.007 -0.056 ntor 10 -7.8007 168.7450 2.8938 38.3560 -31.5752 -172.6116 -168.1475 124.5690 134.1173 130.2429
State:	 18.277 -10.467   0.696   0.657  0.619  0.431 -115.839     -7.80  168.74    2.89   38.36  -31.58 -172.61 -168.15  124.57  134.12  130.24

DOCKED: MODEL       82
DOCKED: USER    Run = 82
DOCKED: USER    DPF = ligand_dock.biased.dpf
DOCKED: USER  
DOCKED: USER    Estimated Free Energy of Binding    =   -9.01 kcal/mol  [=(1)+(2)+(3)-(4)]
DOCKED: USER    Estimated Inhibition Constant, Ki   =  246.62 nM (nanomolar)  [Temperature = 298.15 K]
DOCKED: USER    
DOCKED: USER    (1) Final Intermolecular Energy     =  -12.00 kcal/mol
DOCKED: USER        vdW + Hbond + desolv Energy     =  -12.00 kcal/mol
DOCKED: USER        Electrostatic Energy            =   +0.00 kcal/mol
DOCKED: USER    (2) Final Total Internal Energy     =   -1.62 kcal/mol
DOCKED: USER    (3) Torsional Free Energy           =   +2.98 kcal/mol
DOCKED: USER    (4) Unbound System's Energy  [=(2)] =   -1.62 kcal/mol
DOCKED: USER    
DOCKED: USER    
DOCKED: USER    NEWDPF move ligand.pdbqt
DOCKED: USER    NEWDPF about 0.288000 0.007000 -0.056000
DOCKED: USER    NEWDPF tran0 18.277463 -10.467454 0.696320
DOCKED: USER    NEWDPF quaternion0 0.556276 0.524439 0.365297 -0.531111
DOCKED: USER    NEWDPF axisangle0 0.656526 0.618952 0.431129 -115.838904
DOCKED: USER    NEWDPF quat0 0.656526 0.618952 0.431129 -115.838904
DOCKED: USER    NEWDPF dihe0 -7.80 168.74 2.89 38.36 -31.58 -172.61 -168.15 124.57 134.12 130.24 
DOCKED: USER  keepresnum = 1 
DOCKED: USER  
DOCKED: REMARK  Name = 
DOCKED: REMARK  10 active torsions:
DOCKED: REMARK  status: ('A' for Active; 'I' for Inactive)
DOCKED: REMARK    1  A    between atoms: C_2  and  C_5
DOCKED: REMARK    2  A    between atoms: C_6  and  C_7
DOCKED: REMARK    3  A    between atoms: C_10  and  C_11
DOCKED: REMARK    4  A    between atoms: C_11  and  N_12
DOCKED: REMARK    5  A    between atoms: N_12  and  C_13
DOCKED: REMARK    6  A    between atoms: N_12  and  C_16
DOCKED: REMARK    7  A    between atoms: C_13  and  C_14
DOCKED: REMARK    8  A    between atoms: C_14  and  O_15
DOCKED: REMARK    9  A    between atoms: C_16  and  C_17
DOCKED: REMARK   10  A    between atoms: C_17  and  C_18
DOCKED: REMARK                            x       y       z     vdW  Elec       q    Type
DOCKED: REMARK                         _______ _______ _______ _____ _____    ______ ____
DOCKED: USER                              x       y       z     vdW  Elec       q    Type
DOCKED: USER                           _______ _______ _______ _____ _____    ______ ____
DOCKED: ROOT
DOCKED: ATOM      1  N   UNL     1      17.981 -11.765   0.595 -0.46 -0.00    +0.000 N 
DOCKED: ATOM      2  H   UNL     1      17.618 -12.562   1.118 -0.03 +0.00    +0.000 HD
DOCKED: ENDROOT
DOCKED: BRANCH   1   3
DOCKED: ATOM      3  C   UNL     1      17.425 -10.590   1.315 -0.42 -0.00    +0.000 C 
DOCKED: BRANCH   3   7
DOCKED: ATOM      4  C   UNL     1      13.094 -10.596   1.633 -0.28 +0.00    +0.000 A 
DOCKED: ATOM      5  C   UNL     1      13.780  -9.439   1.234 -0.18 +0.00    +0.000 A 
DOCKED: ATOM      6  C   UNL     1      15.174  -9.438   1.129 -0.25 +0.00    +0.000 A 
DOCKED: ATOM      7  C   UNL     1      15.915 -10.586   1.448 -0.32 +0.00    +0.000 A 
DOCKED: ATOM      8  C   UNL     1      15.230 -11.750   1.836 -0.43 +0.00    +0.000 A 
DOCKED: ATOM      9  C   UNL     1      13.836 -11.753   1.941 -0.37 +0.00    +0.000 A 
DOCKED: BRANCH   4  11
DOCKED: ATOM     10  C   UNL     1      10.792 -11.418   1.146 -0.40 +0.00    +0.000 C 
DOCKED: ATOM     11  C   UNL     1      11.614 -10.542   1.741 -0.27 +0.00    +0.000 C 
DOCKED: BRANCH  10  13
DOCKED: ATOM     12  O   UNL     1       8.750 -10.202   1.289 -0.19 +0.00    +0.000 OA
DOCKED: ATOM     13  C   UNL     1       9.324 -11.325   1.268 -0.35 +0.00    +0.000 C 
DOCKED: ATOM     14  N   UNL     1       8.544 -12.518   1.367 -0.39 -0.00    +0.000 N 
DOCKED: ATOM     15  O   UNL     1       7.196 -12.450   1.480 -0.38 -0.00    +0.000 OA
DOCKED: ATOM     16  H   UNL     1       8.989 -13.397   1.352 -0.63 -0.00    +0.000 HD
DOCKED: ENDBRANCH  10  13
DOCKED: ENDBRANCH   4  11
DOCKED: ENDBRANCH   3   7
DOCKED: ENDBRANCH   1   3
DOCKED: BRANCH   1  17
DOCKED: ATOM     17  C   UNL     1      19.452 -11.913   0.679 -0.64 -0.00    +0.000 C 
DOCKED: BRANCH  17  18
DOCKED: ATOM     18  C   UNL     1      19.893 -12.389   2.066 -0.71 -0.00    +0.000 C 
DOCKED: BRANCH  18  19
DOCKED: ATOM     19  O   UNL     1      21.011 -11.659   2.487 -1.55 -0.00    +0.000 OA
DOCKED: ATOM     20  H   UNL     1      21.774 -11.887   1.933 -0.47 -0.00    +0.000 HD
DOCKED: ENDBRANCH  18  19
DOCKED: ENDBRANCH  17  18
DOCKED: ENDBRANCH   1  17
DOCKED: BRANCH   1  21
DOCKED: ATOM     21  C   UNL     1      17.464 -11.911  -0.786 -0.28 -0.00    +0.000 C 
DOCKED: BRANCH  21  22
DOCKED: ATOM     22  C   UNL     1      17.282 -10.537  -1.439 -0.27 -0.00    +0.000 C 
DOCKED: BRANCH  22  23
DOCKED: ATOM     23  C   UNL     1      17.914 -10.501  -2.800 -0.21 -0.00    +0.000 A 
DOCKED: ATOM     24  C   UNL     1      17.244 -10.520  -4.019 -0.14 -0.00    +0.000 A 
DOCKED: ATOM     25  N   UNL     1      18.113 -10.340  -5.039 -0.25 -0.00    +0.000 N 
DOCKED: ATOM     26  C   UNL     1      19.324 -10.191  -4.474 -0.30 -0.00    +0.000 A 
DOCKED: ATOM     27  C   UNL     1      19.243 -10.279  -3.108 -0.35 -0.00    +0.000 A 
DOCKED: ATOM     28  C   UNL     1      20.367 -10.123  -2.295 -0.46 -0.00    +0.000 A 
DOCKED: ATOM     29  C   UNL     1      21.601  -9.871  -2.922 -0.36 -0.00    +0.000 A 
DOCKED: ATOM     30  C   UNL     1      21.684  -9.781  -4.329 -0.35 -0.00    +0.000 A 
DOCKED: ATOM     31  C   UNL     1      20.533  -9.939  -5.122 -0.30 -0.00    +0.000 A 
DOCKED: ATOM     32  H   UNL     1      17.903 -10.322  -6.001 -0.00 -0.00    +0.000 HD
DOCKED: ENDBRANCH  22  23
DOCKED: ENDBRANCH  21  22
DOCKED: ENDBRANCH   1  21
DOCKED: TORSDOF 10
DOCKED: TER
DOCKED: ENDMDL
________________________________________________________________________________


	BEGINNING GENETIC ALGORITHM DOCKING 83 of 100
Run: 83 Seed: 921074043 992103036 [ Run 83 of 100 GA/GALS ]
Beginning LAMARCKIAN GENETIC ALGORITHM (LGA), with a maximum of 2500000 energy evaluations.

Final-Value: -14.115


	FINAL GENETIC ALGORITHM DOCKED STATE
	_______________________________________________


Detailed state:  trans 20.689 -6.420 -3.579 quatxyzw 0.378013 0.750473 -0.513955 0.172471 center 0.288 0.007 -0.056 ntor 10 19.1141 0.9916 32.7516 -179.9871 87.5061 140.9503 -46.8795 -59.1336 19.8896 73.2412
State:	 20.689  -6.420  -3.579   0.384  0.762 -0.522 160.137     19.11    0.99   32.75 -179.99   87.51  140.95  -46.88  -59.13   19.89   73.24

DOCKED: MODEL       83
DOCKED: USER    Run = 83
DOCKED: USER    DPF = ligand_dock.biased.dpf
DOCKED: USER  
DOCKED: USER    Estimated Free Energy of Binding    =   -9.16 kcal/mol  [=(1)+(2)+(3)-(4)]
DOCKED: USER    Estimated Inhibition Constant, Ki   =  191.48 nM (nanomolar)  [Temperature = 298.15 K]
DOCKED: USER    
DOCKED: USER    (1) Final Intermolecular Energy     =  -12.15 kcal/mol
DOCKED: USER        vdW + Hbond + desolv Energy     =  -12.15 kcal/mol
DOCKED: USER        Electrostatic Energy            =   +0.00 kcal/mol
DOCKED: USER    (2) Final Total Internal Energy     =   -1.97 kcal/mol
DOCKED: USER    (3) Torsional Free Energy           =   +2.98 kcal/mol
DOCKED: USER    (4) Unbound System's Energy  [=(2)] =   -1.97 kcal/mol
DOCKED: USER    
DOCKED: USER    
DOCKED: USER    NEWDPF move ligand.pdbqt
DOCKED: USER    NEWDPF about 0.288000 0.007000 -0.056000
DOCKED: USER    NEWDPF tran0 20.689078 -6.420207 -3.579277
DOCKED: USER    NEWDPF quaternion0 0.378013 0.750473 -0.513955 0.172471
DOCKED: USER    NEWDPF axisangle0 0.383764 0.761891 -0.521774 160.137002
DOCKED: USER    NEWDPF quat0 0.383764 0.761891 -0.521774 160.137002
DOCKED: USER    NEWDPF dihe0 19.11 0.99 32.75 -179.99 87.51 140.95 -46.88 -59.13 19.89 73.24 
DOCKED: USER  keepresnum = 1 
DOCKED: USER  
DOCKED: REMARK  Name = 
DOCKED: REMARK  10 active torsions:
DOCKED: REMARK  status: ('A' for Active; 'I' for Inactive)
DOCKED: REMARK    1  A    between atoms: C_2  and  C_5
DOCKED: REMARK    2  A    between atoms: C_6  and  C_7
DOCKED: REMARK    3  A    between atoms: C_10  and  C_11
DOCKED: REMARK    4  A    between atoms: C_11  and  N_12
DOCKED: REMARK    5  A    between atoms: N_12  and  C_13
DOCKED: REMARK    6  A    between atoms: N_12  and  C_16
DOCKED: REMARK    7  A    between atoms: C_13  and  C_14
DOCKED: REMARK    8  A    between atoms: C_14  and  O_15
DOCKED: REMARK    9  A    between atoms: C_16  and  C_17
DOCKED: REMARK   10  A    between atoms: C_17  and  C_18
DOCKED: REMARK                            x       y       z     vdW  Elec       q    Type
DOCKED: REMARK                         _______ _______ _______ _____ _____    ______ ____
DOCKED: USER                              x       y       z     vdW  Elec       q    Type
DOCKED: USER                           _______ _______ _______ _____ _____    ______ ____
DOCKED: ROOT
DOCKED: ATOM      1  N   UNL     1      21.421  -7.446  -3.136 -0.38 -0.00    +0.000 N 
DOCKED: ATOM      2  H   UNL     1      22.335  -7.890  -3.218 -0.04 -0.00    +0.000 HD
DOCKED: ENDROOT
DOCKED: BRANCH   1   3
DOCKED: ATOM      3  C   UNL     1      21.677  -6.039  -3.541 -0.30 -0.00    +0.000 C 
DOCKED: BRANCH   3   7
DOCKED: ATOM      4  C   UNL     1      21.237  -3.080  -0.393 -0.37 +0.00    +0.000 A 
DOCKED: ATOM      5  C   UNL     1      22.498  -3.356  -0.943 -0.11 +0.00    +0.000 A 
DOCKED: ATOM      6  C   UNL     1      22.639  -4.306  -1.958 -0.31 +0.00    +0.000 A 
DOCKED: ATOM      7  C   UNL     1      21.526  -5.022  -2.426 -0.35 -0.00    +0.000 A 
DOCKED: ATOM      8  C   UNL     1      20.261  -4.739  -1.886 -0.27 -0.00    +0.000 A 
DOCKED: ATOM      9  C   UNL     1      20.117  -3.788  -0.871 -0.34 -0.00    +0.000 A 
DOCKED: BRANCH   4  11
DOCKED: ATOM     10  C   UNL     1      20.804  -2.363   1.955 -0.57 -0.00    +0.000 C 
DOCKED: ATOM     11  C   UNL     1      21.142  -2.070   0.691 -0.44 -0.00    +0.000 C 
DOCKED: BRANCH  10  13
DOCKED: ATOM     12  O   UNL     1      20.366  -1.630   4.178 -0.83 -0.00    +0.000 OA
DOCKED: ATOM     13  C   UNL     1      20.710  -1.327   3.003 -0.64 -0.00    +0.000 C 
DOCKED: ATOM     14  N   UNL     1      21.009   0.033   2.684 -0.44 -0.00    +0.000 N 
DOCKED: ATOM     15  O   UNL     1      20.927   0.995   3.634 -0.43 -0.00    +0.000 OA
DOCKED: ATOM     16  H   UNL     1      21.278   0.274   1.767 -0.01 -0.00    +0.000 HD
DOCKED: ENDBRANCH  10  13
DOCKED: ENDBRANCH   4  11
DOCKED: ENDBRANCH   3   7
DOCKED: ENDBRANCH   1   3
DOCKED: BRANCH   1  17
DOCKED: ATOM     17  C   UNL     1      20.556  -8.215  -4.060 -0.32 -0.00    +0.000 C 
DOCKED: BRANCH  17  18
DOCKED: ATOM     18  C   UNL     1      21.372  -9.178  -4.927 -0.34 -0.00    +0.000 C 
DOCKED: BRANCH  18  19
DOCKED: ATOM     19  O   UNL     1      22.132 -10.026  -4.111 -0.44 -0.00    +0.000 OA
DOCKED: ATOM     20  H   UNL     1      22.505  -9.517  -3.375 -0.03 -0.00    +0.000 HD
DOCKED: ENDBRANCH  18  19
DOCKED: ENDBRANCH  17  18
DOCKED: ENDBRANCH   1  17
DOCKED: BRANCH   1  21
DOCKED: ATOM     21  C   UNL     1      21.020  -7.588  -1.717 -0.40 -0.00    +0.000 C 
DOCKED: BRANCH  21  22
DOCKED: ATOM     22  C   UNL     1      21.543  -8.909  -1.142 -0.40 -0.00    +0.000 C 
DOCKED: BRANCH  22  23
DOCKED: ATOM     23  C   UNL     1      20.422  -9.887  -0.937 -0.51 -0.00    +0.000 A 
DOCKED: ATOM     24  C   UNL     1      19.568 -10.376  -1.920 -0.39 -0.00    +0.000 A 
DOCKED: ATOM     25  N   UNL     1      18.764 -11.338  -1.412 -0.41 -0.00    +0.000 N 
DOCKED: ATOM     26  C   UNL     1      19.114 -11.471  -0.121 -0.48 -0.00    +0.000 A 
DOCKED: ATOM     27  C   UNL     1      20.126 -10.605   0.206 -0.56 -0.00    +0.000 A 
DOCKED: ATOM     28  C   UNL     1      20.685 -10.578   1.485 -0.51 -0.00    +0.000 A 
DOCKED: ATOM     29  C   UNL     1      20.175 -11.475   2.442 -0.68 -0.00    +0.000 A 
DOCKED: ATOM     30  C   UNL     1      19.134 -12.366   2.105 -0.39 -0.00    +0.000 A 
DOCKED: ATOM     31  C   UNL     1      18.593 -12.372   0.807 -0.47 -0.00    +0.000 A 
DOCKED: ATOM     32  H   UNL     1      18.065 -11.840  -1.890 +0.01 -0.00    +0.000 HD
DOCKED: ENDBRANCH  22  23
DOCKED: ENDBRANCH  21  22
DOCKED: ENDBRANCH   1  21
DOCKED: TORSDOF 10
DOCKED: TER
DOCKED: ENDMDL
________________________________________________________________________________


	BEGINNING GENETIC ALGORITHM DOCKING 84 of 100
Run: 84 Seed: 921101177 1433287957 [ Run 84 of 100 GA/GALS ]
Beginning LAMARCKIAN GENETIC ALGORITHM (LGA), with a maximum of 2500000 energy evaluations.

Final-Value: -14.492


	FINAL GENETIC ALGORITHM DOCKED STATE
	_______________________________________________


Detailed state:  trans 21.170 -7.904 -5.208 quatxyzw -0.682381 -0.419233 -0.243296 -0.547182 center 0.288 0.007 -0.056 ntor 10 154.8258 -50.0743 19.7492 -158.7140 154.5381 -179.3871 -114.9238 14.0489 26.7514 55.7819
State:	 21.170  -7.904  -5.208  -0.815 -0.501 -0.291 -113.652    154.83  -50.07   19.75 -158.71  154.54 -179.39 -114.92   14.05   26.75   55.78

DOCKED: MODEL       84
DOCKED: USER    Run = 84
DOCKED: USER    DPF = ligand_dock.biased.dpf
DOCKED: USER  
DOCKED: USER    Estimated Free Energy of Binding    =   -8.56 kcal/mol  [=(1)+(2)+(3)-(4)]
DOCKED: USER    Estimated Inhibition Constant, Ki   =  529.81 nM (nanomolar)  [Temperature = 298.15 K]
DOCKED: USER    
DOCKED: USER    (1) Final Intermolecular Energy     =  -11.54 kcal/mol
DOCKED: USER        vdW + Hbond + desolv Energy     =  -11.54 kcal/mol
DOCKED: USER        Electrostatic Energy            =   +0.00 kcal/mol
DOCKED: USER    (2) Final Total Internal Energy     =   -2.95 kcal/mol
DOCKED: USER    (3) Torsional Free Energy           =   +2.98 kcal/mol
DOCKED: USER    (4) Unbound System's Energy  [=(2)] =   -2.95 kcal/mol
DOCKED: USER    
DOCKED: USER    
DOCKED: USER    NEWDPF move ligand.pdbqt
DOCKED: USER    NEWDPF about 0.288000 0.007000 -0.056000
DOCKED: USER    NEWDPF tran0 21.170348 -7.903973 -5.207642
DOCKED: USER    NEWDPF quaternion0 -0.682381 -0.419233 -0.243296 -0.547182
DOCKED: USER    NEWDPF axisangle0 -0.815256 -0.500867 -0.290671 -113.652250
DOCKED: USER    NEWDPF quat0 -0.815256 -0.500867 -0.290671 -113.652250
DOCKED: USER    NEWDPF dihe0 154.83 -50.07 19.75 -158.71 154.54 -179.39 -114.92 14.05 26.75 55.78 
DOCKED: USER  keepresnum = 1 
DOCKED: USER  
DOCKED: REMARK  Name = 
DOCKED: REMARK  10 active torsions:
DOCKED: REMARK  status: ('A' for Active; 'I' for Inactive)
DOCKED: REMARK    1  A    between atoms: C_2  and  C_5
DOCKED: REMARK    2  A    between atoms: C_6  and  C_7
DOCKED: REMARK    3  A    between atoms: C_10  and  C_11
DOCKED: REMARK    4  A    between atoms: C_11  and  N_12
DOCKED: REMARK    5  A    between atoms: N_12  and  C_13
DOCKED: REMARK    6  A    between atoms: N_12  and  C_16
DOCKED: REMARK    7  A    between atoms: C_13  and  C_14
DOCKED: REMARK    8  A    between atoms: C_14  and  O_15
DOCKED: REMARK    9  A    between atoms: C_16  and  C_17
DOCKED: REMARK   10  A    between atoms: C_17  and  C_18
DOCKED: REMARK                            x       y       z     vdW  Elec       q    Type
DOCKED: REMARK                         _______ _______ _______ _____ _____    ______ ____
DOCKED: USER                              x       y       z     vdW  Elec       q    Type
DOCKED: USER                           _______ _______ _______ _____ _____    ______ ____
DOCKED: ROOT
DOCKED: ATOM      1  N   UNL     1      20.225  -8.286  -6.070 -0.12 -0.00    +0.000 N 
DOCKED: ATOM      2  H   UNL     1      20.065  -8.844  -6.909 +0.01 -0.00    +0.000 HD
DOCKED: ENDROOT
DOCKED: BRANCH   1   3
DOCKED: ATOM      3  C   UNL     1      21.443  -8.893  -5.473 -0.28 -0.00    +0.000 C 
DOCKED: BRANCH   3   7
DOCKED: ATOM      4  C   UNL     1      21.175  -9.829  -1.241 -0.58 -0.00    +0.000 A 
DOCKED: ATOM      5  C   UNL     1      21.407 -10.841  -2.183 -0.31 -0.00    +0.000 A 
DOCKED: ATOM      6  C   UNL     1      21.496 -10.540  -3.545 -0.45 -0.00    +0.000 A 
DOCKED: ATOM      7  C   UNL     1      21.327  -9.222  -3.998 -0.36 -0.00    +0.000 A 
DOCKED: ATOM      8  C   UNL     1      21.107  -8.204  -3.055 -0.38 -0.00    +0.000 A 
DOCKED: ATOM      9  C   UNL     1      21.019  -8.503  -1.692 -0.46 -0.00    +0.000 A 
DOCKED: BRANCH   4  11
DOCKED: ATOM     10  C   UNL     1      20.354 -11.235   0.647 -0.70 -0.00    +0.000 C 
DOCKED: ATOM     11  C   UNL     1      21.078 -10.202   0.193 -0.69 -0.00    +0.000 C 
DOCKED: BRANCH  10  13
DOCKED: ATOM     12  O   UNL     1      19.919 -12.719   2.458 -1.55 -0.00    +0.000 OA
DOCKED: ATOM     13  C   UNL     1      20.274 -11.568   2.083 -0.78 -0.00    +0.000 C 
DOCKED: ATOM     14  N   UNL     1      20.601 -10.576   3.059 -0.64 -0.00    +0.000 N 
DOCKED: ATOM     15  O   UNL     1      20.532 -10.866   4.380 -0.91 -0.00    +0.000 OA
DOCKED: ATOM     16  H   UNL     1      20.878  -9.677   2.770 -0.59 -0.00    +0.000 HD
DOCKED: ENDBRANCH  10  13
DOCKED: ENDBRANCH   4  11
DOCKED: ENDBRANCH   3   7
DOCKED: ENDBRANCH   1   3
DOCKED: BRANCH   1  17
DOCKED: ATOM     17  C   UNL     1      20.399  -6.905  -6.578 -0.08 -0.00    +0.000 C 
DOCKED: BRANCH  17  18
DOCKED: ATOM     18  C   UNL     1      20.828  -6.894  -8.048 -0.04 -0.00    +0.000 C 
DOCKED: BRANCH  18  19
DOCKED: ATOM     19  O   UNL     1      20.836  -8.202  -8.551 -0.06 -0.00    +0.000 OA
DOCKED: ATOM     20  H   UNL     1      19.989  -8.385  -8.986 +0.00 -0.00    +0.000 HD
DOCKED: ENDBRANCH  18  19
DOCKED: ENDBRANCH  17  18
DOCKED: ENDBRANCH   1  17
DOCKED: BRANCH   1  21
DOCKED: ATOM     21  C   UNL     1      19.014  -8.444  -5.232 -0.18 -0.00    +0.000 C 
DOCKED: BRANCH  21  22
DOCKED: ATOM     22  C   UNL     1      18.509  -9.890  -5.287 -0.25 -0.00    +0.000 C 
DOCKED: BRANCH  22  23
DOCKED: ATOM     23  C   UNL     1      17.227 -10.040  -4.519 -0.22 -0.00    +0.000 A 
DOCKED: ATOM     24  C   UNL     1      15.944 -10.059  -5.056 -0.18 -0.00    +0.000 A 
DOCKED: ATOM     25  N   UNL     1      15.035 -10.345  -4.097 -0.21 -0.00    +0.000 N 
DOCKED: ATOM     26  C   UNL     1      15.734 -10.521  -2.962 -0.22 -0.00    +0.000 A 
DOCKED: ATOM     27  C   UNL     1      17.077 -10.347  -3.180 -0.15 -0.00    +0.000 A 
DOCKED: ATOM     28  C   UNL     1      18.013 -10.512  -2.158 -0.24 -0.00    +0.000 A 
DOCKED: ATOM     29  C   UNL     1      17.537 -10.864  -0.882 -0.31 -0.00    +0.000 A 
DOCKED: ATOM     30  C   UNL     1      16.155 -11.043  -0.658 -0.30 +0.00    +0.000 A 
DOCKED: ATOM     31  C   UNL     1      15.235 -10.874  -1.708 -0.28 -0.00    +0.000 A 
DOCKED: ATOM     32  H   UNL     1      14.059 -10.411  -4.206 -0.01 -0.00    +0.000 HD
DOCKED: ENDBRANCH  22  23
DOCKED: ENDBRANCH  21  22
DOCKED: ENDBRANCH   1  21
DOCKED: TORSDOF 10
DOCKED: TER
DOCKED: ENDMDL
________________________________________________________________________________


	BEGINNING GENETIC ALGORITHM DOCKING 85 of 100
Run: 85 Seed: 1931883883 681069918 [ Run 85 of 100 GA/GALS ]
Beginning LAMARCKIAN GENETIC ALGORITHM (LGA), with a maximum of 2500000 energy evaluations.

Final-Value: -14.883


	FINAL GENETIC ALGORITHM DOCKED STATE
	_______________________________________________


Detailed state:  trans 21.529 -9.235 -5.627 quatxyzw 0.464783 -0.518535 0.039503 -0.716616 center 0.288 0.007 -0.056 ntor 10 150.5019 -85.8439 90.6118 -42.2713 34.0921 -177.1539 -112.3306 154.6316 -40.0771 -38.5123
State:	 21.529  -9.235  -5.627   0.666 -0.743  0.057 -88.448    150.50  -85.84   90.61  -42.27   34.09 -177.15 -112.33  154.63  -40.08  -38.51

DOCKED: MODEL       85
DOCKED: USER    Run = 85
DOCKED: USER    DPF = ligand_dock.biased.dpf
DOCKED: USER  
DOCKED: USER    Estimated Free Energy of Binding    =   -9.87 kcal/mol  [=(1)+(2)+(3)-(4)]
DOCKED: USER    Estimated Inhibition Constant, Ki   =   57.81 nM (nanomolar)  [Temperature = 298.15 K]
DOCKED: USER    
DOCKED: USER    (1) Final Intermolecular Energy     =  -12.86 kcal/mol
DOCKED: USER        vdW + Hbond + desolv Energy     =  -12.86 kcal/mol
DOCKED: USER        Electrostatic Energy            =   +0.00 kcal/mol
DOCKED: USER    (2) Final Total Internal Energy     =   -2.03 kcal/mol
DOCKED: USER    (3) Torsional Free Energy           =   +2.98 kcal/mol
DOCKED: USER    (4) Unbound System's Energy  [=(2)] =   -2.03 kcal/mol
DOCKED: USER    
DOCKED: USER    
DOCKED: USER    NEWDPF move ligand.pdbqt
DOCKED: USER    NEWDPF about 0.288000 0.007000 -0.056000
DOCKED: USER    NEWDPF tran0 21.529455 -9.234662 -5.627001
DOCKED: USER    NEWDPF quaternion0 0.464783 -0.518535 0.039503 -0.716616
DOCKED: USER    NEWDPF axisangle0 0.666386 -0.743453 0.056638 -88.448451
DOCKED: USER    NEWDPF quat0 0.666386 -0.743453 0.056638 -88.448451
DOCKED: USER    NEWDPF dihe0 150.50 -85.84 90.61 -42.27 34.09 -177.15 -112.33 154.63 -40.08 -38.51 
DOCKED: USER  keepresnum = 1 
DOCKED: USER  
DOCKED: REMARK  Name = 
DOCKED: REMARK  10 active torsions:
DOCKED: REMARK  status: ('A' for Active; 'I' for Inactive)
DOCKED: REMARK    1  A    between atoms: C_2  and  C_5
DOCKED: REMARK    2  A    between atoms: C_6  and  C_7
DOCKED: REMARK    3  A    between atoms: C_10  and  C_11
DOCKED: REMARK    4  A    between atoms: C_11  and  N_12
DOCKED: REMARK    5  A    between atoms: N_12  and  C_13
DOCKED: REMARK    6  A    between atoms: N_12  and  C_16
DOCKED: REMARK    7  A    between atoms: C_13  and  C_14
DOCKED: REMARK    8  A    between atoms: C_14  and  O_15
DOCKED: REMARK    9  A    between atoms: C_16  and  C_17
DOCKED: REMARK   10  A    between atoms: C_17  and  C_18
DOCKED: REMARK                            x       y       z     vdW  Elec       q    Type
DOCKED: REMARK                         _______ _______ _______ _____ _____    ______ ____
DOCKED: USER                              x       y       z     vdW  Elec       q    Type
DOCKED: USER                           _______ _______ _______ _____ _____    ______ ____
DOCKED: ROOT
DOCKED: ATOM      1  N   UNL     1      21.096  -8.855  -6.832 -0.14 -0.00    +0.000 N 
DOCKED: ATOM      2  H   UNL     1      20.680  -8.074  -7.339 +0.00 -0.00    +0.000 HD
DOCKED: ENDROOT
DOCKED: BRANCH   1   3
DOCKED: ATOM      3  C   UNL     1      21.769  -8.203  -5.677 -0.23 -0.00    +0.000 C 
DOCKED: BRANCH   3   7
DOCKED: ATOM      4  C   UNL     1      21.209 -10.175  -1.848 -0.53 -0.00    +0.000 A 
DOCKED: ATOM      5  C   UNL     1      21.660 -10.895  -2.965 -0.24 -0.00    +0.000 A 
DOCKED: ATOM      6  C   UNL     1      21.843 -10.261  -4.196 -0.30 -0.00    +0.000 A 
DOCKED: ATOM      7  C   UNL     1      21.551  -8.896  -4.346 -0.30 -0.00    +0.000 A 
DOCKED: ATOM      8  C   UNL     1      21.112  -8.169  -3.227 -0.37 -0.00    +0.000 A 
DOCKED: ATOM      9  C   UNL     1      20.929  -8.802  -1.994 -0.45 -0.00    +0.000 A 
DOCKED: BRANCH   4  11
DOCKED: ATOM     10  C   UNL     1      20.359 -10.391   0.485 -0.65 -0.00    +0.000 C 
DOCKED: ATOM     11  C   UNL     1      21.020 -10.898  -0.565 -0.57 -0.00    +0.000 C 
DOCKED: BRANCH  10  13
DOCKED: ATOM     12  O   UNL     1      19.902 -12.363   1.739 -1.80 -0.00    +0.000 OA
DOCKED: ATOM     13  C   UNL     1      20.202 -11.138   1.749 -0.74 -0.00    +0.000 C 
DOCKED: ATOM     14  N   UNL     1      20.388 -10.467   2.997 -0.63 -0.00    +0.000 N 
DOCKED: ATOM     15  O   UNL     1      20.247 -11.138   4.165 -1.09 -0.00    +0.000 OA
DOCKED: ATOM     16  H   UNL     1      20.622  -9.511   3.008 -0.58 -0.00    +0.000 HD
DOCKED: ENDBRANCH  10  13
DOCKED: ENDBRANCH   4  11
DOCKED: ENDBRANCH   3   7
DOCKED: ENDBRANCH   1   3
DOCKED: BRANCH   1  17
DOCKED: ATOM     17  C   UNL     1      19.945  -9.717  -6.479 -0.23 -0.00    +0.000 C 
DOCKED: BRANCH  17  18
DOCKED: ATOM     18  C   UNL     1      19.038  -9.970  -7.687 -0.23 -0.00    +0.000 C 
DOCKED: BRANCH  18  19
DOCKED: ATOM     19  O   UNL     1      19.072  -8.864  -8.547 -0.09 -0.00    +0.000 OA
DOCKED: ATOM     20  H   UNL     1      19.781  -8.983  -9.198 +0.00 -0.00    +0.000 HD
DOCKED: ENDBRANCH  18  19
DOCKED: ENDBRANCH  17  18
DOCKED: ENDBRANCH   1  17
DOCKED: BRANCH   1  21
DOCKED: ATOM     21  C   UNL     1      22.037  -9.504  -7.775 -0.20 -0.00    +0.000 C 
DOCKED: BRANCH  21  22
DOCKED: ATOM     22  C   UNL     1      22.723 -10.701  -7.110 -0.39 -0.00    +0.000 C 
DOCKED: BRANCH  22  23
DOCKED: ATOM     23  C   UNL     1      23.792 -11.269  -7.999 -0.38 -0.00    +0.000 A 
DOCKED: ATOM     24  C   UNL     1      25.161 -11.057  -7.877 -0.32 -0.00    +0.000 A 
DOCKED: ATOM     25  N   UNL     1      25.839 -11.826  -8.759 -0.42 -0.00    +0.000 N 
DOCKED: ATOM     26  C   UNL     1      24.910 -12.533  -9.426 -0.36 -0.00    +0.000 A 
DOCKED: ATOM     27  C   UNL     1      23.647 -12.224  -8.988 -0.37 -0.00    +0.000 A 
DOCKED: ATOM     28  C   UNL     1      22.515 -12.854  -9.507 -0.22 -0.00    +0.000 A 
DOCKED: ATOM     29  C   UNL     1      22.706 -13.827 -10.505 -0.28 +0.00    +0.000 A 
DOCKED: ATOM     30  C   UNL     1      24.005 -14.145 -10.957 -0.34 -0.00    +0.000 A 
DOCKED: ATOM     31  C   UNL     1      25.127 -13.495 -10.413 -0.23 -0.00    +0.000 A 
DOCKED: ATOM     32  H   UNL     1      26.814 -11.861  -8.888 -0.18 -0.00    +0.000 HD
DOCKED: ENDBRANCH  22  23
DOCKED: ENDBRANCH  21  22
DOCKED: ENDBRANCH   1  21
DOCKED: TORSDOF 10
DOCKED: TER
DOCKED: ENDMDL
________________________________________________________________________________


	BEGINNING GENETIC ALGORITHM DOCKING 86 of 100
Run: 86 Seed: 803774944 2099917330 [ Run 86 of 100 GA/GALS ]
Beginning LAMARCKIAN GENETIC ALGORITHM (LGA), with a maximum of 2500000 energy evaluations.

Final-Value: -14.426


	FINAL GENETIC ALGORITHM DOCKED STATE
	_______________________________________________


Detailed state:  trans 20.001 -10.819 -6.646 quatxyzw 0.856329 -0.201241 -0.341210 -0.331328 center 0.288 0.007 -0.056 ntor 10 17.1060 -106.0908 61.3594 178.2055 64.3958 144.1196 141.9701 99.1841 147.6602 -164.8841
State:	 20.001 -10.819  -6.646   0.908 -0.213 -0.362 -141.301     17.11 -106.09   61.36  178.21   64.40  144.12  141.97   99.18  147.66 -164.88

DOCKED: MODEL       86
DOCKED: USER    Run = 86
DOCKED: USER    DPF = ligand_dock.biased.dpf
DOCKED: USER  
DOCKED: USER    Estimated Free Energy of Binding    =   -8.95 kcal/mol  [=(1)+(2)+(3)-(4)]
DOCKED: USER    Estimated Inhibition Constant, Ki   =  272.99 nM (nanomolar)  [Temperature = 298.15 K]
DOCKED: USER    
DOCKED: USER    (1) Final Intermolecular Energy     =  -11.94 kcal/mol
DOCKED: USER        vdW + Hbond + desolv Energy     =  -11.94 kcal/mol
DOCKED: USER        Electrostatic Energy            =   +0.00 kcal/mol
DOCKED: USER    (2) Final Total Internal Energy     =   -2.49 kcal/mol
DOCKED: USER    (3) Torsional Free Energy           =   +2.98 kcal/mol
DOCKED: USER    (4) Unbound System's Energy  [=(2)] =   -2.49 kcal/mol
DOCKED: USER    
DOCKED: USER    
DOCKED: USER    NEWDPF move ligand.pdbqt
DOCKED: USER    NEWDPF about 0.288000 0.007000 -0.056000
DOCKED: USER    NEWDPF tran0 20.001274 -10.819166 -6.645925
DOCKED: USER    NEWDPF quaternion0 0.856329 -0.201241 -0.341210 -0.331328
DOCKED: USER    NEWDPF axisangle0 0.907594 -0.213289 -0.361636 -141.301214
DOCKED: USER    NEWDPF quat0 0.907594 -0.213289 -0.361636 -141.301214
DOCKED: USER    NEWDPF dihe0 17.11 -106.09 61.36 178.21 64.40 144.12 141.97 99.18 147.66 -164.88 
DOCKED: USER  keepresnum = 1 
DOCKED: USER  
DOCKED: REMARK  Name = 
DOCKED: REMARK  10 active torsions:
DOCKED: REMARK  status: ('A' for Active; 'I' for Inactive)
DOCKED: REMARK    1  A    between atoms: C_2  and  C_5
DOCKED: REMARK    2  A    between atoms: C_6  and  C_7
DOCKED: REMARK    3  A    between atoms: C_10  and  C_11
DOCKED: REMARK    4  A    between atoms: C_11  and  N_12
DOCKED: REMARK    5  A    between atoms: N_12  and  C_13
DOCKED: REMARK    6  A    between atoms: N_12  and  C_16
DOCKED: REMARK    7  A    between atoms: C_13  and  C_14
DOCKED: REMARK    8  A    between atoms: C_14  and  O_15
DOCKED: REMARK    9  A    between atoms: C_16  and  C_17
DOCKED: REMARK   10  A    between atoms: C_17  and  C_18
DOCKED: REMARK                            x       y       z     vdW  Elec       q    Type
DOCKED: REMARK                         _______ _______ _______ _____ _____    ______ ____
DOCKED: USER                              x       y       z     vdW  Elec       q    Type
DOCKED: USER                           _______ _______ _______ _____ _____    ______ ____
DOCKED: ROOT
DOCKED: ATOM      1  N   UNL     1      19.145  -9.864  -6.275 -0.20 -0.00    +0.000 N 
DOCKED: ATOM      2  H   UNL     1      18.669  -9.466  -5.466 +0.00 -0.00    +0.000 HD
DOCKED: ENDROOT
DOCKED: BRANCH   1   3
DOCKED: ATOM      3  C   UNL     1      20.345 -10.517  -5.690 -0.38 -0.00    +0.000 C 
DOCKED: BRANCH   3   7
DOCKED: ATOM      4  C   UNL     1      20.344 -10.631  -1.348 -0.47 -0.00    +0.000 A 
DOCKED: ATOM      5  C   UNL     1      21.366  -9.970  -2.046 -0.51 -0.00    +0.000 A 
DOCKED: ATOM      6  C   UNL     1      21.365  -9.931  -3.443 -0.45 -0.00    +0.000 A 
DOCKED: ATOM      7  C   UNL     1      20.356 -10.577  -4.175 -0.41 -0.00    +0.000 A 
DOCKED: ATOM      8  C   UNL     1      19.325 -11.228  -3.478 -0.32 -0.00    +0.000 A 
DOCKED: ATOM      9  C   UNL     1      19.324 -11.268  -2.081 -0.27 -0.00    +0.000 A 
DOCKED: BRANCH   4  11
DOCKED: ATOM     10  C   UNL     1      20.146 -11.744   0.874 -0.65 -0.00    +0.000 C 
DOCKED: ATOM     11  C   UNL     1      20.397 -10.653   0.135 -0.66 -0.00    +0.000 C 
DOCKED: BRANCH  10  13
DOCKED: ATOM     12  O   UNL     1      19.901 -12.750   3.018 -1.43 -0.00    +0.000 OA
DOCKED: ATOM     13  C   UNL     1      20.198 -11.723   2.349 -0.77 -0.00    +0.000 C 
DOCKED: ATOM     14  N   UNL     1      20.589 -10.527   3.027 -0.64 -0.00    +0.000 N 
DOCKED: ATOM     15  O   UNL     1      20.642 -10.491   4.380 -0.85 -0.00    +0.000 OA
DOCKED: ATOM     16  H   UNL     1      20.821  -9.723   2.508 -0.57 -0.00    +0.000 HD
DOCKED: ENDBRANCH  10  13
DOCKED: ENDBRANCH   4  11
DOCKED: ENDBRANCH   3   7
DOCKED: ENDBRANCH   1   3
DOCKED: BRANCH   1  17
DOCKED: ATOM     17  C   UNL     1      18.151 -10.792  -6.863 -0.34 -0.00    +0.000 C 
DOCKED: BRANCH  17  18
DOCKED: ATOM     18  C   UNL     1      16.731 -10.474  -6.387 -0.25 -0.00    +0.000 C 
DOCKED: BRANCH  18  19
DOCKED: ATOM     19  O   UNL     1      16.705 -10.388  -4.989 -0.24 -0.00    +0.000 OA
DOCKED: ATOM     20  H   UNL     1      17.228 -11.112  -4.611 -0.01 -0.00    +0.000 HD
DOCKED: ENDBRANCH  18  19
DOCKED: ENDBRANCH  17  18
DOCKED: ENDBRANCH   1  17
DOCKED: BRANCH   1  21
DOCKED: ATOM     21  C   UNL     1      19.467  -8.724  -7.165 -0.12 -0.00    +0.000 C 
DOCKED: BRANCH  21  22
DOCKED: ATOM     22  C   UNL     1      20.968  -8.692  -7.474 -0.12 -0.00    +0.000 C 
DOCKED: BRANCH  22  23
DOCKED: ATOM     23  C   UNL     1      21.313  -9.667  -8.563 -0.15 -0.00    +0.000 A 
DOCKED: ATOM     24  C   UNL     1      20.851  -9.632  -9.874 -0.11 -0.00    +0.000 A 
DOCKED: ATOM     25  N   UNL     1      21.467 -10.580 -10.617 -0.14 -0.00    +0.000 N 
DOCKED: ATOM     26  C   UNL     1      22.324 -11.202  -9.790 -0.20 -0.00    +0.000 A 
DOCKED: ATOM     27  C   UNL     1      22.263 -10.670  -8.527 -0.23 -0.00    +0.000 A 
DOCKED: ATOM     28  C   UNL     1      23.086 -11.128  -7.497 -0.38 -0.00    +0.000 A 
DOCKED: ATOM     29  C   UNL     1      23.991 -12.164  -7.791 -0.43 -0.00    +0.000 A 
DOCKED: ATOM     30  C   UNL     1      24.054 -12.712  -9.091 -0.38 -0.00    +0.000 A 
DOCKED: ATOM     31  C   UNL     1      23.214 -12.227 -10.110 -0.26 -0.00    +0.000 A 
DOCKED: ATOM     32  H   UNL     1      21.318 -10.775 -11.570 -0.01 -0.00    +0.000 HD
DOCKED: ENDBRANCH  22  23
DOCKED: ENDBRANCH  21  22
DOCKED: ENDBRANCH   1  21
DOCKED: TORSDOF 10
DOCKED: TER
DOCKED: ENDMDL
________________________________________________________________________________


	BEGINNING GENETIC ALGORITHM DOCKING 87 of 100
Run: 87 Seed: 1305739862 926418725 [ Run 87 of 100 GA/GALS ]
Beginning LAMARCKIAN GENETIC ALGORITHM (LGA), with a maximum of 2500000 energy evaluations.

Final-Value: -15.724


	FINAL GENETIC ALGORITHM DOCKED STATE
	_______________________________________________


Detailed state:  trans 18.814 -11.627 -0.417 quatxyzw -0.359697 0.574291 -0.270787 -0.683727 center 0.288 0.007 -0.056 ntor 10 170.6311 23.4797 139.6735 -92.8102 134.8043 129.0485 150.0833 -35.5718 -37.6980 134.5901
State:	 18.814 -11.627  -0.417  -0.493  0.787 -0.371 -93.729    170.63   23.48  139.67  -92.81  134.80  129.05  150.08  -35.57  -37.70  134.59

DOCKED: MODEL       87
DOCKED: USER    Run = 87
DOCKED: USER    DPF = ligand_dock.biased.dpf
DOCKED: USER  
DOCKED: USER    Estimated Free Energy of Binding    =   -9.73 kcal/mol  [=(1)+(2)+(3)-(4)]
DOCKED: USER    Estimated Inhibition Constant, Ki   =   73.18 nM (nanomolar)  [Temperature = 298.15 K]
DOCKED: USER    
DOCKED: USER    (1) Final Intermolecular Energy     =  -12.72 kcal/mol
DOCKED: USER        vdW + Hbond + desolv Energy     =  -12.72 kcal/mol
DOCKED: USER        Electrostatic Energy            =   +0.00 kcal/mol
DOCKED: USER    (2) Final Total Internal Energy     =   -3.01 kcal/mol
DOCKED: USER    (3) Torsional Free Energy           =   +2.98 kcal/mol
DOCKED: USER    (4) Unbound System's Energy  [=(2)] =   -3.01 kcal/mol
DOCKED: USER    
DOCKED: USER    
DOCKED: USER    NEWDPF move ligand.pdbqt
DOCKED: USER    NEWDPF about 0.288000 0.007000 -0.056000
DOCKED: USER    NEWDPF tran0 18.814434 -11.627309 -0.416669
DOCKED: USER    NEWDPF quaternion0 -0.359697 0.574291 -0.270787 -0.683727
DOCKED: USER    NEWDPF axisangle0 -0.492913 0.786983 -0.371074 -93.728888
DOCKED: USER    NEWDPF quat0 -0.492913 0.786983 -0.371074 -93.728888
DOCKED: USER    NEWDPF dihe0 170.63 23.48 139.67 -92.81 134.80 129.05 150.08 -35.57 -37.70 134.59 
DOCKED: USER  keepresnum = 1 
DOCKED: USER  
DOCKED: REMARK  Name = 
DOCKED: REMARK  10 active torsions:
DOCKED: REMARK  status: ('A' for Active; 'I' for Inactive)
DOCKED: REMARK    1  A    between atoms: C_2  and  C_5
DOCKED: REMARK    2  A    between atoms: C_6  and  C_7
DOCKED: REMARK    3  A    between atoms: C_10  and  C_11
DOCKED: REMARK    4  A    between atoms: C_11  and  N_12
DOCKED: REMARK    5  A    between atoms: N_12  and  C_13
DOCKED: REMARK    6  A    between atoms: N_12  and  C_16
DOCKED: REMARK    7  A    between atoms: C_13  and  C_14
DOCKED: REMARK    8  A    between atoms: C_14  and  O_15
DOCKED: REMARK    9  A    between atoms: C_16  and  C_17
DOCKED: REMARK   10  A    between atoms: C_17  and  C_18
DOCKED: REMARK                            x       y       z     vdW  Elec       q    Type
DOCKED: REMARK                         _______ _______ _______ _____ _____    ______ ____
DOCKED: USER                              x       y       z     vdW  Elec       q    Type
DOCKED: USER                           _______ _______ _______ _____ _____    ______ ____
DOCKED: ROOT
DOCKED: ATOM      1  N   UNL     1      18.577 -10.790   0.596 -0.42 -0.00    +0.000 N 
DOCKED: ATOM      2  H   UNL     1      18.116  -9.913   0.837 -0.01 -0.00    +0.000 HD
DOCKED: ENDROOT
DOCKED: BRANCH   1   3
DOCKED: ATOM      3  C   UNL     1      17.843 -11.251  -0.612 -0.43 -0.00    +0.000 C 
DOCKED: BRANCH   3   7
DOCKED: ATOM      4  C   UNL     1      13.517 -11.335  -0.237 -0.33 +0.00    +0.000 A 
DOCKED: ATOM      5  C   UNL     1      14.236 -10.162   0.038 -0.22 +0.00    +0.000 A 
DOCKED: ATOM      6  C   UNL     1      15.627 -10.134  -0.085 -0.26 +0.00    +0.000 A 
DOCKED: ATOM      7  C   UNL     1      16.335 -11.288  -0.459 -0.32 +0.00    +0.000 A 
DOCKED: ATOM      8  C   UNL     1      15.617 -12.460  -0.748 -0.36 +0.00    +0.000 A 
DOCKED: ATOM      9  C   UNL     1      14.224 -12.490  -0.626 -0.29 +0.00    +0.000 A 
DOCKED: BRANCH   4  11
DOCKED: ATOM     10  C   UNL     1      11.418 -11.159   1.096 -0.38 +0.00    +0.000 C 
DOCKED: ATOM     11  C   UNL     1      12.041 -11.317  -0.081 -0.33 +0.00    +0.000 C 
DOCKED: BRANCH  10  13
DOCKED: ATOM     12  O   UNL     1       9.301 -10.073   1.190 -0.18 +0.00    +0.000 OA
DOCKED: ATOM     13  C   UNL     1       9.946 -11.157   1.212 -0.35 +0.00    +0.000 C 
DOCKED: ATOM     14  N   UNL     1       9.244 -12.394   1.351 -0.41 +0.00    +0.000 N 
DOCKED: ATOM     15  O   UNL     1       7.894 -12.409   1.459 -0.43 -0.00    +0.000 OA
DOCKED: ATOM     16  H   UNL     1       9.745 -13.242   1.369 -0.63 -0.00    +0.000 HD
DOCKED: ENDBRANCH  10  13
DOCKED: ENDBRANCH   4  11
DOCKED: ENDBRANCH   3   7
DOCKED: ENDBRANCH   1   3
DOCKED: BRANCH   1  17
DOCKED: ATOM     17  C   UNL     1      19.989 -10.409   0.363 -0.60 -0.00    +0.000 C 
DOCKED: BRANCH  17  18
DOCKED: ATOM     18  C   UNL     1      20.854 -10.663   1.601 -0.40 -0.00    +0.000 C 
DOCKED: BRANCH  18  19
DOCKED: ATOM     19  O   UNL     1      21.161 -12.027   1.695 -1.39 -0.00    +0.000 OA
DOCKED: ATOM     20  H   UNL     1      22.105 -12.158   1.515 -0.59 -0.00    +0.000 HD
DOCKED: ENDBRANCH  18  19
DOCKED: ENDBRANCH  17  18
DOCKED: ENDBRANCH   1  17
DOCKED: BRANCH   1  21
DOCKED: ATOM     21  C   UNL     1      18.405 -11.680   1.768 -0.55 -0.00    +0.000 C 
DOCKED: BRANCH  21  22
DOCKED: ATOM     22  C   UNL     1      17.847 -10.896   2.961 -0.51 +0.00    +0.000 C 
DOCKED: BRANCH  22  23
DOCKED: ATOM     23  C   UNL     1      16.346 -10.896   2.948 -0.44 +0.00    +0.000 A 
DOCKED: ATOM     24  C   UNL     1      15.525 -12.003   2.762 -0.29 +0.00    +0.000 A 
DOCKED: ATOM     25  N   UNL     1      14.228 -11.666   2.945 -0.42 +0.00    +0.000 N 
DOCKED: ATOM     26  C   UNL     1      14.224 -10.359   3.259 -0.35 +0.00    +0.000 A 
DOCKED: ATOM     27  C   UNL     1      15.499  -9.853   3.276 -0.39 +0.00    +0.000 A 
DOCKED: ATOM     28  C   UNL     1      15.756  -8.523   3.609 -0.33 +0.00    +0.000 A 
DOCKED: ATOM     29  C   UNL     1      14.660  -7.703   3.931 -0.32 +0.00    +0.000 A 
DOCKED: ATOM     30  C   UNL     1      13.347  -8.224   3.914 -0.23 +0.00    +0.000 A 
DOCKED: ATOM     31  C   UNL     1      13.119  -9.570   3.577 -0.21 +0.00    +0.000 A 
DOCKED: ATOM     32  H   UNL     1      13.445 -12.257   2.864 -0.33 +0.00    +0.000 HD
DOCKED: ENDBRANCH  22  23
DOCKED: ENDBRANCH  21  22
DOCKED: ENDBRANCH   1  21
DOCKED: TORSDOF 10
DOCKED: TER
DOCKED: ENDMDL
________________________________________________________________________________


	BEGINNING GENETIC ALGORITHM DOCKING 88 of 100
Run: 88 Seed: 1462121798 550921121 [ Run 88 of 100 GA/GALS ]
Beginning LAMARCKIAN GENETIC ALGORITHM (LGA), with a maximum of 2500000 energy evaluations.

Final-Value: -13.753


	FINAL GENETIC ALGORITHM DOCKED STATE
	_______________________________________________


Detailed state:  trans 20.901 -10.886 -7.010 quatxyzw 0.635472 -0.761240 -0.062490 0.113068 center 0.288 0.007 -0.056 ntor 10 124.5982 -58.8250 60.0493 -180.0000 119.9623 32.1181 -171.6003 -140.0122 -147.3008 138.2562
State:	 20.901 -10.886  -7.010   0.640 -0.766 -0.063 167.016    124.60  -58.82   60.05 -180.00  119.96   32.12 -171.60 -140.01 -147.30  138.26

DOCKED: MODEL       88
DOCKED: USER    Run = 88
DOCKED: USER    DPF = ligand_dock.biased.dpf
DOCKED: USER  
DOCKED: USER    Estimated Free Energy of Binding    =   -8.70 kcal/mol  [=(1)+(2)+(3)-(4)]
DOCKED: USER    Estimated Inhibition Constant, Ki   =  418.31 nM (nanomolar)  [Temperature = 298.15 K]
DOCKED: USER    
DOCKED: USER    (1) Final Intermolecular Energy     =  -11.68 kcal/mol
DOCKED: USER        vdW + Hbond + desolv Energy     =  -11.68 kcal/mol
DOCKED: USER        Electrostatic Energy            =   +0.00 kcal/mol
DOCKED: USER    (2) Final Total Internal Energy     =   -2.07 kcal/mol
DOCKED: USER    (3) Torsional Free Energy           =   +2.98 kcal/mol
DOCKED: USER    (4) Unbound System's Energy  [=(2)] =   -2.07 kcal/mol
DOCKED: USER    
DOCKED: USER    
DOCKED: USER    NEWDPF move ligand.pdbqt
DOCKED: USER    NEWDPF about 0.288000 0.007000 -0.056000
DOCKED: USER    NEWDPF tran0 20.900740 -10.885925 -7.009928
DOCKED: USER    NEWDPF quaternion0 0.635472 -0.761240 -0.062490 0.113068
DOCKED: USER    NEWDPF axisangle0 0.639573 -0.766153 -0.062893 167.015602
DOCKED: USER    NEWDPF quat0 0.639573 -0.766153 -0.062893 167.015602
DOCKED: USER    NEWDPF dihe0 124.60 -58.82 60.05 -180.00 119.96 32.12 -171.60 -140.01 -147.30 138.26 
DOCKED: USER  keepresnum = 1 
DOCKED: USER  
DOCKED: REMARK  Name = 
DOCKED: REMARK  10 active torsions:
DOCKED: REMARK  status: ('A' for Active; 'I' for Inactive)
DOCKED: REMARK    1  A    between atoms: C_2  and  C_5
DOCKED: REMARK    2  A    between atoms: C_6  and  C_7
DOCKED: REMARK    3  A    between atoms: C_10  and  C_11
DOCKED: REMARK    4  A    between atoms: C_11  and  N_12
DOCKED: REMARK    5  A    between atoms: N_12  and  C_13
DOCKED: REMARK    6  A    between atoms: N_12  and  C_16
DOCKED: REMARK    7  A    between atoms: C_13  and  C_14
DOCKED: REMARK    8  A    between atoms: C_14  and  O_15
DOCKED: REMARK    9  A    between atoms: C_16  and  C_17
DOCKED: REMARK   10  A    between atoms: C_17  and  C_18
DOCKED: REMARK                            x       y       z     vdW  Elec       q    Type
DOCKED: REMARK                         _______ _______ _______ _____ _____    ______ ____
DOCKED: USER                              x       y       z     vdW  Elec       q    Type
DOCKED: USER                           _______ _______ _______ _____ _____    ______ ____
DOCKED: ROOT
DOCKED: ATOM      1  N   UNL     1      21.417  -9.703  -6.669 -0.22 -0.00    +0.000 N 
DOCKED: ATOM      2  H   UNL     1      21.203  -8.827  -6.191 +0.00 -0.00    +0.000 HD
DOCKED: ENDROOT
DOCKED: BRANCH   1   3
DOCKED: ATOM      3  C   UNL     1      20.464 -10.672  -6.068 -0.37 -0.00    +0.000 C 
DOCKED: BRANCH   3   7
DOCKED: ATOM      4  C   UNL     1      20.297 -10.516  -1.731 -0.47 -0.00    +0.000 A 
DOCKED: ATOM      5  C   UNL     1      21.518 -10.717  -2.393 -0.32 -0.00    +0.000 A 
DOCKED: ATOM      6  C   UNL     1      21.572 -10.764  -3.788 -0.42 -0.00    +0.000 A 
DOCKED: ATOM      7  C   UNL     1      20.402 -10.640  -4.553 -0.41 -0.00    +0.000 A 
DOCKED: ATOM      8  C   UNL     1      19.180 -10.426  -3.894 -0.34 -0.00    +0.000 A 
DOCKED: ATOM      9  C   UNL     1      19.124 -10.377  -2.498 -0.34 -0.00    +0.000 A 
DOCKED: BRANCH   4  11
DOCKED: ATOM     10  C   UNL     1      20.298 -11.583   0.522 -0.57 -0.00    +0.000 C 
DOCKED: ATOM     11  C   UNL     1      20.291 -10.485  -0.247 -0.63 -0.00    +0.000 C 
DOCKED: BRANCH  10  13
DOCKED: ATOM     12  O   UNL     1      20.264 -12.561   2.693 -1.70 -0.00    +0.000 OA
DOCKED: ATOM     13  C   UNL     1      20.281 -11.510   1.997 -0.78 -0.00    +0.000 C 
DOCKED: ATOM     14  N   UNL     1      20.282 -10.235   2.643 -0.46 -0.00    +0.000 N 
DOCKED: ATOM     15  O   UNL     1      20.266 -10.151   3.994 -0.71 -0.00    +0.000 OA
DOCKED: ATOM     16  H   UNL     1      20.295  -9.412   2.102 -0.47 -0.00    +0.000 HD
DOCKED: ENDBRANCH  10  13
DOCKED: ENDBRANCH   4  11
DOCKED: ENDBRANCH   3   7
DOCKED: ENDBRANCH   1   3
DOCKED: BRANCH   1  17
DOCKED: ATOM     17  C   UNL     1      21.185  -9.403  -8.101 -0.17 -0.00    +0.000 C 
DOCKED: BRANCH  17  18
DOCKED: ATOM     18  C   UNL     1      21.163  -7.895  -8.365 -0.06 -0.00    +0.000 C 
DOCKED: BRANCH  18  19
DOCKED: ATOM     19  O   UNL     1      21.281  -7.198  -7.156 -0.07 -0.00    +0.000 OA
DOCKED: ATOM     20  H   UNL     1      22.147  -7.382  -6.760 -0.00 -0.00    +0.000 HD
DOCKED: ENDBRANCH  18  19
DOCKED: ENDBRANCH  17  18
DOCKED: ENDBRANCH   1  17
DOCKED: BRANCH   1  21
DOCKED: ATOM     21  C   UNL     1      22.836 -10.002  -6.365 -0.24 -0.00    +0.000 C 
DOCKED: BRANCH  21  22
DOCKED: ATOM     22  C   UNL     1      23.683  -9.940  -7.641 -0.30 -0.00    +0.000 C 
DOCKED: BRANCH  22  23
DOCKED: ATOM     23  C   UNL     1      24.863  -9.030  -7.457 -0.24 -0.00    +0.000 A 
DOCKED: ATOM     24  C   UNL     1      24.833  -7.736  -6.948 -0.11 -0.00    +0.000 A 
DOCKED: ATOM     25  N   UNL     1      26.088  -7.258  -6.796 -0.20 -0.00    +0.000 N 
DOCKED: ATOM     26  C   UNL     1      26.912  -8.245  -7.190 -0.28 -0.00    +0.000 A 
DOCKED: ATOM     27  C   UNL     1      26.202  -9.345  -7.598 -0.31 -0.00    +0.000 A 
DOCKED: ATOM     28  C   UNL     1      26.837 -10.514  -8.021 -0.38 -0.00    +0.000 A 
DOCKED: ATOM     29  C   UNL     1      28.244 -10.532  -8.021 -0.44 -0.00    +0.000 A 
DOCKED: ATOM     30  C   UNL     1      28.975  -9.400  -7.602 -0.39 -0.00    +0.000 A 
DOCKED: ATOM     31  C   UNL     1      28.306  -8.237  -7.177 -0.29 -0.00    +0.000 A 
DOCKED: ATOM     32  H   UNL     1      26.348  -6.368  -6.465 -0.01 -0.00    +0.000 HD
DOCKED: ENDBRANCH  22  23
DOCKED: ENDBRANCH  21  22
DOCKED: ENDBRANCH   1  21
DOCKED: TORSDOF 10
DOCKED: TER
DOCKED: ENDMDL
________________________________________________________________________________


	BEGINNING GENETIC ALGORITHM DOCKING 89 of 100
Run: 89 Seed: 613043714 2033659909 [ Run 89 of 100 GA/GALS ]
Beginning LAMARCKIAN GENETIC ALGORITHM (LGA), with a maximum of 2500000 energy evaluations.

Final-Value: -15.027


	FINAL GENETIC ALGORITHM DOCKED STATE
	_______________________________________________


Detailed state:  trans 19.694 -10.456 -7.553 quatxyzw -0.348701 0.893142 0.271492 -0.083644 center 0.288 0.007 -0.056 ntor 10 168.3958 -52.6554 68.8643 -172.5840 -83.7970 40.8940 -91.3437 -21.5341 50.8547 162.9324
State:	 19.694 -10.456  -7.553  -0.350  0.896  0.272 -170.404    168.40  -52.66   68.86 -172.58  -83.80   40.89  -91.34  -21.53   50.85  162.93

DOCKED: MODEL       89
DOCKED: USER    Run = 89
DOCKED: USER    DPF = ligand_dock.biased.dpf
DOCKED: USER  
DOCKED: USER    Estimated Free Energy of Binding    =   -9.78 kcal/mol  [=(1)+(2)+(3)-(4)]
DOCKED: USER    Estimated Inhibition Constant, Ki   =   67.63 nM (nanomolar)  [Temperature = 298.15 K]
DOCKED: USER    
DOCKED: USER    (1) Final Intermolecular Energy     =  -12.76 kcal/mol
DOCKED: USER        vdW + Hbond + desolv Energy     =  -12.76 kcal/mol
DOCKED: USER        Electrostatic Energy            =   +0.00 kcal/mol
DOCKED: USER    (2) Final Total Internal Energy     =   -2.26 kcal/mol
DOCKED: USER    (3) Torsional Free Energy           =   +2.98 kcal/mol
DOCKED: USER    (4) Unbound System's Energy  [=(2)] =   -2.26 kcal/mol
DOCKED: USER    
DOCKED: USER    
DOCKED: USER    NEWDPF move ligand.pdbqt
DOCKED: USER    NEWDPF about 0.288000 0.007000 -0.056000
DOCKED: USER    NEWDPF tran0 19.693531 -10.456089 -7.553153
DOCKED: USER    NEWDPF quaternion0 -0.348701 0.893142 0.271492 -0.083644
DOCKED: USER    NEWDPF axisangle0 -0.349927 0.896283 0.272447 -170.403866
DOCKED: USER    NEWDPF quat0 -0.349927 0.896283 0.272447 -170.403866
DOCKED: USER    NEWDPF dihe0 168.40 -52.66 68.86 -172.58 -83.80 40.89 -91.34 -21.53 50.85 162.93 
DOCKED: USER  keepresnum = 1 
DOCKED: USER  
DOCKED: REMARK  Name = 
DOCKED: REMARK  10 active torsions:
DOCKED: REMARK  status: ('A' for Active; 'I' for Inactive)
DOCKED: REMARK    1  A    between atoms: C_2  and  C_5
DOCKED: REMARK    2  A    between atoms: C_6  and  C_7
DOCKED: REMARK    3  A    between atoms: C_10  and  C_11
DOCKED: REMARK    4  A    between atoms: C_11  and  N_12
DOCKED: REMARK    5  A    between atoms: N_12  and  C_13
DOCKED: REMARK    6  A    between atoms: N_12  and  C_16
DOCKED: REMARK    7  A    between atoms: C_13  and  C_14
DOCKED: REMARK    8  A    between atoms: C_14  and  O_15
DOCKED: REMARK    9  A    between atoms: C_16  and  C_17
DOCKED: REMARK   10  A    between atoms: C_17  and  C_18
DOCKED: REMARK                            x       y       z     vdW  Elec       q    Type
DOCKED: REMARK                         _______ _______ _______ _____ _____    ______ ____
DOCKED: USER                              x       y       z     vdW  Elec       q    Type
DOCKED: USER                           _______ _______ _______ _____ _____    ______ ____
DOCKED: ROOT
DOCKED: ATOM      1  N   UNL     1      20.863  -9.891  -7.244 -0.21 -0.00    +0.000 N 
DOCKED: ATOM      2  H   UNL     1      21.324  -9.296  -6.555 +0.00 -0.00    +0.000 HD
DOCKED: ENDROOT
DOCKED: BRANCH   1   3
DOCKED: ATOM      3  C   UNL     1      19.721 -10.475  -6.494 -0.32 -0.00    +0.000 C 
DOCKED: BRANCH   3   7
DOCKED: ATOM      4  C   UNL     1      20.218 -10.612  -2.181 -0.43 -0.00    +0.000 A 
DOCKED: ATOM      5  C   UNL     1      18.963 -10.345  -2.748 -0.33 -0.00    +0.000 A 
DOCKED: ATOM      6  C   UNL     1      18.802 -10.303  -4.136 -0.30 -0.00    +0.000 A 
DOCKED: ATOM      7  C   UNL     1      19.900 -10.501  -4.988 -0.35 -0.00    +0.000 A 
DOCKED: ATOM      8  C   UNL     1      21.155 -10.782  -4.424 -0.46 -0.00    +0.000 A 
DOCKED: ATOM      9  C   UNL     1      21.318 -10.824  -3.036 -0.37 -0.00    +0.000 A 
DOCKED: BRANCH   4  11
DOCKED: ATOM     10  C   UNL     1      19.901 -11.642   0.067 -0.46 -0.00    +0.000 C 
DOCKED: ATOM     11  C   UNL     1      20.339 -10.634  -0.702 -0.60 -0.00    +0.000 C 
DOCKED: BRANCH  10  13
DOCKED: ATOM     12  O   UNL     1      19.715 -12.631   2.225 -1.56 -0.00    +0.000 OA
DOCKED: ATOM     13  C   UNL     1      20.031 -11.621   1.537 -0.75 -0.00    +0.000 C 
DOCKED: ATOM     14  N   UNL     1      20.516 -10.446   2.190 -0.55 -0.00    +0.000 N 
DOCKED: ATOM     15  O   UNL     1      20.640 -10.411   3.538 -1.04 -0.00    +0.000 OA
DOCKED: ATOM     16  H   UNL     1      20.763  -9.656   1.656 -0.48 -0.00    +0.000 HD
DOCKED: ENDBRANCH  10  13
DOCKED: ENDBRANCH   4  11
DOCKED: ENDBRANCH   3   7
DOCKED: ENDBRANCH   1   3
DOCKED: BRANCH   1  17
DOCKED: ATOM     17  C   UNL     1      20.486  -8.962  -8.334 -0.12 -0.00    +0.000 C 
DOCKED: BRANCH  17  18
DOCKED: ATOM     18  C   UNL     1      21.414  -7.745  -8.385 -0.06 -0.00    +0.000 C 
DOCKED: BRANCH  18  19
DOCKED: ATOM     19  O   UNL     1      22.410  -7.864  -7.407 -0.12 -0.00    +0.000 OA
DOCKED: ATOM     20  H   UNL     1      23.259  -8.055  -7.833 +0.00 -0.00    +0.000 HD
DOCKED: ENDBRANCH  18  19
DOCKED: ENDBRANCH  17  18
DOCKED: ENDBRANCH   1  17
DOCKED: BRANCH   1  21
DOCKED: ATOM     21  C   UNL     1      21.871 -10.893  -7.662 -0.32 -0.00    +0.000 C 
DOCKED: BRANCH  21  22
DOCKED: ATOM     22  C   UNL     1      23.161 -10.727  -6.853 -0.32 -0.00    +0.000 C 
DOCKED: BRANCH  22  23
DOCKED: ATOM     23  C   UNL     1      24.351 -11.203  -7.635 -0.38 -0.00    +0.000 A 
DOCKED: ATOM     24  C   UNL     1      24.406 -12.336  -8.440 -0.41 -0.00    +0.000 A 
DOCKED: ATOM     25  N   UNL     1      25.584 -12.391  -9.101 -0.40 -0.00    +0.000 N 
DOCKED: ATOM     26  C   UNL     1      26.267 -11.293  -8.733 -0.35 -0.00    +0.000 A 
DOCKED: ATOM     27  C   UNL     1      25.546 -10.540  -7.841 -0.32 -0.00    +0.000 A 
DOCKED: ATOM     28  C   UNL     1      26.032  -9.333  -7.338 -0.31 -0.00    +0.000 A 
DOCKED: ATOM     29  C   UNL     1      27.299  -8.903  -7.774 -0.29 -0.00    +0.000 A 
DOCKED: ATOM     30  C   UNL     1      28.042  -9.678  -8.691 -0.30 -0.00    +0.000 A 
DOCKED: ATOM     31  C   UNL     1      27.524 -10.889  -9.184 -0.31 -0.00    +0.000 A 
DOCKED: ATOM     32  H   UNL     1      25.882 -13.091  -9.725 -0.56 -0.00    +0.000 HD
DOCKED: ENDBRANCH  22  23
DOCKED: ENDBRANCH  21  22
DOCKED: ENDBRANCH   1  21
DOCKED: TORSDOF 10
DOCKED: TER
DOCKED: ENDMDL
________________________________________________________________________________


	BEGINNING GENETIC ALGORITHM DOCKING 90 of 100
Run: 90 Seed: 1028062297 255846774 [ Run 90 of 100 GA/GALS ]
Beginning LAMARCKIAN GENETIC ALGORITHM (LGA), with a maximum of 2500000 energy evaluations.

Final-Value: -16.819


	FINAL GENETIC ALGORITHM DOCKED STATE
	_______________________________________________


Detailed state:  trans 22.264 -8.102 -6.444 quatxyzw 0.676244 0.524111 0.284460 -0.432532 center 0.288 0.007 -0.056 ntor 10 -178.3977 -72.1823 60.3264 -139.5970 149.3783 -22.8586 107.4760 -29.2406 -94.2592 -155.5074
State:	 22.264  -8.102  -6.444   0.750  0.581  0.315 -128.743   -178.40  -72.18   60.33 -139.60  149.38  -22.86  107.48  -29.24  -94.26 -155.51

DOCKED: MODEL       90
DOCKED: USER    Run = 90
DOCKED: USER    DPF = ligand_dock.biased.dpf
DOCKED: USER  
DOCKED: USER    Estimated Free Energy of Binding    =  -10.14 kcal/mol  [=(1)+(2)+(3)-(4)]
DOCKED: USER    Estimated Inhibition Constant, Ki   =   36.73 nM (nanomolar)  [Temperature = 298.15 K]
DOCKED: USER    
DOCKED: USER    (1) Final Intermolecular Energy     =  -13.13 kcal/mol
DOCKED: USER        vdW + Hbond + desolv Energy     =  -13.13 kcal/mol
DOCKED: USER        Electrostatic Energy            =   +0.00 kcal/mol
DOCKED: USER    (2) Final Total Internal Energy     =   -3.69 kcal/mol
DOCKED: USER    (3) Torsional Free Energy           =   +2.98 kcal/mol
DOCKED: USER    (4) Unbound System's Energy  [=(2)] =   -3.69 kcal/mol
DOCKED: USER    
DOCKED: USER    
DOCKED: USER    NEWDPF move ligand.pdbqt
DOCKED: USER    NEWDPF about 0.288000 0.007000 -0.056000
DOCKED: USER    NEWDPF tran0 22.264107 -8.102274 -6.443909
DOCKED: USER    NEWDPF quaternion0 0.676244 0.524111 0.284460 -0.432532
DOCKED: USER    NEWDPF axisangle0 0.750034 0.581300 0.315499 -128.743271
DOCKED: USER    NEWDPF quat0 0.750034 0.581300 0.315499 -128.743271
DOCKED: USER    NEWDPF dihe0 -178.40 -72.18 60.33 -139.60 149.38 -22.86 107.48 -29.24 -94.26 -155.51 
DOCKED: USER  keepresnum = 1 
DOCKED: USER  
DOCKED: REMARK  Name = 
DOCKED: REMARK  10 active torsions:
DOCKED: REMARK  status: ('A' for Active; 'I' for Inactive)
DOCKED: REMARK    1  A    between atoms: C_2  and  C_5
DOCKED: REMARK    2  A    between atoms: C_6  and  C_7
DOCKED: REMARK    3  A    between atoms: C_10  and  C_11
DOCKED: REMARK    4  A    between atoms: C_11  and  N_12
DOCKED: REMARK    5  A    between atoms: N_12  and  C_13
DOCKED: REMARK    6  A    between atoms: N_12  and  C_16
DOCKED: REMARK    7  A    between atoms: C_13  and  C_14
DOCKED: REMARK    8  A    between atoms: C_14  and  O_15
DOCKED: REMARK    9  A    between atoms: C_16  and  C_17
DOCKED: REMARK   10  A    between atoms: C_17  and  C_18
DOCKED: REMARK                            x       y       z     vdW  Elec       q    Type
DOCKED: REMARK                         _______ _______ _______ _____ _____    ______ ____
DOCKED: USER                              x       y       z     vdW  Elec       q    Type
DOCKED: USER                           _______ _______ _______ _____ _____    ______ ____
DOCKED: ROOT
DOCKED: ATOM      1  N   UNL     1      21.748  -9.321  -6.624 -0.21 -0.00    +0.000 N 
DOCKED: ATOM      2  H   UNL     1      21.415 -10.147  -6.127 -0.00 -0.00    +0.000 HD
DOCKED: ENDROOT
DOCKED: BRANCH   1   3
DOCKED: ATOM      3  C   UNL     1      21.599  -8.228  -5.628 -0.23 -0.00    +0.000 C 
DOCKED: BRANCH   3   7
DOCKED: ATOM      4  C   UNL     1      21.290  -9.569  -1.509 -0.54 -0.00    +0.000 A 
DOCKED: ATOM      5  C   UNL     1      21.385 -10.496  -2.558 -0.49 -0.00    +0.000 A 
DOCKED: ATOM      6  C   UNL     1      21.487 -10.065  -3.883 -0.41 -0.00    +0.000 A 
DOCKED: ATOM      7  C   UNL     1      21.468  -8.695  -4.192 -0.31 -0.00    +0.000 A 
DOCKED: ATOM      8  C   UNL     1      21.386  -7.765  -3.143 -0.36 -0.00    +0.000 A 
DOCKED: ATOM      9  C   UNL     1      21.284  -8.195  -1.816 -0.43 -0.00    +0.000 A 
DOCKED: BRANCH   4  11
DOCKED: ATOM     10  C   UNL     1      20.270 -10.992   0.265 -0.66 -0.00    +0.000 C 
DOCKED: ATOM     11  C   UNL     1      21.172 -10.079  -0.120 -0.70 -0.00    +0.000 C 
DOCKED: BRANCH  10  13
DOCKED: ATOM     12  O   UNL     1      19.948 -12.680   1.914 -1.63 -0.00    +0.000 OA
DOCKED: ATOM     13  C   UNL     1      20.178 -11.466   1.660 -0.76 -0.00    +0.000 C 
DOCKED: ATOM     14  N   UNL     1      20.349 -10.541   2.736 -0.65 -0.00    +0.000 N 
DOCKED: ATOM     15  O   UNL     1      20.267 -10.959   4.021 -1.13 -0.00    +0.000 OA
DOCKED: ATOM     16  H   UNL     1      20.528  -9.592   2.541 -0.53 -0.00    +0.000 HD
DOCKED: ENDBRANCH  10  13
DOCKED: ENDBRANCH   4  11
DOCKED: ENDBRANCH   3   7
DOCKED: ENDBRANCH   1   3
DOCKED: BRANCH   1  17
DOCKED: ATOM     17  C   UNL     1      23.146  -9.651  -6.986 -0.28 -0.00    +0.000 C 
DOCKED: BRANCH  17  18
DOCKED: ATOM     18  C   UNL     1      23.408 -11.158  -6.908 -0.33 -0.00    +0.000 C 
DOCKED: BRANCH  18  19
DOCKED: ATOM     19  O   UNL     1      22.405 -11.777  -6.152 -0.60 -0.00    +0.000 OA
DOCKED: ATOM     20  H   UNL     1      21.961 -12.449  -6.693 -0.57 -0.00    +0.000 HD
DOCKED: ENDBRANCH  18  19
DOCKED: ENDBRANCH  17  18
DOCKED: ENDBRANCH   1  17
DOCKED: BRANCH   1  21
DOCKED: ATOM     21  C   UNL     1      20.867  -9.168  -7.806 -0.15 -0.00    +0.000 C 
DOCKED: BRANCH  21  22
DOCKED: ATOM     22  C   UNL     1      19.874 -10.333  -7.888 -0.26 -0.00    +0.000 C 
DOCKED: BRANCH  22  23
DOCKED: ATOM     23  C   UNL     1      19.244 -10.596  -6.551 -0.29 -0.00    +0.000 A 
DOCKED: ATOM     24  C   UNL     1      19.549 -11.644  -5.690 -0.31 -0.00    +0.000 A 
DOCKED: ATOM     25  N   UNL     1      18.890 -11.500  -4.518 -0.29 -0.00    +0.000 N 
DOCKED: ATOM     26  C   UNL     1      18.184 -10.361  -4.626 -0.26 -0.00    +0.000 A 
DOCKED: ATOM     27  C   UNL     1      18.377  -9.777  -5.851 -0.19 -0.00    +0.000 A 
DOCKED: ATOM     28  C   UNL     1      17.775  -8.564  -6.189 -0.10 -0.00    +0.000 A 
DOCKED: ATOM     29  C   UNL     1      16.953  -7.949  -5.227 -0.12 -0.00    +0.000 A 
DOCKED: ATOM     30  C   UNL     1      16.754  -8.551  -3.965 -0.08 -0.00    +0.000 A 
DOCKED: ATOM     31  C   UNL     1      17.378  -9.772  -3.652 -0.23 -0.00    +0.000 A 
DOCKED: ATOM     32  H   UNL     1      18.921 -12.106  -3.742 +0.01 -0.00    +0.000 HD
DOCKED: ENDBRANCH  22  23
DOCKED: ENDBRANCH  21  22
DOCKED: ENDBRANCH   1  21
DOCKED: TORSDOF 10
DOCKED: TER
DOCKED: ENDMDL
________________________________________________________________________________


	BEGINNING GENETIC ALGORITHM DOCKING 91 of 100
Run: 91 Seed: 2034564704 992952850 [ Run 91 of 100 GA/GALS ]
Beginning LAMARCKIAN GENETIC ALGORITHM (LGA), with a maximum of 2500000 energy evaluations.

Final-Value: -15.430


	FINAL GENETIC ALGORITHM DOCKED STATE
	_______________________________________________


Detailed state:  trans 21.174 -8.604 -5.242 quatxyzw -0.557933 0.376291 0.114047 0.730828 center 0.288 0.007 -0.056 ntor 10 129.2204 -68.7025 19.9132 -85.2170 -93.8846 69.4288 171.7391 96.5088 153.8812 -56.5652
State:	 21.174  -8.604  -5.242  -0.817  0.551  0.167 86.088    129.22  -68.70   19.91  -85.22  -93.88   69.43  171.74   96.51  153.88  -56.57

DOCKED: MODEL       91
DOCKED: USER    Run = 91
DOCKED: USER    DPF = ligand_dock.biased.dpf
DOCKED: USER  
DOCKED: USER    Estimated Free Energy of Binding    =  -10.07 kcal/mol  [=(1)+(2)+(3)-(4)]
DOCKED: USER    Estimated Inhibition Constant, Ki   =   41.25 nM (nanomolar)  [Temperature = 298.15 K]
DOCKED: USER    
DOCKED: USER    (1) Final Intermolecular Energy     =  -13.06 kcal/mol
DOCKED: USER        vdW + Hbond + desolv Energy     =  -13.06 kcal/mol
DOCKED: USER        Electrostatic Energy            =   +0.00 kcal/mol
DOCKED: USER    (2) Final Total Internal Energy     =   -2.37 kcal/mol
DOCKED: USER    (3) Torsional Free Energy           =   +2.98 kcal/mol
DOCKED: USER    (4) Unbound System's Energy  [=(2)] =   -2.37 kcal/mol
DOCKED: USER    
DOCKED: USER    
DOCKED: USER    NEWDPF move ligand.pdbqt
DOCKED: USER    NEWDPF about 0.288000 0.007000 -0.056000
DOCKED: USER    NEWDPF tran0 21.173857 -8.603546 -5.241950
DOCKED: USER    NEWDPF quaternion0 -0.557933 0.376291 0.114047 0.730828
DOCKED: USER    NEWDPF axisangle0 -0.817410 0.551292 0.167086 86.088262
DOCKED: USER    NEWDPF quat0 -0.817410 0.551292 0.167086 86.088262
DOCKED: USER    NEWDPF dihe0 129.22 -68.70 19.91 -85.22 -93.88 69.43 171.74 96.51 153.88 -56.57 
DOCKED: USER  keepresnum = 1 
DOCKED: USER  
DOCKED: REMARK  Name = 
DOCKED: REMARK  10 active torsions:
DOCKED: REMARK  status: ('A' for Active; 'I' for Inactive)
DOCKED: REMARK    1  A    between atoms: C_2  and  C_5
DOCKED: REMARK    2  A    between atoms: C_6  and  C_7
DOCKED: REMARK    3  A    between atoms: C_10  and  C_11
DOCKED: REMARK    4  A    between atoms: C_11  and  N_12
DOCKED: REMARK    5  A    between atoms: N_12  and  C_13
DOCKED: REMARK    6  A    between atoms: N_12  and  C_16
DOCKED: REMARK    7  A    between atoms: C_13  and  C_14
DOCKED: REMARK    8  A    between atoms: C_14  and  O_15
DOCKED: REMARK    9  A    between atoms: C_16  and  C_17
DOCKED: REMARK   10  A    between atoms: C_17  and  C_18
DOCKED: REMARK                            x       y       z     vdW  Elec       q    Type
DOCKED: REMARK                         _______ _______ _______ _____ _____    ______ ____
DOCKED: USER                              x       y       z     vdW  Elec       q    Type
DOCKED: USER                           _______ _______ _______ _____ _____    ______ ____
DOCKED: ROOT
DOCKED: ATOM      1  N   UNL     1      20.352  -7.949  -6.066 -0.11 -0.00    +0.000 N 
DOCKED: ATOM      2  H   UNL     1      19.814  -7.088  -6.167 +0.00 -0.00    +0.000 HD
DOCKED: ENDROOT
DOCKED: BRANCH   1   3
DOCKED: ATOM      3  C   UNL     1      21.422  -7.583  -5.102 -0.23 -0.00    +0.000 C 
DOCKED: BRANCH   3   7
DOCKED: ATOM      4  C   UNL     1      21.267  -9.810  -1.377 -0.56 -0.00    +0.000 A 
DOCKED: ATOM      5  C   UNL     1      21.024  -8.428  -1.395 -0.43 -0.00    +0.000 A 
DOCKED: ATOM      6  C   UNL     1      21.071  -7.712  -2.593 -0.40 -0.00    +0.000 A 
DOCKED: ATOM      7  C   UNL     1      21.391  -8.357  -3.799 -0.33 -0.00    +0.000 A 
DOCKED: ATOM      8  C   UNL     1      21.621  -9.742  -3.786 -0.35 -0.00    +0.000 A 
DOCKED: ATOM      9  C   UNL     1      21.574 -10.461  -2.587 -0.40 -0.00    +0.000 A 
DOCKED: BRANCH   4  11
DOCKED: ATOM     10  C   UNL     1      20.101 -10.658   0.657 -0.65 -0.00    +0.000 C 
DOCKED: ATOM     11  C   UNL     1      21.215 -10.523  -0.076 -0.70 -0.00    +0.000 C 
DOCKED: BRANCH  10  13
DOCKED: ATOM     12  O   UNL     1      19.932 -12.617   2.001 -1.68 -0.00    +0.000 OA
DOCKED: ATOM     13  C   UNL     1      20.093 -11.366   1.952 -0.75 -0.00    +0.000 C 
DOCKED: ATOM     14  N   UNL     1      20.268 -10.629   3.164 -0.70 -0.00    +0.000 N 
DOCKED: ATOM     15  O   UNL     1      20.263 -11.264   4.360 -1.03 -0.00    +0.000 OA
DOCKED: ATOM     16  H   UNL     1      20.394  -9.653   3.130 -0.58 -0.00    +0.000 HD
DOCKED: ENDBRANCH  10  13
DOCKED: ENDBRANCH   4  11
DOCKED: ENDBRANCH   3   7
DOCKED: ENDBRANCH   1   3
DOCKED: BRANCH   1  17
DOCKED: ATOM     17  C   UNL     1      19.370  -8.937  -5.565 -0.18 -0.00    +0.000 C 
DOCKED: BRANCH  17  18
DOCKED: ATOM     18  C   UNL     1      18.180  -8.255  -4.885 -0.17 -0.00    +0.000 C 
DOCKED: BRANCH  18  19
DOCKED: ATOM     19  O   UNL     1      18.480  -6.910  -4.638 -0.17 -0.00    +0.000 OA
DOCKED: ATOM     20  H   UNL     1      18.530  -6.430  -5.479 -0.00 -0.00    +0.000 HD
DOCKED: ENDBRANCH  18  19
DOCKED: ENDBRANCH  17  18
DOCKED: ENDBRANCH   1  17
DOCKED: BRANCH   1  21
DOCKED: ATOM     21  C   UNL     1      20.862  -8.276  -7.419 -0.10 -0.00    +0.000 C 
DOCKED: BRANCH  21  22
DOCKED: ATOM     22  C   UNL     1      22.392  -8.359  -7.410 -0.15 -0.00    +0.000 C 
DOCKED: BRANCH  22  23
DOCKED: ATOM     23  C   UNL     1      22.853  -9.774  -7.607 -0.22 -0.00    +0.000 A 
DOCKED: ATOM     24  C   UNL     1      22.059 -10.915  -7.546 -0.30 -0.00    +0.000 A 
DOCKED: ATOM     25  N   UNL     1      22.771 -12.007  -7.905 -0.39 -0.00    +0.000 N 
DOCKED: ATOM     26  C   UNL     1      24.003 -11.564  -8.208 -0.39 -0.00    +0.000 A 
DOCKED: ATOM     27  C   UNL     1      24.093 -10.205  -8.043 -0.27 -0.00    +0.000 A 
DOCKED: ATOM     28  C   UNL     1      25.267  -9.507  -8.328 -0.23 -0.00    +0.000 A 
DOCKED: ATOM     29  C   UNL     1      26.371 -10.242  -8.795 -0.30 -0.00    +0.000 A 
DOCKED: ATOM     30  C   UNL     1      26.279 -11.641  -8.965 -0.27 -0.00    +0.000 A 
DOCKED: ATOM     31  C   UNL     1      25.081 -12.317  -8.672 -0.38 -0.00    +0.000 A 
DOCKED: ATOM     32  H   UNL     1      22.452 -12.938  -7.938 -0.63 -0.00    +0.000 HD
DOCKED: ENDBRANCH  22  23
DOCKED: ENDBRANCH  21  22
DOCKED: ENDBRANCH   1  21
DOCKED: TORSDOF 10
DOCKED: TER
DOCKED: ENDMDL
________________________________________________________________________________


	BEGINNING GENETIC ALGORITHM DOCKING 92 of 100
Run: 92 Seed: 1078019787 322442179 [ Run 92 of 100 GA/GALS ]
Beginning LAMARCKIAN GENETIC ALGORITHM (LGA), with a maximum of 2500000 energy evaluations.

Final-Value: -15.147


	FINAL GENETIC ALGORITHM DOCKED STATE
	_______________________________________________


Detailed state:  trans 21.534 -9.628 -6.173 quatxyzw -0.577709 -0.394619 -0.424507 0.574736 center 0.288 0.007 -0.056 ntor 10 67.6618 175.6333 154.8268 109.6478 -40.0339 28.7317 7.1471 62.8488 -174.3755 -124.2036
State:	 21.534  -9.628  -6.173  -0.706 -0.482 -0.519 109.838     67.66  175.63  154.83  109.65  -40.03   28.73    7.15   62.85 -174.38 -124.20

DOCKED: MODEL       92
DOCKED: USER    Run = 92
DOCKED: USER    DPF = ligand_dock.biased.dpf
DOCKED: USER  
DOCKED: USER    Estimated Free Energy of Binding    =  -10.29 kcal/mol  [=(1)+(2)+(3)-(4)]
DOCKED: USER    Estimated Inhibition Constant, Ki   =   28.69 nM (nanomolar)  [Temperature = 298.15 K]
DOCKED: USER    
DOCKED: USER    (1) Final Intermolecular Energy     =  -13.27 kcal/mol
DOCKED: USER        vdW + Hbond + desolv Energy     =  -13.27 kcal/mol
DOCKED: USER        Electrostatic Energy            =   +0.00 kcal/mol
DOCKED: USER    (2) Final Total Internal Energy     =   -1.87 kcal/mol
DOCKED: USER    (3) Torsional Free Energy           =   +2.98 kcal/mol
DOCKED: USER    (4) Unbound System's Energy  [=(2)] =   -1.87 kcal/mol
DOCKED: USER    
DOCKED: USER    
DOCKED: USER    NEWDPF move ligand.pdbqt
DOCKED: USER    NEWDPF about 0.288000 0.007000 -0.056000
DOCKED: USER    NEWDPF tran0 21.533848 -9.628293 -6.173200
DOCKED: USER    NEWDPF quaternion0 -0.577709 -0.394619 -0.424507 0.574736
DOCKED: USER    NEWDPF axisangle0 -0.705953 -0.482220 -0.518743 109.837692
DOCKED: USER    NEWDPF quat0 -0.705953 -0.482220 -0.518743 109.837692
DOCKED: USER    NEWDPF dihe0 67.66 175.63 154.83 109.65 -40.03 28.73 7.15 62.85 -174.38 -124.20 
DOCKED: USER  keepresnum = 1 
DOCKED: USER  
DOCKED: REMARK  Name = 
DOCKED: REMARK  10 active torsions:
DOCKED: REMARK  status: ('A' for Active; 'I' for Inactive)
DOCKED: REMARK    1  A    between atoms: C_2  and  C_5
DOCKED: REMARK    2  A    between atoms: C_6  and  C_7
DOCKED: REMARK    3  A    between atoms: C_10  and  C_11
DOCKED: REMARK    4  A    between atoms: C_11  and  N_12
DOCKED: REMARK    5  A    between atoms: N_12  and  C_13
DOCKED: REMARK    6  A    between atoms: N_12  and  C_16
DOCKED: REMARK    7  A    between atoms: C_13  and  C_14
DOCKED: REMARK    8  A    between atoms: C_14  and  O_15
DOCKED: REMARK    9  A    between atoms: C_16  and  C_17
DOCKED: REMARK   10  A    between atoms: C_17  and  C_18
DOCKED: REMARK                            x       y       z     vdW  Elec       q    Type
DOCKED: REMARK                         _______ _______ _______ _____ _____    ______ ____
DOCKED: USER                              x       y       z     vdW  Elec       q    Type
DOCKED: USER                           _______ _______ _______ _____ _____    ______ ____
DOCKED: ROOT
DOCKED: ATOM      1  N   UNL     1      21.118 -10.847  -6.526 -0.34 -0.00    +0.000 N 
DOCKED: ATOM      2  H   UNL     1      20.548 -11.635  -6.218 -0.33 -0.00    +0.000 HD
DOCKED: ENDROOT
DOCKED: BRANCH   1   3
DOCKED: ATOM      3  C   UNL     1      20.550  -9.691  -5.784 -0.28 -0.00    +0.000 C 
DOCKED: BRANCH   3   7
DOCKED: ATOM      4  C   UNL     1      20.106 -10.394  -1.521 -0.47 -0.00    +0.000 A 
DOCKED: ATOM      5  C   UNL     1      19.138 -10.854  -2.427 -0.37 -0.00    +0.000 A 
DOCKED: ATOM      6  C   UNL     1      19.282 -10.630  -3.798 -0.36 -0.00    +0.000 A 
DOCKED: ATOM      7  C   UNL     1      20.384  -9.916  -4.294 -0.34 -0.00    +0.000 A 
DOCKED: ATOM      8  C   UNL     1      21.362  -9.466  -3.391 -0.42 -0.00    +0.000 A 
DOCKED: ATOM      9  C   UNL     1      21.220  -9.690  -2.018 -0.51 -0.00    +0.000 A 
DOCKED: BRANCH   4  11
DOCKED: ATOM     10  C   UNL     1      20.743 -11.365   0.685 -0.65 -0.00    +0.000 C 
DOCKED: ATOM     11  C   UNL     1      19.901 -10.648  -0.073 -0.60 -0.00    +0.000 C 
DOCKED: BRANCH  10  13
DOCKED: ATOM     12  O   UNL     1      20.158 -12.745   2.535 -1.54 -0.00    +0.000 OA
DOCKED: ATOM     13  C   UNL     1      20.498 -11.603   2.121 -0.77 -0.00    +0.000 C 
DOCKED: ATOM     14  N   UNL     1      20.645 -10.529   3.053 -0.63 -0.00    +0.000 N 
DOCKED: ATOM     15  O   UNL     1      20.424 -10.731   4.373 -0.85 -0.00    +0.000 OA
DOCKED: ATOM     16  H   UNL     1      20.910  -9.636   2.732 -0.58 -0.00    +0.000 HD
DOCKED: ENDBRANCH  10  13
DOCKED: ENDBRANCH   4  11
DOCKED: ENDBRANCH   3   7
DOCKED: ENDBRANCH   1   3
DOCKED: BRANCH   1  17
DOCKED: ATOM     17  C   UNL     1      22.498 -11.222  -6.139 -0.45 -0.00    +0.000 C 
DOCKED: BRANCH  17  18
DOCKED: ATOM     18  C   UNL     1      23.379 -11.475  -7.365 -0.48 -0.00    +0.000 C 
DOCKED: BRANCH  18  19
DOCKED: ATOM     19  O   UNL     1      24.032 -12.707  -7.236 -1.10 +0.00    +0.000 OA
DOCKED: ATOM     20  H   UNL     1      23.691 -13.174  -6.457 -0.08 -0.00    +0.000 HD
DOCKED: ENDBRANCH  18  19
DOCKED: ENDBRANCH  17  18
DOCKED: ENDBRANCH   1  17
DOCKED: BRANCH   1  21
DOCKED: ATOM     21  C   UNL     1      20.935 -10.756  -7.993 -0.24 -0.00    +0.000 C 
DOCKED: BRANCH  21  22
DOCKED: ATOM     22  C   UNL     1      19.728  -9.873  -8.330 -0.21 -0.00    +0.000 C 
DOCKED: BRANCH  22  23
DOCKED: ATOM     23  C   UNL     1      18.497 -10.353  -7.615 -0.24 -0.00    +0.000 A 
DOCKED: ATOM     24  C   UNL     1      17.988 -11.647  -7.631 -0.14 -0.00    +0.000 A 
DOCKED: ATOM     25  N   UNL     1      16.949 -11.758  -6.773 -0.36 -0.00    +0.000 N 
DOCKED: ATOM     26  C   UNL     1      16.808 -10.548  -6.202 -0.23 -0.00    +0.000 A 
DOCKED: ATOM     27  C   UNL     1      17.738  -9.664  -6.688 -0.15 -0.00    +0.000 A 
DOCKED: ATOM     28  C   UNL     1      17.814  -8.350  -6.222 -0.09 -0.00    +0.000 A 
DOCKED: ATOM     29  C   UNL     1      16.900  -7.952  -5.230 -0.12 -0.00    +0.000 A 
DOCKED: ATOM     30  C   UNL     1      15.943  -8.862  -4.731 -0.14 -0.00    +0.000 A 
DOCKED: ATOM     31  C   UNL     1      15.892 -10.181  -5.217 -0.19 -0.00    +0.000 A 
DOCKED: ATOM     32  H   UNL     1      16.406 -12.560  -6.599 -0.02 +0.00    +0.000 HD
DOCKED: ENDBRANCH  22  23
DOCKED: ENDBRANCH  21  22
DOCKED: ENDBRANCH   1  21
DOCKED: TORSDOF 10
DOCKED: TER
DOCKED: ENDMDL
________________________________________________________________________________


	BEGINNING GENETIC ALGORITHM DOCKING 93 of 100
Run: 93 Seed: 1315919185 2096742858 [ Run 93 of 100 GA/GALS ]
Beginning LAMARCKIAN GENETIC ALGORITHM (LGA), with a maximum of 2500000 energy evaluations.

Final-Value: -14.403


	FINAL GENETIC ALGORITHM DOCKED STATE
	_______________________________________________


Detailed state:  trans 17.965 -12.377 2.128 quatxyzw 0.187170 -0.199358 0.710675 0.648201 center 0.288 0.007 -0.056 ntor 10 -12.6749 -136.4613 -11.5048 144.8806 140.7772 -52.1012 171.9389 -33.6349 -18.0228 122.1371
State:	 17.965 -12.377   2.128   0.246 -0.262  0.933 99.188    -12.67 -136.46  -11.50  144.88  140.78  -52.10  171.94  -33.63  -18.02  122.14

DOCKED: MODEL       93
DOCKED: USER    Run = 93
DOCKED: USER    DPF = ligand_dock.biased.dpf
DOCKED: USER  
DOCKED: USER    Estimated Free Energy of Binding    =   -8.02 kcal/mol  [=(1)+(2)+(3)-(4)]
DOCKED: USER    Estimated Inhibition Constant, Ki   =    1.32 uM (micromolar)  [Temperature = 298.15 K]
DOCKED: USER    
DOCKED: USER    (1) Final Intermolecular Energy     =  -11.00 kcal/mol
DOCKED: USER        vdW + Hbond + desolv Energy     =  -11.00 kcal/mol
DOCKED: USER        Electrostatic Energy            =   +0.00 kcal/mol
DOCKED: USER    (2) Final Total Internal Energy     =   -3.40 kcal/mol
DOCKED: USER    (3) Torsional Free Energy           =   +2.98 kcal/mol
DOCKED: USER    (4) Unbound System's Energy  [=(2)] =   -3.40 kcal/mol
DOCKED: USER    
DOCKED: USER    
DOCKED: USER    NEWDPF move ligand.pdbqt
DOCKED: USER    NEWDPF about 0.288000 0.007000 -0.056000
DOCKED: USER    NEWDPF tran0 17.964757 -12.377027 2.128429
DOCKED: USER    NEWDPF quaternion0 0.187170 -0.199358 0.710675 0.648201
DOCKED: USER    NEWDPF axisangle0 0.245801 -0.261808 0.933295 99.187748
DOCKED: USER    NEWDPF quat0 0.245801 -0.261808 0.933295 99.187748
DOCKED: USER    NEWDPF dihe0 -12.67 -136.46 -11.50 144.88 140.78 -52.10 171.94 -33.63 -18.02 122.14 
DOCKED: USER  keepresnum = 1 
DOCKED: USER  
DOCKED: REMARK  Name = 
DOCKED: REMARK  10 active torsions:
DOCKED: REMARK  status: ('A' for Active; 'I' for Inactive)
DOCKED: REMARK    1  A    between atoms: C_2  and  C_5
DOCKED: REMARK    2  A    between atoms: C_6  and  C_7
DOCKED: REMARK    3  A    between atoms: C_10  and  C_11
DOCKED: REMARK    4  A    between atoms: C_11  and  N_12
DOCKED: REMARK    5  A    between atoms: N_12  and  C_13
DOCKED: REMARK    6  A    between atoms: N_12  and  C_16
DOCKED: REMARK    7  A    between atoms: C_13  and  C_14
DOCKED: REMARK    8  A    between atoms: C_14  and  O_15
DOCKED: REMARK    9  A    between atoms: C_16  and  C_17
DOCKED: REMARK   10  A    between atoms: C_17  and  C_18
DOCKED: REMARK                            x       y       z     vdW  Elec       q    Type
DOCKED: REMARK                         _______ _______ _______ _____ _____    ______ ____
DOCKED: USER                              x       y       z     vdW  Elec       q    Type
DOCKED: USER                           _______ _______ _______ _____ _____    ______ ____
DOCKED: ROOT
DOCKED: ATOM      1  N   UNL     1      17.824 -11.058   2.280 -0.46 +0.00    +0.000 N 
DOCKED: ATOM      2  H   UNL     1      18.057 -10.159   1.858 -0.02 -0.00    +0.000 HD
DOCKED: ENDROOT
DOCKED: BRANCH   1   3
DOCKED: ATOM      3  C   UNL     1      17.883 -12.008   1.138 -0.54 +0.00    +0.000 C 
DOCKED: BRANCH   3   7
DOCKED: ATOM      4  C   UNL     1      14.983 -11.315  -2.020 -0.28 -0.00    +0.000 A 
DOCKED: ATOM      5  C   UNL     1      16.096 -10.473  -1.874 -0.26 -0.00    +0.000 A 
DOCKED: ATOM      6  C   UNL     1      17.031 -10.698  -0.859 -0.27 -0.00    +0.000 A 
DOCKED: ATOM      7  C   UNL     1      16.858 -11.753   0.050 -0.40 +0.00    +0.000 A 
DOCKED: ATOM      8  C   UNL     1      15.752 -12.605  -0.102 -0.49 +0.00    +0.000 A 
DOCKED: ATOM      9  C   UNL     1      14.816 -12.383  -1.117 -0.39 +0.00    +0.000 A 
DOCKED: BRANCH   4  11
DOCKED: ATOM     10  C   UNL     1      13.328  -9.880  -3.210 -0.22 -0.00    +0.000 C 
DOCKED: ATOM     11  C   UNL     1      14.014 -11.027  -3.107 -0.29 -0.00    +0.000 C 
DOCKED: BRANCH  10  13
DOCKED: ATOM     12  O   UNL     1      11.303  -8.987  -4.089 -0.13 -0.00    +0.000 OA
DOCKED: ATOM     13  C   UNL     1      12.364  -9.636  -4.301 -0.12 -0.00    +0.000 C 
DOCKED: ATOM     14  N   UNL     1      12.633 -10.142  -5.610 -0.14 -0.00    +0.000 N 
DOCKED: ATOM     15  O   UNL     1      11.758  -9.927  -6.621 -0.10 -0.00    +0.000 OA
DOCKED: ATOM     16  H   UNL     1      13.460 -10.649  -5.779 -0.00 -0.00    +0.000 HD
DOCKED: ENDBRANCH  10  13
DOCKED: ENDBRANCH   4  11
DOCKED: ENDBRANCH   3   7
DOCKED: ENDBRANCH   1   3
DOCKED: BRANCH   1  17
DOCKED: ATOM     17  C   UNL     1      18.864 -11.257   3.315 -0.55 -0.00    +0.000 C 
DOCKED: BRANCH  17  18
DOCKED: ATOM     18  C   UNL     1      20.274 -11.132   2.729 -0.73 -0.00    +0.000 C 
DOCKED: BRANCH  18  19
DOCKED: ATOM     19  O   UNL     1      20.644 -12.337   2.119 -1.86 -0.00    +0.000 OA
DOCKED: ATOM     20  H   UNL     1      20.832 -13.000   2.802 -0.61 -0.00    +0.000 HD
DOCKED: ENDBRANCH  18  19
DOCKED: ENDBRANCH  17  18
DOCKED: ENDBRANCH   1  17
DOCKED: BRANCH   1  21
DOCKED: ATOM     21  C   UNL     1      16.465 -10.903   2.850 -0.50 +0.00    +0.000 C 
DOCKED: BRANCH  21  22
DOCKED: ATOM     22  C   UNL     1      16.017  -9.439   2.780 -0.41 +0.00    +0.000 C 
DOCKED: BRANCH  22  23
DOCKED: ATOM     23  C   UNL     1      14.905  -9.266   1.786 -0.26 +0.00    +0.000 A 
DOCKED: ATOM     24  C   UNL     1      14.818  -8.276   0.813 -0.22 +0.00    +0.000 A 
DOCKED: ATOM     25  N   UNL     1      13.756  -8.497   0.006 -0.18 -0.00    +0.000 N 
DOCKED: ATOM     26  C   UNL     1      13.180  -9.628   0.451 -0.16 +0.00    +0.000 A 
DOCKED: ATOM     27  C   UNL     1      13.855 -10.130   1.535 -0.23 +0.00    +0.000 A 
DOCKED: ATOM     28  C   UNL     1      13.467 -11.319   2.155 -0.36 +0.00    +0.000 A 
DOCKED: ATOM     29  C   UNL     1      12.350 -11.996   1.633 -0.26 +0.00    +0.000 A 
DOCKED: ATOM     30  C   UNL     1      11.656 -11.480   0.518 -0.35 +0.00    +0.000 A 
DOCKED: ATOM     31  C   UNL     1      12.072 -10.281  -0.088 -0.23 +0.00    +0.000 A 
DOCKED: ATOM     32  H   UNL     1      13.463  -7.944  -0.754 -0.00 -0.00    +0.000 HD
DOCKED: ENDBRANCH  22  23
DOCKED: ENDBRANCH  21  22
DOCKED: ENDBRANCH   1  21
DOCKED: TORSDOF 10
DOCKED: TER
DOCKED: ENDMDL
________________________________________________________________________________


	BEGINNING GENETIC ALGORITHM DOCKING 94 of 100
Run: 94 Seed: 360862984 1306208708 [ Run 94 of 100 GA/GALS ]
Beginning LAMARCKIAN GENETIC ALGORITHM (LGA), with a maximum of 2500000 energy evaluations.

Final-Value: -16.646


	FINAL GENETIC ALGORITHM DOCKED STATE
	_______________________________________________


Detailed state:  trans 20.953 -8.820 -6.392 quatxyzw -0.709829 -0.583622 -0.138765 0.369150 center 0.288 0.007 -0.056 ntor 10 107.8012 -12.9388 8.0741 -144.9402 168.3755 -134.3928 179.1367 -59.0511 -101.5577 -166.7883
State:	 20.953  -8.820  -6.392  -0.764 -0.628 -0.149 136.674    107.80  -12.94    8.07 -144.94  168.38 -134.39  179.14  -59.05 -101.56 -166.79

DOCKED: MODEL       94
DOCKED: USER    Run = 94
DOCKED: USER    DPF = ligand_dock.biased.dpf
DOCKED: USER  
DOCKED: USER    Estimated Free Energy of Binding    =  -10.86 kcal/mol  [=(1)+(2)+(3)-(4)]
DOCKED: USER    Estimated Inhibition Constant, Ki   =   10.92 nM (nanomolar)  [Temperature = 298.15 K]
DOCKED: USER    
DOCKED: USER    (1) Final Intermolecular Energy     =  -13.84 kcal/mol
DOCKED: USER        vdW + Hbond + desolv Energy     =  -13.84 kcal/mol
DOCKED: USER        Electrostatic Energy            =   +0.00 kcal/mol
DOCKED: USER    (2) Final Total Internal Energy     =   -2.80 kcal/mol
DOCKED: USER    (3) Torsional Free Energy           =   +2.98 kcal/mol
DOCKED: USER    (4) Unbound System's Energy  [=(2)] =   -2.80 kcal/mol
DOCKED: USER    
DOCKED: USER    
DOCKED: USER    NEWDPF move ligand.pdbqt
DOCKED: USER    NEWDPF about 0.288000 0.007000 -0.056000
DOCKED: USER    NEWDPF tran0 20.953277 -8.820254 -6.391778
DOCKED: USER    NEWDPF quaternion0 -0.709829 -0.583622 -0.138765 0.369150
DOCKED: USER    NEWDPF axisangle0 -0.763775 -0.627976 -0.149311 136.673544
DOCKED: USER    NEWDPF quat0 -0.763775 -0.627976 -0.149311 136.673544
DOCKED: USER    NEWDPF dihe0 107.80 -12.94 8.07 -144.94 168.38 -134.39 179.14 -59.05 -101.56 -166.79 
DOCKED: USER  keepresnum = 1 
DOCKED: USER  
DOCKED: REMARK  Name = 
DOCKED: REMARK  10 active torsions:
DOCKED: REMARK  status: ('A' for Active; 'I' for Inactive)
DOCKED: REMARK    1  A    between atoms: C_2  and  C_5
DOCKED: REMARK    2  A    between atoms: C_6  and  C_7
DOCKED: REMARK    3  A    between atoms: C_10  and  C_11
DOCKED: REMARK    4  A    between atoms: C_11  and  N_12
DOCKED: REMARK    5  A    between atoms: N_12  and  C_13
DOCKED: REMARK    6  A    between atoms: N_12  and  C_16
DOCKED: REMARK    7  A    between atoms: C_13  and  C_14
DOCKED: REMARK    8  A    between atoms: C_14  and  O_15
DOCKED: REMARK    9  A    between atoms: C_16  and  C_17
DOCKED: REMARK   10  A    between atoms: C_17  and  C_18
DOCKED: REMARK                            x       y       z     vdW  Elec       q    Type
DOCKED: REMARK                         _______ _______ _______ _____ _____    ______ ____
DOCKED: USER                              x       y       z     vdW  Elec       q    Type
DOCKED: USER                           _______ _______ _______ _____ _____    ______ ____
DOCKED: ROOT
DOCKED: ATOM      1  N   UNL     1      20.368 -10.017  -6.298 -0.24 -0.00    +0.000 N 
DOCKED: ATOM      2  H   UNL     1      20.192 -10.790  -5.656 -0.02 -0.00    +0.000 HD
DOCKED: ENDROOT
DOCKED: BRANCH   1   3
DOCKED: ATOM      3  C   UNL     1      20.591  -8.856  -5.396 -0.23 -0.00    +0.000 C 
DOCKED: BRANCH   3   7
DOCKED: ATOM      4  C   UNL     1      20.853  -9.877  -1.183 -0.57 -0.00    +0.000 A 
DOCKED: ATOM      5  C   UNL     1      20.445 -10.833  -2.126 -0.36 -0.00    +0.000 A 
DOCKED: ATOM      6  C   UNL     1      20.364 -10.505  -3.482 -0.43 -0.00    +0.000 A 
DOCKED: ATOM      7  C   UNL     1      20.661  -9.206  -3.922 -0.34 -0.00    +0.000 A 
DOCKED: ATOM      8  C   UNL     1      21.082  -8.251  -2.982 -0.39 -0.00    +0.000 A 
DOCKED: ATOM      9  C   UNL     1      21.165  -8.577  -1.625 -0.46 -0.00    +0.000 A 
DOCKED: BRANCH   4  11
DOCKED: ATOM     10  C   UNL     1      20.085 -11.165   0.809 -0.69 -0.00    +0.000 C 
DOCKED: ATOM     11  C   UNL     1      20.912 -10.272   0.247 -0.69 -0.00    +0.000 C 
DOCKED: BRANCH  10  13
DOCKED: ATOM     12  O   UNL     1      19.904 -12.694   2.625 -1.54 -0.00    +0.000 OA
DOCKED: ATOM     13  C   UNL     1      20.170 -11.523   2.239 -0.77 -0.00    +0.000 C 
DOCKED: ATOM     14  N   UNL     1      20.555 -10.534   3.196 -0.66 -0.00    +0.000 N 
DOCKED: ATOM     15  O   UNL     1      20.637 -10.846   4.511 -0.80 -0.00    +0.000 OA
DOCKED: ATOM     16  H   UNL     1      20.763  -9.618   2.897 -0.59 -0.00    +0.000 HD
DOCKED: ENDBRANCH  10  13
DOCKED: ENDBRANCH   4  11
DOCKED: ENDBRANCH   3   7
DOCKED: ENDBRANCH   1   3
DOCKED: BRANCH   1  17
DOCKED: ATOM     17  C   UNL     1      21.556 -10.447  -7.070 -0.33 -0.00    +0.000 C 
DOCKED: BRANCH  17  18
DOCKED: ATOM     18  C   UNL     1      22.517 -11.276  -6.212 -0.47 -0.00    +0.000 C 
DOCKED: BRANCH  18  19
DOCKED: ATOM     19  O   UNL     1      21.792 -12.173  -5.417 -0.76 -0.00    +0.000 OA
DOCKED: ATOM     20  H   UNL     1      21.135 -12.630  -5.963 -0.58 -0.00    +0.000 HD
DOCKED: ENDBRANCH  18  19
DOCKED: ENDBRANCH  17  18
DOCKED: ENDBRANCH   1  17
DOCKED: BRANCH   1  21
DOCKED: ATOM     21  C   UNL     1      19.151  -9.891  -7.134 -0.23 -0.00    +0.000 C 
DOCKED: BRANCH  21  22
DOCKED: ATOM     22  C   UNL     1      18.521 -11.266  -7.375 -0.29 -0.00    +0.000 C 
DOCKED: BRANCH  22  23
DOCKED: ATOM     23  C   UNL     1      17.137 -11.331  -6.797 -0.33 -0.00    +0.000 A 
DOCKED: ATOM     24  C   UNL     1      16.051 -12.012  -7.337 -0.34 -0.00    +0.000 A 
DOCKED: ATOM     25  N   UNL     1      14.998 -11.971  -6.490 -0.30 -0.00    +0.000 N 
DOCKED: ATOM     26  C   UNL     1      15.415 -11.283  -5.412 -0.24 -0.00    +0.000 A 
DOCKED: ATOM     27  C   UNL     1      16.717 -10.879  -5.560 -0.24 -0.00    +0.000 A 
DOCKED: ATOM     28  C   UNL     1      17.385 -10.176  -4.556 -0.23 -0.00    +0.000 A 
DOCKED: ATOM     29  C   UNL     1      16.679  -9.888  -3.375 -0.22 -0.00    +0.000 A 
DOCKED: ATOM     30  C   UNL     1      15.338 -10.304  -3.223 -0.24 -0.00    +0.000 A 
DOCKED: ATOM     31  C   UNL     1      14.691 -11.014  -4.251 -0.26 -0.00    +0.000 A 
DOCKED: ATOM     32  H   UNL     1      14.106 -12.364  -6.632 -0.01 -0.00    +0.000 HD
DOCKED: ENDBRANCH  22  23
DOCKED: ENDBRANCH  21  22
DOCKED: ENDBRANCH   1  21
DOCKED: TORSDOF 10
DOCKED: TER
DOCKED: ENDMDL
________________________________________________________________________________


	BEGINNING GENETIC ALGORITHM DOCKING 95 of 100
Run: 95 Seed: 870733382 1278640231 [ Run 95 of 100 GA/GALS ]
Beginning LAMARCKIAN GENETIC ALGORITHM (LGA), with a maximum of 2500000 energy evaluations.

Final-Value: -14.450


	FINAL GENETIC ALGORITHM DOCKED STATE
	_______________________________________________


Detailed state:  trans 15.891 -11.944 1.467 quatxyzw -0.613428 -0.186456 -0.701746 0.310633 center 0.288 0.007 -0.056 ntor 10 81.3790 128.6749 -176.0420 -153.5543 56.2538 179.6554 170.5544 9.4046 179.9292 12.9891
State:	 15.891 -11.944   1.467  -0.645 -0.196 -0.738 143.805     81.38  128.67 -176.04 -153.55   56.25  179.66  170.55    9.40  179.93   12.99

DOCKED: MODEL       95
DOCKED: USER    Run = 95
DOCKED: USER    DPF = ligand_dock.biased.dpf
DOCKED: USER  
DOCKED: USER    Estimated Free Energy of Binding    =   -9.29 kcal/mol  [=(1)+(2)+(3)-(4)]
DOCKED: USER    Estimated Inhibition Constant, Ki   =  154.57 nM (nanomolar)  [Temperature = 298.15 K]
DOCKED: USER    
DOCKED: USER    (1) Final Intermolecular Energy     =  -12.27 kcal/mol
DOCKED: USER        vdW + Hbond + desolv Energy     =  -12.27 kcal/mol
DOCKED: USER        Electrostatic Energy            =   +0.00 kcal/mol
DOCKED: USER    (2) Final Total Internal Energy     =   -2.17 kcal/mol
DOCKED: USER    (3) Torsional Free Energy           =   +2.98 kcal/mol
DOCKED: USER    (4) Unbound System's Energy  [=(2)] =   -2.17 kcal/mol
DOCKED: USER    
DOCKED: USER    
DOCKED: USER    NEWDPF move ligand.pdbqt
DOCKED: USER    NEWDPF about 0.288000 0.007000 -0.056000
DOCKED: USER    NEWDPF tran0 15.890894 -11.944403 1.466798
DOCKED: USER    NEWDPF quaternion0 -0.613428 -0.186456 -0.701746 0.310633
DOCKED: USER    NEWDPF axisangle0 -0.645354 -0.196160 -0.738268 143.805191
DOCKED: USER    NEWDPF quat0 -0.645354 -0.196160 -0.738268 143.805191
DOCKED: USER    NEWDPF dihe0 81.38 128.67 -176.04 -153.55 56.25 179.66 170.55 9.40 179.93 12.99 
DOCKED: USER  keepresnum = 1 
DOCKED: USER  
DOCKED: REMARK  Name = 
DOCKED: REMARK  10 active torsions:
DOCKED: REMARK  status: ('A' for Active; 'I' for Inactive)
DOCKED: REMARK    1  A    between atoms: C_2  and  C_5
DOCKED: REMARK    2  A    between atoms: C_6  and  C_7
DOCKED: REMARK    3  A    between atoms: C_10  and  C_11
DOCKED: REMARK    4  A    between atoms: C_11  and  N_12
DOCKED: REMARK    5  A    between atoms: N_12  and  C_13
DOCKED: REMARK    6  A    between atoms: N_12  and  C_16
DOCKED: REMARK    7  A    between atoms: C_13  and  C_14
DOCKED: REMARK    8  A    between atoms: C_14  and  O_15
DOCKED: REMARK    9  A    between atoms: C_16  and  C_17
DOCKED: REMARK   10  A    between atoms: C_17  and  C_18
DOCKED: REMARK                            x       y       z     vdW  Elec       q    Type
DOCKED: REMARK                         _______ _______ _______ _____ _____    ______ ____
DOCKED: USER                              x       y       z     vdW  Elec       q    Type
DOCKED: USER                           _______ _______ _______ _____ _____    ______ ____
DOCKED: ROOT
DOCKED: ATOM      1  N   UNL     1      16.026 -12.584   0.302 -0.50 +0.00    +0.000 N 
DOCKED: ATOM      2  H   UNL     1      15.737 -13.419  -0.207 -0.04 +0.00    +0.000 HD
DOCKED: ENDROOT
DOCKED: BRANCH   1   3
DOCKED: ATOM      3  C   UNL     1      14.944 -12.393   1.304 -0.47 +0.00    +0.000 C 
DOCKED: BRANCH   3   7
DOCKED: ATOM      4  C   UNL     1      15.277  -8.693   3.555 -0.34 +0.00    +0.000 A 
DOCKED: ATOM      5  C   UNL     1      15.929  -9.857   3.990 -0.27 +0.00    +0.000 A 
DOCKED: ATOM      6  C   UNL     1      15.825 -11.046   3.264 -0.46 +0.00    +0.000 A 
DOCKED: ATOM      7  C   UNL     1      15.041 -11.107   2.101 -0.39 +0.00    +0.000 A 
DOCKED: ATOM      8  C   UNL     1      14.398  -9.940   1.655 -0.24 +0.00    +0.000 A 
DOCKED: ATOM      9  C   UNL     1      14.502  -8.749   2.380 -0.25 +0.00    +0.000 A 
DOCKED: BRANCH   4  11
DOCKED: ATOM     10  C   UNL     1      14.427  -6.560   4.524 -0.38 +0.00    +0.000 C 
DOCKED: ATOM     11  C   UNL     1      15.410  -7.458   4.367 -0.42 +0.00    +0.000 C 
DOCKED: BRANCH  10  13
DOCKED: ATOM     12  O   UNL     1      13.609  -4.764   5.857 -0.83 +0.00    +0.000 OA
DOCKED: ATOM     13  C   UNL     1      14.603  -5.337   5.333 -0.47 +0.00    +0.000 C 
DOCKED: ATOM     14  N   UNL     1      15.911  -4.794   5.522 -0.46 +0.00    +0.000 N 
DOCKED: ATOM     15  O   UNL     1      16.089  -3.673   6.260 -0.69 +0.00    +0.000 OA
DOCKED: ATOM     16  H   UNL     1      16.690  -5.238   5.113 -0.63 -0.00    +0.000 HD
DOCKED: ENDBRANCH  10  13
DOCKED: ENDBRANCH   4  11
DOCKED: ENDBRANCH   3   7
DOCKED: ENDBRANCH   1   3
DOCKED: BRANCH   1  17
DOCKED: ATOM     17  C   UNL     1      17.347 -12.940   0.868 -0.21 +0.00    +0.000 C 
DOCKED: BRANCH  17  18
DOCKED: ATOM     18  C   UNL     1      18.318 -11.757   0.824 -0.56 -0.00    +0.000 C 
DOCKED: BRANCH  18  19
DOCKED: ATOM     19  O   UNL     1      19.576 -12.156   1.293 -1.47 -0.00    +0.000 OA
DOCKED: ATOM     20  H   UNL     1      19.656 -13.120   1.223 -0.52 -0.00    +0.000 HD
DOCKED: ENDBRANCH  18  19
DOCKED: ENDBRANCH  17  18
DOCKED: ENDBRANCH   1  17
DOCKED: BRANCH   1  21
DOCKED: ATOM     21  C   UNL     1      16.102 -11.495  -0.701 -0.37 +0.00    +0.000 C 
DOCKED: BRANCH  21  22
DOCKED: ATOM     22  C   UNL     1      15.014 -11.670  -1.765 -0.32 +0.00    +0.000 C 
DOCKED: BRANCH  22  23
DOCKED: ATOM     23  C   UNL     1      13.953 -10.616  -1.626 -0.27 -0.00    +0.000 A 
DOCKED: ATOM     24  C   UNL     1      13.861  -9.440  -2.362 -0.19 -0.00    +0.000 A 
DOCKED: ATOM     25  N   UNL     1      12.711  -8.789  -2.073 -0.13 -0.00    +0.000 N 
DOCKED: ATOM     26  C   UNL     1      12.070  -9.553  -1.171 -0.18 -0.00    +0.000 A 
DOCKED: ATOM     27  C   UNL     1      12.794 -10.680  -0.876 -0.26 +0.00    +0.000 A 
DOCKED: ATOM     28  C   UNL     1      12.318 -11.646   0.011 -0.28 +0.00    +0.000 A 
DOCKED: ATOM     29  C   UNL     1      11.060 -11.432   0.603 -0.34 +0.00    +0.000 A 
DOCKED: ATOM     30  C   UNL     1      10.315 -10.272   0.299 -0.20 +0.00    +0.000 A 
DOCKED: ATOM     31  C   UNL     1      10.819  -9.316  -0.602 -0.14 -0.00    +0.000 A 
DOCKED: ATOM     32  H   UNL     1      12.406  -7.931  -2.445 +0.00 -0.00    +0.000 HD
DOCKED: ENDBRANCH  22  23
DOCKED: ENDBRANCH  21  22
DOCKED: ENDBRANCH   1  21
DOCKED: TORSDOF 10
DOCKED: TER
DOCKED: ENDMDL
________________________________________________________________________________


	BEGINNING GENETIC ALGORITHM DOCKING 96 of 100
Run: 96 Seed: 1316036491 1850599755 [ Run 96 of 100 GA/GALS ]
Beginning LAMARCKIAN GENETIC ALGORITHM (LGA), with a maximum of 2500000 energy evaluations.

Final-Value: -15.390


	FINAL GENETIC ALGORITHM DOCKED STATE
	_______________________________________________


Detailed state:  trans 20.265 -9.770 -5.457 quatxyzw 0.261098 -0.652235 0.262057 -0.661621 center 0.288 0.007 -0.056 ntor 10 148.7170 -64.3859 54.9305 122.4162 -62.0993 -158.9324 -147.4125 -37.5819 -139.6028 -5.2686
State:	 20.265  -9.770  -5.457   0.348 -0.870  0.349 -97.153    148.72  -64.39   54.93  122.42  -62.10 -158.93 -147.41  -37.58 -139.60   -5.27

DOCKED: MODEL       96
DOCKED: USER    Run = 96
DOCKED: USER    DPF = ligand_dock.biased.dpf
DOCKED: USER  
DOCKED: USER    Estimated Free Energy of Binding    =  -10.60 kcal/mol  [=(1)+(2)+(3)-(4)]
DOCKED: USER    Estimated Inhibition Constant, Ki   =   17.09 nM (nanomolar)  [Temperature = 298.15 K]
DOCKED: USER    
DOCKED: USER    (1) Final Intermolecular Energy     =  -13.58 kcal/mol
DOCKED: USER        vdW + Hbond + desolv Energy     =  -13.58 kcal/mol
DOCKED: USER        Electrostatic Energy            =   +0.00 kcal/mol
DOCKED: USER    (2) Final Total Internal Energy     =   -1.81 kcal/mol
DOCKED: USER    (3) Torsional Free Energy           =   +2.98 kcal/mol
DOCKED: USER    (4) Unbound System's Energy  [=(2)] =   -1.81 kcal/mol
DOCKED: USER    
DOCKED: USER    
DOCKED: USER    NEWDPF move ligand.pdbqt
DOCKED: USER    NEWDPF about 0.288000 0.007000 -0.056000
DOCKED: USER    NEWDPF tran0 20.265187 -9.769655 -5.457231
DOCKED: USER    NEWDPF quaternion0 0.261098 -0.652235 0.262057 -0.661621
DOCKED: USER    NEWDPF axisangle0 0.348206 -0.869835 0.349485 -97.152708
DOCKED: USER    NEWDPF quat0 0.348206 -0.869835 0.349485 -97.152708
DOCKED: USER    NEWDPF dihe0 148.72 -64.39 54.93 122.42 -62.10 -158.93 -147.41 -37.58 -139.60 -5.27 
DOCKED: USER  keepresnum = 1 
DOCKED: USER  
DOCKED: REMARK  Name = 
DOCKED: REMARK  10 active torsions:
DOCKED: REMARK  status: ('A' for Active; 'I' for Inactive)
DOCKED: REMARK    1  A    between atoms: C_2  and  C_5
DOCKED: REMARK    2  A    between atoms: C_6  and  C_7
DOCKED: REMARK    3  A    between atoms: C_10  and  C_11
DOCKED: REMARK    4  A    between atoms: C_11  and  N_12
DOCKED: REMARK    5  A    between atoms: N_12  and  C_13
DOCKED: REMARK    6  A    between atoms: N_12  and  C_16
DOCKED: REMARK    7  A    between atoms: C_13  and  C_14
DOCKED: REMARK    8  A    between atoms: C_14  and  O_15
DOCKED: REMARK    9  A    between atoms: C_16  and  C_17
DOCKED: REMARK   10  A    between atoms: C_17  and  C_18
DOCKED: REMARK                            x       y       z     vdW  Elec       q    Type
DOCKED: REMARK                         _______ _______ _______ _____ _____    ______ ____
DOCKED: USER                              x       y       z     vdW  Elec       q    Type
DOCKED: USER                           _______ _______ _______ _____ _____    ______ ____
DOCKED: ROOT
DOCKED: ATOM      1  N   UNL     1      20.459 -10.000  -6.758 -0.22 -0.00    +0.000 N 
DOCKED: ATOM      2  H   UNL     1      20.407  -9.565  -7.679 +0.00 -0.00    +0.000 HD
DOCKED: ENDROOT
DOCKED: BRANCH   1   3
DOCKED: ATOM      3  C   UNL     1      20.624  -8.847  -5.835 -0.20 -0.00    +0.000 C 
DOCKED: BRANCH   3   7
DOCKED: ATOM      4  C   UNL     1      20.187  -9.870  -1.637 -0.43 -0.00    +0.000 A 
DOCKED: ATOM      5  C   UNL     1      19.249 -10.312  -2.583 -0.35 -0.00    +0.000 A 
DOCKED: ATOM      6  C   UNL     1      19.391  -9.985  -3.934 -0.31 -0.00    +0.000 A 
DOCKED: ATOM      7  C   UNL     1      20.460  -9.185  -4.366 -0.29 -0.00    +0.000 A 
DOCKED: ATOM      8  C   UNL     1      21.408  -8.751  -3.424 -0.37 -0.00    +0.000 A 
DOCKED: ATOM      9  C   UNL     1      21.268  -9.078  -2.072 -0.47 -0.00    +0.000 A 
DOCKED: BRANCH   4  11
DOCKED: ATOM     10  C   UNL     1      20.589 -11.272   0.384 -0.65 -0.00    +0.000 C 
DOCKED: ATOM     11  C   UNL     1      19.985 -10.235  -0.212 -0.56 -0.00    +0.000 C 
DOCKED: BRANCH  10  13
DOCKED: ATOM     12  O   UNL     1      19.902 -12.741   2.129 -1.60 -0.00    +0.000 OA
DOCKED: ATOM     13  C   UNL     1      20.354 -11.609   1.802 -0.78 -0.00    +0.000 C 
DOCKED: ATOM     14  N   UNL     1      20.639 -10.643   2.817 -0.63 -0.00    +0.000 N 
DOCKED: ATOM     15  O   UNL     1      20.428 -10.936   4.122 -1.05 -0.00    +0.000 OA
DOCKED: ATOM     16  H   UNL     1      20.991  -9.758   2.565 -0.60 -0.00    +0.000 HD
DOCKED: ENDBRANCH  10  13
DOCKED: ENDBRANCH   4  11
DOCKED: ENDBRANCH   3   7
DOCKED: ENDBRANCH   1   3
DOCKED: BRANCH   1  17
DOCKED: ATOM     17  C   UNL     1      19.176 -10.728  -6.626 -0.34 -0.00    +0.000 C 
DOCKED: BRANCH  17  18
DOCKED: ATOM     18  C   UNL     1      18.439 -10.822  -7.964 -0.26 -0.00    +0.000 C 
DOCKED: BRANCH  18  19
DOCKED: ATOM     19  O   UNL     1      19.070 -10.007  -8.913 -0.20 -0.00    +0.000 OA
DOCKED: ATOM     20  H   UNL     1      19.766 -10.512  -9.361 -0.02 -0.00    +0.000 HD
DOCKED: ENDBRANCH  18  19
DOCKED: ENDBRANCH  17  18
DOCKED: ENDBRANCH   1  17
DOCKED: BRANCH   1  21
DOCKED: ATOM     21  C   UNL     1      21.634 -10.902  -6.795 -0.37 -0.00    +0.000 C 
DOCKED: BRANCH  21  22
DOCKED: ATOM     22  C   UNL     1      22.131 -11.078  -8.234 -0.31 -0.00    +0.000 C 
DOCKED: BRANCH  22  23
DOCKED: ATOM     23  C   UNL     1      23.605 -11.361  -8.261 -0.35 -0.00    +0.000 A 
DOCKED: ATOM     24  C   UNL     1      24.214 -12.501  -8.775 -0.38 -0.00    +0.000 A 
DOCKED: ATOM     25  N   UNL     1      25.560 -12.365  -8.760 -0.42 -0.00    +0.000 N 
DOCKED: ATOM     26  C   UNL     1      25.804 -11.143  -8.255 -0.34 -0.00    +0.000 A 
DOCKED: ATOM     27  C   UNL     1      24.636 -10.497  -7.942 -0.32 -0.00    +0.000 A 
DOCKED: ATOM     28  C   UNL     1      24.630  -9.198  -7.433 -0.24 -0.00    +0.000 A 
DOCKED: ATOM     29  C   UNL     1      25.870  -8.561  -7.245 -0.26 -0.00    +0.000 A 
DOCKED: ATOM     30  C   UNL     1      27.073  -9.226  -7.567 -0.34 -0.00    +0.000 A 
DOCKED: ATOM     31  C   UNL     1      27.047 -10.535  -8.083 -0.38 -0.00    +0.000 A 
DOCKED: ATOM     32  H   UNL     1      26.226 -13.026  -9.057 -0.55 -0.00    +0.000 HD
DOCKED: ENDBRANCH  22  23
DOCKED: ENDBRANCH  21  22
DOCKED: ENDBRANCH   1  21
DOCKED: TORSDOF 10
DOCKED: TER
DOCKED: ENDMDL
________________________________________________________________________________


	BEGINNING GENETIC ALGORITHM DOCKING 97 of 100
Run: 97 Seed: 307153790 740707823 [ Run 97 of 100 GA/GALS ]
Beginning LAMARCKIAN GENETIC ALGORITHM (LGA), with a maximum of 2500000 energy evaluations.

Final-Value: -14.492


	FINAL GENETIC ALGORITHM DOCKED STATE
	_______________________________________________


Detailed state:  trans 20.639 -9.590 -5.013 quatxyzw 0.506979 0.414606 -0.225865 0.721152 center 0.288 0.007 -0.056 ntor 10 -14.2303 -53.6313 60.7928 -95.2538 49.4691 137.9482 -82.4156 -165.0198 -19.0884 -180.0000
State:	 20.639  -9.590  -5.013   0.732  0.598 -0.326 87.701    -14.23  -53.63   60.79  -95.25   49.47  137.95  -82.42 -165.02  -19.09 -180.00

DOCKED: MODEL       97
DOCKED: USER    Run = 97
DOCKED: USER    DPF = ligand_dock.biased.dpf
DOCKED: USER  
DOCKED: USER    Estimated Free Energy of Binding    =   -9.42 kcal/mol  [=(1)+(2)+(3)-(4)]
DOCKED: USER    Estimated Inhibition Constant, Ki   =  124.20 nM (nanomolar)  [Temperature = 298.15 K]
DOCKED: USER    
DOCKED: USER    (1) Final Intermolecular Energy     =  -12.40 kcal/mol
DOCKED: USER        vdW + Hbond + desolv Energy     =  -12.40 kcal/mol
DOCKED: USER        Electrostatic Energy            =   +0.00 kcal/mol
DOCKED: USER    (2) Final Total Internal Energy     =   -2.09 kcal/mol
DOCKED: USER    (3) Torsional Free Energy           =   +2.98 kcal/mol
DOCKED: USER    (4) Unbound System's Energy  [=(2)] =   -2.09 kcal/mol
DOCKED: USER    
DOCKED: USER    
DOCKED: USER    NEWDPF move ligand.pdbqt
DOCKED: USER    NEWDPF about 0.288000 0.007000 -0.056000
DOCKED: USER    NEWDPF tran0 20.638911 -9.590368 -5.012718
DOCKED: USER    NEWDPF quaternion0 0.506979 0.414606 -0.225865 0.721152
DOCKED: USER    NEWDPF axisangle0 0.731806 0.598469 -0.326028 87.700732
DOCKED: USER    NEWDPF quat0 0.731806 0.598469 -0.326028 87.700732
DOCKED: USER    NEWDPF dihe0 -14.23 -53.63 60.79 -95.25 49.47 137.95 -82.42 -165.02 -19.09 -180.00 
DOCKED: USER  keepresnum = 1 
DOCKED: USER  
DOCKED: REMARK  Name = 
DOCKED: REMARK  10 active torsions:
DOCKED: REMARK  status: ('A' for Active; 'I' for Inactive)
DOCKED: REMARK    1  A    between atoms: C_2  and  C_5
DOCKED: REMARK    2  A    between atoms: C_6  and  C_7
DOCKED: REMARK    3  A    between atoms: C_10  and  C_11
DOCKED: REMARK    4  A    between atoms: C_11  and  N_12
DOCKED: REMARK    5  A    between atoms: N_12  and  C_13
DOCKED: REMARK    6  A    between atoms: N_12  and  C_16
DOCKED: REMARK    7  A    between atoms: C_13  and  C_14
DOCKED: REMARK    8  A    between atoms: C_14  and  O_15
DOCKED: REMARK    9  A    between atoms: C_16  and  C_17
DOCKED: REMARK   10  A    between atoms: C_17  and  C_18
DOCKED: REMARK                            x       y       z     vdW  Elec       q    Type
DOCKED: REMARK                         _______ _______ _______ _____ _____    ______ ____
DOCKED: USER                              x       y       z     vdW  Elec       q    Type
DOCKED: USER                           _______ _______ _______ _____ _____    ______ ____
DOCKED: ROOT
DOCKED: ATOM      1  N   UNL     1      19.889 -10.677  -5.212 -0.35 -0.00    +0.000 N 
DOCKED: ATOM      2  H   UNL     1      19.638 -11.378  -5.910 -0.08 -0.00    +0.000 HD
DOCKED: ENDROOT
DOCKED: BRANCH   1   3
DOCKED: ATOM      3  C   UNL     1      21.219 -10.192  -5.664 -0.38 -0.00    +0.000 C 
DOCKED: BRANCH   3   7
DOCKED: ATOM      4  C   UNL     1      22.926 -12.311  -9.050 -0.33 -0.00    +0.000 A 
DOCKED: ATOM      5  C   UNL     1      21.847 -11.431  -9.226 -0.19 -0.00    +0.000 A 
DOCKED: ATOM      6  C   UNL     1      21.300 -10.747  -8.138 -0.22 -0.00    +0.000 A 
DOCKED: ATOM      7  C   UNL     1      21.801 -10.950  -6.842 -0.32 -0.00    +0.000 A 
DOCKED: ATOM      8  C   UNL     1      22.889 -11.820  -6.664 -0.46 -0.00    +0.000 A 
DOCKED: ATOM      9  C   UNL     1      23.439 -12.504  -7.752 -0.29 -0.00    +0.000 A 
DOCKED: BRANCH   4  11
DOCKED: ATOM     10  C   UNL     1      24.054 -14.224 -10.182 -0.39 -0.00    +0.000 C 
DOCKED: ATOM     11  C   UNL     1      23.464 -13.021 -10.237 -0.36 -0.00    +0.000 C 
DOCKED: BRANCH  10  13
DOCKED: ATOM     12  O   UNL     1      23.900 -15.757 -11.997 -0.72 +0.00    +0.000 OA
DOCKED: ATOM     13  C   UNL     1      24.586 -14.894 -11.384 -0.36 +0.00    +0.000 C 
DOCKED: ATOM     14  N   UNL     1      25.893 -14.564 -11.860 -0.25 -0.00    +0.000 N 
DOCKED: ATOM     15  O   UNL     1      26.396 -15.170 -12.961 -0.22 -0.00    +0.000 OA
DOCKED: ATOM     16  H   UNL     1      26.432 -13.891 -11.383 -0.58 -0.00    +0.000 HD
DOCKED: ENDBRANCH  10  13
DOCKED: ENDBRANCH   4  11
DOCKED: ENDBRANCH   3   7
DOCKED: ENDBRANCH   1   3
DOCKED: BRANCH   1  17
DOCKED: ATOM     17  C   UNL     1      18.799  -9.677  -5.291 -0.24 -0.00    +0.000 C 
DOCKED: BRANCH  17  18
DOCKED: ATOM     18  C   UNL     1      17.557 -10.250  -5.979 -0.25 -0.00    +0.000 C 
DOCKED: BRANCH  18  19
DOCKED: ATOM     19  O   UNL     1      17.779 -11.588  -6.327 -0.44 -0.00    +0.000 OA
DOCKED: ATOM     20  H   UNL     1      18.371 -11.628  -7.094 -0.04 -0.00    +0.000 HD
DOCKED: ENDBRANCH  18  19
DOCKED: ENDBRANCH  17  18
DOCKED: ENDBRANCH   1  17
DOCKED: BRANCH   1  21
DOCKED: ATOM     21  C   UNL     1      19.928 -11.387  -3.912 -0.45 -0.00    +0.000 C 
DOCKED: BRANCH  21  22
DOCKED: ATOM     22  C   UNL     1      19.313 -10.520  -2.808 -0.43 -0.00    +0.000 C 
DOCKED: BRANCH  22  23
DOCKED: ATOM     23  C   UNL     1      20.048 -10.701  -1.512 -0.43 -0.00    +0.000 A 
DOCKED: ATOM     24  C   UNL     1      21.408 -10.503  -1.303 -0.56 -0.00    +0.000 A 
DOCKED: ATOM     25  N   UNL     1      21.708 -10.624   0.010 -0.62 -0.00    +0.000 N 
DOCKED: ATOM     26  C   UNL     1      20.545 -10.880   0.634 -0.62 -0.00    +0.000 A 
DOCKED: ATOM     27  C   UNL     1      19.507 -10.931  -0.260 -0.49 -0.00    +0.000 A 
DOCKED: ATOM     28  C   UNL     1      18.192 -11.151   0.153 -0.41 -0.00    +0.000 A 
DOCKED: ATOM     29  C   UNL     1      17.957 -11.323   1.529 -0.44 -0.00    +0.000 A 
DOCKED: ATOM     30  C   UNL     1      19.025 -11.271   2.450 -0.57 -0.00    +0.000 A 
DOCKED: ATOM     31  C   UNL     1      20.340 -11.044   2.004 -0.65 -0.00    +0.000 A 
DOCKED: ATOM     32  H   UNL     1      22.596 -10.541   0.426 -0.26 -0.00    +0.000 HD
DOCKED: ENDBRANCH  22  23
DOCKED: ENDBRANCH  21  22
DOCKED: ENDBRANCH   1  21
DOCKED: TORSDOF 10
DOCKED: TER
DOCKED: ENDMDL
________________________________________________________________________________


	BEGINNING GENETIC ALGORITHM DOCKING 98 of 100
Run: 98 Seed: 1819084204 197680869 [ Run 98 of 100 GA/GALS ]
Beginning LAMARCKIAN GENETIC ALGORITHM (LGA), with a maximum of 2500000 energy evaluations.

Final-Value: -14.988


	FINAL GENETIC ALGORITHM DOCKED STATE
	_______________________________________________


Detailed state:  trans 20.709 -6.744 -5.912 quatxyzw 0.196553 -0.663307 -0.710095 0.130983 center 0.288 0.007 -0.056 ntor 10 39.6323 -106.5273 66.3958 -69.2009 95.5503 -127.9736 180.0000 -34.2050 137.2555 -155.7757
State:	 20.709  -6.744  -5.912   0.198 -0.669 -0.716 164.947     39.63 -106.53   66.40  -69.20   95.55 -127.97  180.00  -34.20  137.26 -155.78

DOCKED: MODEL       98
DOCKED: USER    Run = 98
DOCKED: USER    DPF = ligand_dock.biased.dpf
DOCKED: USER  
DOCKED: USER    Estimated Free Energy of Binding    =   -9.53 kcal/mol  [=(1)+(2)+(3)-(4)]
DOCKED: USER    Estimated Inhibition Constant, Ki   =  103.50 nM (nanomolar)  [Temperature = 298.15 K]
DOCKED: USER    
DOCKED: USER    (1) Final Intermolecular Energy     =  -12.51 kcal/mol
DOCKED: USER        vdW + Hbond + desolv Energy     =  -12.51 kcal/mol
DOCKED: USER        Electrostatic Energy            =   +0.00 kcal/mol
DOCKED: USER    (2) Final Total Internal Energy     =   -2.48 kcal/mol
DOCKED: USER    (3) Torsional Free Energy           =   +2.98 kcal/mol
DOCKED: USER    (4) Unbound System's Energy  [=(2)] =   -2.48 kcal/mol
DOCKED: USER    
DOCKED: USER    
DOCKED: USER    NEWDPF move ligand.pdbqt
DOCKED: USER    NEWDPF about 0.288000 0.007000 -0.056000
DOCKED: USER    NEWDPF tran0 20.708967 -6.744421 -5.911750
DOCKED: USER    NEWDPF quaternion0 0.196553 -0.663307 -0.710095 0.130983
DOCKED: USER    NEWDPF axisangle0 0.198261 -0.669071 -0.716266 164.947215
DOCKED: USER    NEWDPF quat0 0.198261 -0.669071 -0.716266 164.947215
DOCKED: USER    NEWDPF dihe0 39.63 -106.53 66.40 -69.20 95.55 -127.97 180.00 -34.20 137.26 -155.78 
DOCKED: USER  keepresnum = 1 
DOCKED: USER  
DOCKED: REMARK  Name = 
DOCKED: REMARK  10 active torsions:
DOCKED: REMARK  status: ('A' for Active; 'I' for Inactive)
DOCKED: REMARK    1  A    between atoms: C_2  and  C_5
DOCKED: REMARK    2  A    between atoms: C_6  and  C_7
DOCKED: REMARK    3  A    between atoms: C_10  and  C_11
DOCKED: REMARK    4  A    between atoms: C_11  and  N_12
DOCKED: REMARK    5  A    between atoms: N_12  and  C_13
DOCKED: REMARK    6  A    between atoms: N_12  and  C_16
DOCKED: REMARK    7  A    between atoms: C_13  and  C_14
DOCKED: REMARK    8  A    between atoms: C_14  and  O_15
DOCKED: REMARK    9  A    between atoms: C_16  and  C_17
DOCKED: REMARK   10  A    between atoms: C_17  and  C_18
DOCKED: REMARK                            x       y       z     vdW  Elec       q    Type
DOCKED: REMARK                         _______ _______ _______ _____ _____    ______ ____
DOCKED: USER                              x       y       z     vdW  Elec       q    Type
DOCKED: USER                           _______ _______ _______ _____ _____    ______ ____
DOCKED: ROOT
DOCKED: ATOM      1  N   UNL     1      22.000  -6.620  -5.595 -0.15 -0.00    +0.000 N 
DOCKED: ATOM      2  H   UNL     1      22.690  -6.853  -4.880 -0.02 -0.00    +0.000 HD
DOCKED: ENDROOT
DOCKED: BRANCH   1   3
DOCKED: ATOM      3  C   UNL     1      20.942  -7.647  -5.408 -0.19 -0.00    +0.000 C 
DOCKED: BRANCH   3   7
DOCKED: ATOM      4  C   UNL     1      21.105  -9.672  -1.569 -0.55 -0.00    +0.000 A 
DOCKED: ATOM      5  C   UNL     1      21.015 -10.406  -2.762 -0.49 -0.00    +0.000 A 
DOCKED: ATOM      6  C   UNL     1      20.966  -9.755  -3.997 -0.39 -0.00    +0.000 A 
DOCKED: ATOM      7  C   UNL     1      20.976  -8.353  -4.066 -0.31 -0.00    +0.000 A 
DOCKED: ATOM      8  C   UNL     1      21.079  -7.616  -2.875 -0.38 -0.00    +0.000 A 
DOCKED: ATOM      9  C   UNL     1      21.129  -8.265  -1.638 -0.43 -0.00    +0.000 A 
DOCKED: BRANCH   4  11
DOCKED: ATOM     10  C   UNL     1      20.106 -10.488   0.564 -0.63 -0.00    +0.000 C 
DOCKED: ATOM     11  C   UNL     1      21.143 -10.411  -0.282 -0.70 -0.00    +0.000 C 
DOCKED: BRANCH  10  13
DOCKED: ATOM     12  O   UNL     1      20.247 -12.485   1.854 -1.74 -0.00    +0.000 OA
DOCKED: ATOM     13  C   UNL     1      20.187 -11.225   1.841 -0.75 -0.00    +0.000 C 
DOCKED: ATOM     14  N   UNL     1      20.197 -10.505   3.075 -0.68 -0.00    +0.000 N 
DOCKED: ATOM     15  O   UNL     1      20.271 -11.166   4.255 -1.05 -0.00    +0.000 OA
DOCKED: ATOM     16  H   UNL     1      20.151  -9.521   3.068 -0.56 -0.00    +0.000 HD
DOCKED: ENDBRANCH  10  13
DOCKED: ENDBRANCH   4  11
DOCKED: ENDBRANCH   3   7
DOCKED: ENDBRANCH   1   3
DOCKED: BRANCH   1  17
DOCKED: ATOM     17  C   UNL     1      21.591  -5.234  -5.270 -0.12 -0.00    +0.000 C 
DOCKED: BRANCH  17  18
DOCKED: ATOM     18  C   UNL     1      22.673  -4.497  -4.477 -0.15 -0.00    +0.000 C 
DOCKED: BRANCH  18  19
DOCKED: ATOM     19  O   UNL     1      23.060  -5.266  -3.371 -0.18 -0.00    +0.000 OA
DOCKED: ATOM     20  H   UNL     1      22.364  -5.909  -3.166 -0.02 -0.00    +0.000 HD
DOCKED: ENDBRANCH  18  19
DOCKED: ENDBRANCH  17  18
DOCKED: ENDBRANCH   1  17
DOCKED: BRANCH   1  21
DOCKED: ATOM     21  C   UNL     1      22.703  -6.725  -6.895 -0.12 -0.00    +0.000 C 
DOCKED: BRANCH  21  22
DOCKED: ATOM     22  C   UNL     1      24.208  -6.918  -6.677 -0.12 -0.00    +0.000 C 
DOCKED: BRANCH  22  23
DOCKED: ATOM     23  C   UNL     1      24.671  -8.222  -7.259 -0.19 -0.00    +0.000 A 
DOCKED: ATOM     24  C   UNL     1      25.938  -8.493  -7.764 -0.22 -0.00    +0.000 A 
DOCKED: ATOM     25  N   UNL     1      26.051  -9.803  -8.081 -0.31 -0.00    +0.000 N 
DOCKED: ATOM     26  C   UNL     1      24.870 -10.364  -7.765 -0.31 -0.00    +0.000 A 
DOCKED: ATOM     27  C   UNL     1      24.003  -9.432  -7.256 -0.24 -0.00    +0.000 A 
DOCKED: ATOM     28  C   UNL     1      22.723  -9.781  -6.822 -0.26 -0.00    +0.000 A 
DOCKED: ATOM     29  C   UNL     1      22.340 -11.130  -6.924 -0.37 -0.00    +0.000 A 
DOCKED: ATOM     30  C   UNL     1      23.233 -12.090  -7.449 -0.45 -0.00    +0.000 A 
DOCKED: ATOM     31  C   UNL     1      24.519 -11.709  -7.874 -0.39 -0.00    +0.000 A 
DOCKED: ATOM     32  H   UNL     1      26.836 -10.255  -8.465 -0.01 -0.00    +0.000 HD
DOCKED: ENDBRANCH  22  23
DOCKED: ENDBRANCH  21  22
DOCKED: ENDBRANCH   1  21
DOCKED: TORSDOF 10
DOCKED: TER
DOCKED: ENDMDL
________________________________________________________________________________


	BEGINNING GENETIC ALGORITHM DOCKING 99 of 100
Run: 99 Seed: 1621447520 828933227 [ Run 99 of 100 GA/GALS ]
Beginning LAMARCKIAN GENETIC ALGORITHM (LGA), with a maximum of 2500000 energy evaluations.

Final-Value: -14.369


	FINAL GENETIC ALGORITHM DOCKED STATE
	_______________________________________________


Detailed state:  trans 16.997 -10.204 3.946 quatxyzw 0.334630 0.419056 0.180570 0.824505 center 0.288 0.007 -0.056 ntor 10 -72.6395 -48.0813 36.1790 179.9450 179.1401 138.1651 113.0378 -51.3901 -82.3832 179.9292
State:	 16.997 -10.204   3.946   0.591  0.741  0.319 68.923    -72.64  -48.08   36.18  179.94  179.14  138.17  113.04  -51.39  -82.38  179.93

DOCKED: MODEL       99
DOCKED: USER    Run = 99
DOCKED: USER    DPF = ligand_dock.biased.dpf
DOCKED: USER  
DOCKED: USER    Estimated Free Energy of Binding    =   -7.91 kcal/mol  [=(1)+(2)+(3)-(4)]
DOCKED: USER    Estimated Inhibition Constant, Ki   =    1.60 uM (micromolar)  [Temperature = 298.15 K]
DOCKED: USER    
DOCKED: USER    (1) Final Intermolecular Energy     =  -10.89 kcal/mol
DOCKED: USER        vdW + Hbond + desolv Energy     =  -10.89 kcal/mol
DOCKED: USER        Electrostatic Energy            =   +0.00 kcal/mol
DOCKED: USER    (2) Final Total Internal Energy     =   -3.48 kcal/mol
DOCKED: USER    (3) Torsional Free Energy           =   +2.98 kcal/mol
DOCKED: USER    (4) Unbound System's Energy  [=(2)] =   -3.48 kcal/mol
DOCKED: USER    
DOCKED: USER    
DOCKED: USER    NEWDPF move ligand.pdbqt
DOCKED: USER    NEWDPF about 0.288000 0.007000 -0.056000
DOCKED: USER    NEWDPF tran0 16.996717 -10.204489 3.945607
DOCKED: USER    NEWDPF quaternion0 0.334630 0.419056 0.180570 0.824505
DOCKED: USER    NEWDPF axisangle0 0.591372 0.740573 0.319110 68.923277
DOCKED: USER    NEWDPF quat0 0.591372 0.740573 0.319110 68.923277
DOCKED: USER    NEWDPF dihe0 -72.64 -48.08 36.18 179.94 179.14 138.17 113.04 -51.39 -82.38 179.93 
DOCKED: USER  keepresnum = 1 
DOCKED: USER  
DOCKED: REMARK  Name = 
DOCKED: REMARK  10 active torsions:
DOCKED: REMARK  status: ('A' for Active; 'I' for Inactive)
DOCKED: REMARK    1  A    between atoms: C_2  and  C_5
DOCKED: REMARK    2  A    between atoms: C_6  and  C_7
DOCKED: REMARK    3  A    between atoms: C_10  and  C_11
DOCKED: REMARK    4  A    between atoms: C_11  and  N_12
DOCKED: REMARK    5  A    between atoms: N_12  and  C_13
DOCKED: REMARK    6  A    between atoms: N_12  and  C_16
DOCKED: REMARK    7  A    between atoms: C_13  and  C_14
DOCKED: REMARK    8  A    between atoms: C_14  and  O_15
DOCKED: REMARK    9  A    between atoms: C_16  and  C_17
DOCKED: REMARK   10  A    between atoms: C_17  and  C_18
DOCKED: REMARK                            x       y       z     vdW  Elec       q    Type
DOCKED: REMARK                         _______ _______ _______ _____ _____    ______ ____
DOCKED: USER                              x       y       z     vdW  Elec       q    Type
DOCKED: USER                           _______ _______ _______ _____ _____    ______ ____
DOCKED: ROOT
DOCKED: ATOM      1  N   UNL     1      16.061 -10.398   3.013 -0.42 +0.00    +0.000 N 
DOCKED: ATOM      2  H   UNL     1      15.882 -10.327   2.011 +0.00 +0.00    +0.000 HD
DOCKED: ENDROOT
DOCKED: BRANCH   1   3
DOCKED: ATOM      3  C   UNL     1      17.539 -10.531   3.095 -0.46 +0.00    +0.000 C 
DOCKED: BRANCH   3   7
DOCKED: ATOM      4  C   UNL     1      19.553 -10.850  -0.739 -0.46 -0.00    +0.000 A 
DOCKED: ATOM      5  C   UNL     1      18.191 -10.522  -0.672 -0.23 -0.00    +0.000 A 
DOCKED: ATOM      6  C   UNL     1      17.543 -10.417   0.562 -0.13 -0.00    +0.000 A 
DOCKED: ATOM      7  C   UNL     1      18.238 -10.665   1.756 -0.45 -0.00    +0.000 A 
DOCKED: ATOM      8  C   UNL     1      19.605 -10.980   1.693 -0.60 -0.00    +0.000 A 
DOCKED: ATOM      9  C   UNL     1      20.255 -11.085   0.460 -0.60 -0.00    +0.000 A 
DOCKED: BRANCH   4  11
DOCKED: ATOM     10  C   UNL     1      19.513 -11.181  -3.210 -0.42 -0.00    +0.000 C 
DOCKED: ATOM     11  C   UNL     1      20.192 -10.961  -2.075 -0.31 -0.00    +0.000 C 
DOCKED: BRANCH  10  13
DOCKED: ATOM     12  O   UNL     1      19.524 -11.527  -5.565 -0.50 -0.00    +0.000 OA
DOCKED: ATOM     13  C   UNL     1      20.187 -11.295  -4.518 -0.51 -0.00    +0.000 C 
DOCKED: ATOM     14  N   UNL     1      21.606 -11.143  -4.600 -0.51 -0.00    +0.000 N 
DOCKED: ATOM     15  O   UNL     1      22.239 -11.245  -5.793 -0.53 -0.00    +0.000 OA
DOCKED: ATOM     16  H   UNL     1      22.127 -10.962  -3.784 -0.05 -0.00    +0.000 HD
DOCKED: ENDBRANCH  10  13
DOCKED: ENDBRANCH   4  11
DOCKED: ENDBRANCH   3   7
DOCKED: ENDBRANCH   1   3
DOCKED: BRANCH   1  17
DOCKED: ATOM     17  C   UNL     1      15.514  -9.141   3.572 -0.42 +0.00    +0.000 C 
DOCKED: BRANCH  17  18
DOCKED: ATOM     18  C   UNL     1      15.049  -8.187   2.468 -0.31 +0.00    +0.000 C 
DOCKED: BRANCH  18  19
DOCKED: ATOM     19  O   UNL     1      15.126  -8.825   1.224 -0.32 +0.00    +0.000 OA
DOCKED: ATOM     20  H   UNL     1      15.560  -8.238   0.586 -0.04 -0.00    +0.000 HD
DOCKED: ENDBRANCH  18  19
DOCKED: ENDBRANCH  17  18
DOCKED: ENDBRANCH   1  17
DOCKED: BRANCH   1  21
DOCKED: ATOM     21  C   UNL     1      15.332 -11.602   3.476 -0.47 +0.00    +0.000 C 
DOCKED: BRANCH  21  22
DOCKED: ATOM     22  C   UNL     1      14.141 -11.895   2.558 -0.33 +0.00    +0.000 C 
DOCKED: BRANCH  22  23
DOCKED: ATOM     23  C   UNL     1      14.572 -11.944   1.120 -0.43 +0.00    +0.000 A 
DOCKED: ATOM     24  C   UNL     1      15.552 -12.771   0.583 -0.36 +0.00    +0.000 A 
DOCKED: ATOM     25  N   UNL     1      15.587 -12.650  -0.764 -0.45 +0.00    +0.000 N 
DOCKED: ATOM     26  C   UNL     1      14.627 -11.764  -1.082 -0.37 +0.00    +0.000 A 
DOCKED: ATOM     27  C   UNL     1      13.982 -11.313   0.041 -0.33 +0.00    +0.000 A 
DOCKED: ATOM     28  C   UNL     1      12.921 -10.409  -0.036 -0.23 +0.00    +0.000 A 
DOCKED: ATOM     29  C   UNL     1      12.527  -9.966  -1.311 -0.21 -0.00    +0.000 A 
DOCKED: ATOM     30  C   UNL     1      13.192 -10.430  -2.467 -0.23 -0.00    +0.000 A 
DOCKED: ATOM     31  C   UNL     1      14.256 -11.344  -2.359 -0.31 -0.00    +0.000 A 
DOCKED: ATOM     32  H   UNL     1      16.193 -13.114  -1.385 +0.07 +0.00    +0.000 HD
DOCKED: ENDBRANCH  22  23
DOCKED: ENDBRANCH  21  22
DOCKED: ENDBRANCH   1  21
DOCKED: TORSDOF 10
DOCKED: TER
DOCKED: ENDMDL
________________________________________________________________________________


	BEGINNING GENETIC ALGORITHM DOCKING 100 of 100
Run: 100 Seed: 1325991913 378652018 [ Run 100 of 100 GA/GALS ]
Beginning LAMARCKIAN GENETIC ALGORITHM (LGA), with a maximum of 2500000 energy evaluations.

Final-Value: -13.629


	FINAL GENETIC ALGORITHM DOCKED STATE
	_______________________________________________


Detailed state:  trans 12.602 -8.192 3.156 quatxyzw 0.938501 0.166595 0.247241 0.174167 center 0.288 0.007 -0.056 ntor 10 -41.7109 64.2679 -154.8154 -76.6704 163.8334 -179.9256 174.1629 97.5959 33.8497 -70.6657
State:	 12.602  -8.192   3.156   0.953  0.169  0.251 159.940    -41.71   64.27 -154.82  -76.67  163.83 -179.93  174.16   97.60   33.85  -70.67

DOCKED: MODEL      100
DOCKED: USER    Run = 100
DOCKED: USER    DPF = ligand_dock.biased.dpf
DOCKED: USER  
DOCKED: USER    Estimated Free Energy of Binding    =   -8.39 kcal/mol  [=(1)+(2)+(3)-(4)]
DOCKED: USER    Estimated Inhibition Constant, Ki   =  712.53 nM (nanomolar)  [Temperature = 298.15 K]
DOCKED: USER    
DOCKED: USER    (1) Final Intermolecular Energy     =  -11.37 kcal/mol
DOCKED: USER        vdW + Hbond + desolv Energy     =  -11.37 kcal/mol
DOCKED: USER        Electrostatic Energy            =   +0.00 kcal/mol
DOCKED: USER    (2) Final Total Internal Energy     =   -2.26 kcal/mol
DOCKED: USER    (3) Torsional Free Energy           =   +2.98 kcal/mol
DOCKED: USER    (4) Unbound System's Energy  [=(2)] =   -2.26 kcal/mol
DOCKED: USER    
DOCKED: USER    
DOCKED: USER    NEWDPF move ligand.pdbqt
DOCKED: USER    NEWDPF about 0.288000 0.007000 -0.056000
DOCKED: USER    NEWDPF tran0 12.602034 -8.192465 3.155592
DOCKED: USER    NEWDPF quaternion0 0.938501 0.166595 0.247241 0.174167
DOCKED: USER    NEWDPF axisangle0 0.953067 0.169181 0.251079 159.939581
DOCKED: USER    NEWDPF quat0 0.953067 0.169181 0.251079 159.939581
DOCKED: USER    NEWDPF dihe0 -41.71 64.27 -154.82 -76.67 163.83 -179.93 174.16 97.60 33.85 -70.67 
DOCKED: USER  keepresnum = 1 
DOCKED: USER  
DOCKED: REMARK  Name = 
DOCKED: REMARK  10 active torsions:
DOCKED: REMARK  status: ('A' for Active; 'I' for Inactive)
DOCKED: REMARK    1  A    between atoms: C_2  and  C_5
DOCKED: REMARK    2  A    between atoms: C_6  and  C_7
DOCKED: REMARK    3  A    between atoms: C_10  and  C_11
DOCKED: REMARK    4  A    between atoms: C_11  and  N_12
DOCKED: REMARK    5  A    between atoms: N_12  and  C_13
DOCKED: REMARK    6  A    between atoms: N_12  and  C_16
DOCKED: REMARK    7  A    between atoms: C_13  and  C_14
DOCKED: REMARK    8  A    between atoms: C_14  and  O_15
DOCKED: REMARK    9  A    between atoms: C_16  and  C_17
DOCKED: REMARK   10  A    between atoms: C_17  and  C_18
DOCKED: REMARK                            x       y       z     vdW  Elec       q    Type
DOCKED: REMARK                         _______ _______ _______ _____ _____    ______ ____
DOCKED: USER                              x       y       z     vdW  Elec       q    Type
DOCKED: USER                           _______ _______ _______ _____ _____    ______ ____
DOCKED: ROOT
DOCKED: ATOM      1  N   UNL     1      11.412  -8.217   2.551 -0.10 +0.00    +0.000 N 
DOCKED: ATOM      2  H   UNL     1      10.684  -8.845   2.209 +0.00 +0.00    +0.000 HD
DOCKED: ENDROOT
DOCKED: BRANCH   1   3
DOCKED: ATOM      3  C   UNL     1      12.102  -9.017   3.596 -0.19 +0.00    +0.000 C 
DOCKED: BRANCH   3   7
DOCKED: ATOM      4  C   UNL     1      15.919 -10.720   2.415 -0.39 +0.00    +0.000 A 
DOCKED: ATOM      5  C   UNL     1      15.815  -9.932   3.572 -0.41 +0.00    +0.000 A 
DOCKED: ATOM      6  C   UNL     1      14.586  -9.387   3.953 -0.36 +0.00    +0.000 A 
DOCKED: ATOM      7  C   UNL     1      13.439  -9.593   3.170 -0.25 +0.00    +0.000 A 
DOCKED: ATOM      8  C   UNL     1      13.538 -10.392   2.019 -0.27 +0.00    +0.000 A 
DOCKED: ATOM      9  C   UNL     1      14.766 -10.940   1.636 -0.34 +0.00    +0.000 A 
DOCKED: BRANCH   4  11
DOCKED: ATOM     10  C   UNL     1      18.402 -10.603   2.216 -0.56 -0.00    +0.000 C 
DOCKED: ATOM     11  C   UNL     1      17.249 -11.267   2.047 -0.46 +0.00    +0.000 C 
DOCKED: BRANCH  10  13
DOCKED: ATOM     12  O   UNL     1      20.270 -12.041   2.554 -1.96 -0.00    +0.000 OA
DOCKED: ATOM     13  C   UNL     1      19.704 -11.179   1.827 -0.70 -0.00    +0.000 C 
DOCKED: ATOM     14  N   UNL     1      20.333 -10.754   0.616 -0.60 -0.00    +0.000 N 
DOCKED: ATOM     15  O   UNL     1      21.528 -11.272   0.246 -0.72 -0.00    +0.000 OA
DOCKED: ATOM     16  H   UNL     1      19.895 -10.081   0.047 -0.02 -0.00    +0.000 HD
DOCKED: ENDBRANCH  10  13
DOCKED: ENDBRANCH   4  11
DOCKED: ENDBRANCH   3   7
DOCKED: ENDBRANCH   1   3
DOCKED: BRANCH   1  17
DOCKED: ATOM     17  C   UNL     1      12.228  -7.917   1.352 -0.10 +0.00    +0.000 C 
DOCKED: BRANCH  17  18
DOCKED: ATOM     18  C   UNL     1      13.105  -6.679   1.562 -0.15 +0.00    +0.000 C 
DOCKED: BRANCH  18  19
DOCKED: ATOM     19  O   UNL     1      14.456  -7.028   1.441 -0.28 +0.00    +0.000 OA
DOCKED: ATOM     20  H   UNL     1      14.851  -7.101   2.324 -0.02 +0.00    +0.000 HD
DOCKED: ENDBRANCH  18  19
DOCKED: ENDBRANCH  17  18
DOCKED: ENDBRANCH   1  17
DOCKED: BRANCH   1  21
DOCKED: ATOM     21  C   UNL     1      10.710  -7.026   3.085 -0.07 +0.00    +0.000 C 
DOCKED: BRANCH  21  22
DOCKED: ATOM     22  C   UNL     1      11.085  -6.797   4.553 -0.18 +0.00    +0.000 C 
DOCKED: BRANCH  22  23
DOCKED: ATOM     23  C   UNL     1      11.874  -5.530   4.713 -0.20 +0.00    +0.000 A 
DOCKED: ATOM     24  C   UNL     1      11.376  -4.296   5.118 -0.31 +0.00    +0.000 A 
DOCKED: ATOM     25  N   UNL     1      12.385  -3.410   5.284 -0.30 +0.00    +0.000 N 
DOCKED: ATOM     26  C   UNL     1      13.517  -4.079   5.003 -0.31 +0.00    +0.000 A 
DOCKED: ATOM     27  C   UNL     1      13.247  -5.378   4.654 -0.25 +0.00    +0.000 A 
DOCKED: ATOM     28  C   UNL     1      14.266  -6.282   4.351 -0.30 +0.00    +0.000 A 
DOCKED: ATOM     29  C   UNL     1      15.593  -5.820   4.411 -0.30 +0.00    +0.000 A 
DOCKED: ATOM     30  C   UNL     1      15.870  -4.483   4.770 -0.41 -0.00    +0.000 A 
DOCKED: ATOM     31  C   UNL     1      14.823  -3.595   5.074 -0.39 -0.00    +0.000 A 
DOCKED: ATOM     32  H   UNL     1      12.307  -2.467   5.556 -0.48 +0.00    +0.000 HD
DOCKED: ENDBRANCH  22  23
DOCKED: ENDBRANCH  21  22
DOCKED: ENDBRANCH   1  21
DOCKED: TORSDOF 10
DOCKED: TER
DOCKED: ENDMDL
________________________________________________________________________________

DPF>                           # do this many hybrid GA-LS runs

DPF> analysis                             # perform a ranked cluster analysis


		CLUSTER ANALYSIS OF CONFORMATIONS
		_________________________________

Number of conformations = 100

RMSD cluster analysis will be performed using the ligand atoms only (32 / 32 total atoms).

Outputting structurally similar clusters, ranked in order of increasing energy.


________________________________________________________________________________

Number of distinct conformational clusters found = 39,  out of 100 runs,
Using an rmsd-tolerance of 2.0 A


	CLUSTERING HISTOGRAM
	____________________

________________________________________________________________________________
     |           |     |           |     |                                    
Clus | Lowest    | Run | Mean      | Num | Histogram                          
-ter | Binding   |     | Binding   | in  |                                    
Rank | Energy    |     | Energy    | Clus|    5    10   15   20   25   30   35
_____|___________|_____|___________|_____|____:____|____:____|____:____|____:___
   1 |    -11.42 |  70 |    -10.24 |  18 |##################
   2 |    -11.04 |  45 |    -11.04 |   1 |#
   3 |    -11.03 |  65 |    -10.04 |  19 |###################
   4 |    -10.91 |   5 |    -10.37 |   2 |##
   5 |    -10.64 |  58 |    -10.30 |   2 |##
   6 |    -10.59 |  34 |     -9.70 |   5 |#####
   7 |    -10.43 |  20 |     -9.54 |   3 |###
   8 |    -10.20 |  79 |     -9.97 |   2 |##
   9 |    -10.07 |  91 |     -9.54 |   3 |###
  10 |     -9.97 |  29 |     -9.97 |   1 |#
  11 |     -9.92 |   1 |     -9.92 |   1 |#
  12 |     -9.78 |  50 |     -9.77 |   2 |##
  13 |     -9.74 |   7 |     -9.74 |   1 |#
  14 |     -9.69 |  80 |     -9.69 |   1 |#
  15 |     -9.67 |  52 |     -9.67 |   1 |#
  16 |     -9.66 |  57 |     -9.66 |   1 |#
  17 |     -9.53 |  98 |     -9.25 |   4 |####
  18 |     -9.42 |  18 |     -9.42 |   1 |#
  19 |     -9.36 |  43 |     -9.24 |   3 |###
  20 |     -9.29 |  16 |     -9.29 |   1 |#
  21 |     -9.29 |  95 |     -9.29 |   1 |#
  22 |     -9.28 |  28 |     -8.92 |   4 |####
  23 |     -9.17 |  76 |     -9.17 |   1 |#
  24 |     -9.16 |  83 |     -9.16 |   1 |#
  25 |     -9.01 |  82 |     -9.01 |   1 |#
  26 |     -8.95 |  86 |     -8.95 |   1 |#
  27 |     -8.91 |  59 |     -8.91 |   1 |#
  28 |     -8.86 |  13 |     -8.80 |   2 |##
  29 |     -8.84 |  64 |     -8.77 |   2 |##
  30 |     -8.83 |  14 |     -8.10 |   4 |####
  31 |     -8.71 |  48 |     -8.71 |   1 |#
  32 |     -8.71 |  24 |     -8.71 |   1 |#
  33 |     -8.56 |  84 |     -8.07 |   2 |##
  34 |     -8.47 |  44 |     -8.47 |   1 |#
  35 |     -8.39 | 100 |     -8.39 |   1 |#
  36 |     -8.02 |  93 |     -8.02 |   1 |#
  37 |     -7.91 |  99 |     -7.91 |   1 |#
  38 |     -7.63 |  74 |     -7.63 |   1 |#
  39 |     -7.25 |   8 |     -7.25 |   1 |#
_____|___________|_____|___________|_____|______________________________________


Number of multi-member conformational clusters found = 16, out of 100 runs.

	RMSD TABLE
	__________

_____________________________________________________________________
     |      |      |           |         |                 |
Rank | Sub- | Run  | Binding   | Cluster | Reference       | Grep
     | Rank |      | Energy    | RMSD    | RMSD            | Pattern
_____|______|______|___________|_________|_________________|___________
   1      1     70      -11.42      0.00     21.15           RANKING
   1      2      2      -11.23      0.80     21.30           RANKING
   1      3     51      -11.09      1.17     20.95           RANKING
   1      4     26      -10.99      1.15     21.42           RANKING
   1      5     49      -10.95      1.80     20.81           RANKING
   1      6     15      -10.68      0.61     21.14           RANKING
   1      7     96      -10.60      1.53     20.42           RANKING
   1      8     81      -10.56      1.60     20.66           RANKING
   1      9     47      -10.53      1.36     21.20           RANKING
   1     10     54      -10.42      1.80     20.01           RANKING
   1     11     62      -10.18      1.35     21.21           RANKING
   1     12     72       -9.95      1.50     20.44           RANKING
   1     13     89       -9.78      1.52     20.83           RANKING
   1     14     31       -9.68      1.78     20.58           RANKING
   1     15     35       -9.54      1.82     20.71           RANKING
   1     16      9       -9.27      1.69     20.41           RANKING
   1     17     73       -8.80      1.82     21.19           RANKING
   1     18      3       -8.74      1.88     21.70           RANKING
   2      1     45      -11.04      0.00     15.86           RANKING
   3      1     65      -11.03      0.00     18.03           RANKING
   3      2     77      -10.92      1.12     18.08           RANKING
   3      3     94      -10.86      1.21     17.76           RANKING
   3      4     66      -10.69      0.88     17.91           RANKING
   3      5     68      -10.58      1.80     18.62           RANKING
   3      6     63      -10.56      0.81     18.02           RANKING
   3      7     40      -10.52      1.31     18.02           RANKING
   3      8     92      -10.29      1.39     18.32           RANKING
   3      9     30      -10.21      1.46     18.04           RANKING
   3     10     90      -10.14      1.42     18.27           RANKING
   3     11     10      -10.13      1.39     18.19           RANKING
   3     12     33       -9.98      1.23     17.77           RANKING
   3     13     41       -9.96      1.11     18.07           RANKING
   3     14     38       -9.66      1.67     17.67           RANKING
   3     15     60       -9.32      1.61     17.94           RANKING
   3     16     17       -9.27      1.51     17.39           RANKING
   3     17     71       -8.99      1.80     17.86           RANKING
   3     18     27       -8.79      1.81     17.44           RANKING
   3     19     21       -8.78      1.41     17.95           RANKING
   4      1      5      -10.91      0.00     16.71           RANKING
   4      2     36       -9.83      1.22     17.01           RANKING
   5      1     58      -10.64      0.00     17.76           RANKING
   5      2     42       -9.95      1.39     17.22           RANKING
   6      1     34      -10.59      0.00     21.04           RANKING
   6      2     85       -9.87      1.82     20.55           RANKING
   6      3     39       -9.81      1.23     20.57           RANKING
   6      4     53       -9.45      1.76     20.02           RANKING
   6      5     75       -8.80      1.88     20.94           RANKING
   7      1     20      -10.43      0.00     20.80           RANKING
   7      2     97       -9.42      0.73     20.86           RANKING
   7      3     11       -8.79      1.91     20.93           RANKING
   8      1     79      -10.20      0.00     14.27           RANKING
   8      2     87       -9.73      1.58     14.90           RANKING
   9      1     91      -10.07      0.00     19.60           RANKING
   9      2     55       -9.52      1.89     19.72           RANKING
   9      3     12       -9.03      1.52     19.34           RANKING
  10      1     29       -9.97      0.00     20.64           RANKING
  11      1      1       -9.92      0.00     17.22           RANKING
  12      1     50       -9.78      0.00     14.63           RANKING
  12      2     32       -9.76      1.22     14.95           RANKING
  13      1      7       -9.74      0.00     17.63           RANKING
  14      1     80       -9.69      0.00     12.13           RANKING
  15      1     52       -9.67      0.00     21.07           RANKING
  16      1     57       -9.66      0.00     15.93           RANKING
  17      1     98       -9.53      0.00     19.58           RANKING
  17      2     23       -9.51      1.44     20.37           RANKING
  17      3     25       -9.12      0.98     19.85           RANKING
  17      4     37       -8.86      0.62     19.30           RANKING
  18      1     18       -9.42      0.00     14.87           RANKING
  19      1     43       -9.36      0.00     20.65           RANKING
  19      2     19       -9.28      1.27     20.69           RANKING
  19      3     46       -9.08      1.40     20.44           RANKING
  20      1     16       -9.29      0.00     17.06           RANKING
  21      1     95       -9.29      0.00     13.63           RANKING
  22      1     28       -9.28      0.00     14.41           RANKING
  22      2     56       -8.88      1.77     13.93           RANKING
  22      3     61       -8.80      1.68     13.35           RANKING
  22      4     67       -8.72      1.80     13.41           RANKING
  23      1     76       -9.17      0.00     15.81           RANKING
  24      1     83       -9.16      0.00     16.80           RANKING
  25      1     82       -9.01      0.00     16.05           RANKING
  26      1     86       -8.95      0.00     19.35           RANKING
  27      1     59       -8.91      0.00     13.31           RANKING
  28      1     13       -8.86      0.00     17.49           RANKING
  28      2     78       -8.74      1.71     17.48           RANKING
  29      1     64       -8.84      0.00     21.67           RANKING
  29      2     88       -8.70      1.90     20.49           RANKING
  30      1     14       -8.83      0.00     14.15           RANKING
  30      2     22       -7.94      1.77     13.47           RANKING
  30      3     69       -7.89      1.13     13.80           RANKING
  30      4      4       -7.74      1.70     13.62           RANKING
  31      1     48       -8.71      0.00     15.83           RANKING
  32      1     24       -8.71      0.00     14.90           RANKING
  33      1     84       -8.56      0.00     17.22           RANKING
  33      2      6       -7.57      1.82     16.98           RANKING
  34      1     44       -8.47      0.00     16.08           RANKING
  35      1    100       -8.39      0.00     12.80           RANKING
  36      1     93       -8.02      0.00     14.59           RANKING
  37      1     99       -7.91      0.00     15.87           RANKING
  38      1     74       -7.63      0.00     16.24           RANKING
  39      1      8       -7.25      0.00     12.57           RANKING
_______________________________________________________________________



	INFORMATION ENTROPY ANALYSIS FOR THIS CLUSTERING
	________________________________________________


Information entropy for this clustering = 0.67  (rmstol = 2.00 Angstrom)

_______________________________________________________________________


	STATISTICAL MECHANICAL ANALYSIS
	_______________________________


Partition function, Q =   101.62            at Temperature, T = 298.15 K
Free energy,        A ~ -2738.02 kcal/mol   at Temperature, T = 298.15 K
Internal energy,    U =    -9.54 kcal/mol   at Temperature, T = 298.15 K
Entropy,            S =     9.15 kcal/mol/K at Temperature, T = 298.15 K

_______________________________________________________________________


	LOWEST ENERGY DOCKED CONFORMATION from EACH CLUSTER
	___________________________________________________



Keeping original residue number (specified in the input PDBQ file) for outputting.

MODEL       70
USER    Run = 70
USER    Cluster Rank = 1
USER    Number of conformations in this cluster = 18
USER  
USER    RMSD from reference structure       = 21.148 A
USER  
USER    Estimated Free Energy of Binding    =  -11.42 kcal/mol  [=(1)+(2)+(3)-(4)]
USER    Estimated Inhibition Constant, Ki   =    4.27 nM (nanomolar)  [Temperature = 298.15 K]
USER    
USER    (1) Final Intermolecular Energy     =  -14.40 kcal/mol
USER        vdW + Hbond + desolv Energy     =  -14.40 kcal/mol
USER        Electrostatic Energy            =   +0.00 kcal/mol
USER    (2) Final Total Internal Energy     =   -1.88 kcal/mol
USER    (3) Torsional Free Energy           =   +2.98 kcal/mol
USER    (4) Unbound System's Energy  [=(2)] =   -1.88 kcal/mol
USER    
USER    
USER  
USER    DPF = ligand_dock.biased.dpf
USER    NEWDPF move	ligand.pdbqt
USER    NEWDPF about	0.288000 0.007000 -0.056000
USER    NEWDPF tran0	21.039229 -10.018435 -6.008636
USER    NEWDPF axisangle0	-0.550636 0.517058 -0.655324 141.944143
USER    NEWDPF quaternion0	-0.520549 0.488806 -0.619517 0.326029
USER    NEWDPF dihe0	21.46 168.61 -168.67 -179.45 -149.29 -180.00 -48.15 -49.33 169.09 7.04 
USER  
USER                              x       y       z    vdW   Elec        q     RMS 
ATOM      1  N   UNL     1      21.637  -9.789  -7.180 -0.21 -0.00    +0.000    21.148
ATOM      2  H   UNL     1      21.456  -9.542  -8.153 +0.00 -0.00    +0.000    21.148
ATOM      3  C   UNL     1      20.451  -9.260  -6.458 -0.20 -0.00    +0.000    21.148
ATOM      4  C   UNL     1      20.575  -9.921  -2.167 -0.48 -0.00    +0.000    21.148
ATOM      5  C   UNL     1      19.841 -10.777  -3.001 -0.40 -0.00    +0.000    21.148
ATOM      6  C   UNL     1      19.803 -10.566  -4.382 -0.37 -0.00    +0.000    21.148
ATOM      7  C   UNL     1      20.476  -9.476  -4.957 -0.27 -0.00    +0.000    21.148
ATOM      8  C   UNL     1      21.223  -8.625  -4.126 -0.32 -0.00    +0.000    21.148
ATOM      9  C   UNL     1      21.263  -8.835  -2.744 -0.43 -0.00    +0.000    21.148
ATOM     10  C   UNL     1      20.076 -11.292  -0.146 -0.53 -0.00    +0.000    21.148
ATOM     11  C   UNL     1      20.575 -10.181  -0.705 -0.64 -0.00    +0.000    21.148
ATOM     12  O   UNL     1      19.594 -12.560   1.811 -1.60 -0.00    +0.000    21.148
ATOM     13  C   UNL     1      20.084 -11.509   1.314 -0.74 -0.00    +0.000    21.148
ATOM     14  N   UNL     1      20.652 -10.519   2.174 -0.59 -0.00    +0.000    21.148
ATOM     15  O   UNL     1      20.667 -10.703   3.516 -1.16 -0.00    +0.000    21.148
ATOM     16  H   UNL     1      21.035  -9.697   1.789 -0.54 -0.00    +0.000    21.148
ATOM     17  C   UNL     1      21.755 -11.265  -7.194 -0.18 -0.00    +0.000    21.148
ATOM     18  C   UNL     1      22.719 -11.764  -6.114 -0.43 -0.00    +0.000    21.148
ATOM     19  O   UNL     1      23.550 -12.761  -6.641 -1.07 -0.00    +0.000    21.148
ATOM     20  H   UNL     1      23.037 -13.326  -7.240 -0.29 -0.00    +0.000    21.148
ATOM     21  C   UNL     1      22.903  -9.112  -6.813 -0.26 -0.00    +0.000    21.148
ATOM     22  C   UNL     1      23.743  -8.829  -8.064 -0.18 -0.00    +0.000    21.148
ATOM     23  C   UNL     1      24.955  -9.714  -8.107 -0.25 -0.00    +0.000    21.148
ATOM     24  C   UNL     1      25.088 -10.892  -8.833 -0.30 -0.00    +0.000    21.148
ATOM     25  N   UNL     1      26.354 -11.360  -8.749 -0.40 -0.00    +0.000    21.148
ATOM     26  C   UNL     1      27.026 -10.478  -7.988 -0.38 -0.00    +0.000    21.148
ATOM     27  C   UNL     1      26.207  -9.457  -7.579 -0.32 -0.00    +0.000    21.148
ATOM     28  C   UNL     1      26.684  -8.399  -6.804 -0.31 -0.00    +0.000    21.148
ATOM     29  C   UNL     1      28.045  -8.409  -6.447 -0.39 -0.00    +0.000    21.148
ATOM     30  C   UNL     1      28.888  -9.460  -6.868 -0.42 -0.00    +0.000    21.148
ATOM     31  C   UNL     1      28.379 -10.512  -7.651 -0.42 -0.00    +0.000    21.148
ATOM     32  H   UNL     1      26.713 -12.179  -9.161 -0.33 -0.00    +0.000    21.148
TER
ENDMDL
MODEL       45
USER    Run = 45
USER    Cluster Rank = 2
USER    Number of conformations in this cluster = 1
USER  
USER    RMSD from reference structure       = 15.864 A
USER  
USER    Estimated Free Energy of Binding    =  -11.04 kcal/mol  [=(1)+(2)+(3)-(4)]
USER    Estimated Inhibition Constant, Ki   =    8.13 nM (nanomolar)  [Temperature = 298.15 K]
USER    
USER    (1) Final Intermolecular Energy     =  -14.02 kcal/mol
USER        vdW + Hbond + desolv Energy     =  -14.02 kcal/mol
USER        Electrostatic Energy            =   +0.00 kcal/mol
USER    (2) Final Total Internal Energy     =   -1.43 kcal/mol
USER    (3) Torsional Free Energy           =   +2.98 kcal/mol
USER    (4) Unbound System's Energy  [=(2)] =   -1.43 kcal/mol
USER    
USER    
USER  
USER    DPF = ligand_dock.biased.dpf
USER    NEWDPF move	ligand.pdbqt
USER    NEWDPF about	0.288000 0.007000 -0.056000
USER    NEWDPF tran0	17.450029 -10.795635 0.708045
USER    NEWDPF axisangle0	0.276636 0.461536 0.842886 -146.315010
USER    NEWDPF quaternion0	0.264769 0.441739 0.806730 -0.289742
USER    NEWDPF dihe0	-15.00 38.95 -1.22 -66.57 -14.06 179.87 -63.67 -89.90 -180.00 -36.26 
USER  
USER                              x       y       z    vdW   Elec        q     RMS 
ATOM      1  N   UNL     1      18.421 -11.572   0.222 -0.46 -0.00    +0.000    15.864
ATOM      2  H   UNL     1      18.789 -12.523   0.238 -0.17 -0.00    +0.000    15.864
ATOM      3  C   UNL     1      16.991 -11.744   0.588 -0.48 +0.00    +0.000    15.864
ATOM      4  C   UNL     1      15.530  -8.757   3.382 -0.34 +0.00    +0.000    15.864
ATOM      5  C   UNL     1      16.135  -9.934   3.846 -0.27 +0.00    +0.000    15.864
ATOM      6  C   UNL     1      16.608 -10.894   2.947 -0.44 +0.00    +0.000    15.864
ATOM      7  C   UNL     1      16.460 -10.711   1.563 -0.35 +0.00    +0.000    15.864
ATOM      8  C   UNL     1      15.867  -9.527   1.095 -0.20 +0.00    +0.000    15.864
ATOM      9  C   UNL     1      15.394  -8.565   1.993 -0.25 +0.00    +0.000    15.864
ATOM     10  C   UNL     1      15.068  -6.446   4.194 -0.40 +0.00    +0.000    15.864
ATOM     11  C   UNL     1      15.034  -7.773   4.377 -0.42 +0.00    +0.000    15.864
ATOM     12  O   UNL     1      13.345  -5.434   5.489 -0.80 +0.00    +0.000    15.864
ATOM     13  C   UNL     1      14.574  -5.499   5.214 -0.46 +0.00    +0.000    15.864
ATOM     14  N   UNL     1      15.497  -4.646   5.895 -0.44 +0.00    +0.000    15.864
ATOM     15  O   UNL     1      15.059  -3.773   6.833 -0.56 +0.00    +0.000    15.864
ATOM     16  H   UNL     1      16.457  -4.695   5.683 -0.43 -0.00    +0.000    15.864
ATOM     17  C   UNL     1      19.240 -10.847   1.220 -0.60 -0.00    +0.000    15.864
ATOM     18  C   UNL     1      19.439 -11.672   2.494 -0.71 -0.00    +0.000    15.864
ATOM     19  O   UNL     1      20.638 -12.392   2.414 -1.80 -0.00    +0.000    15.864
ATOM     20  H   UNL     1      20.524 -13.144   1.813 -0.63 -0.00    +0.000    15.864
ATOM     21  C   UNL     1      18.623 -11.076  -1.160 -0.44 -0.00    +0.000    15.864
ATOM     22  C   UNL     1      20.118 -10.981  -1.484 -0.34 -0.00    +0.000    15.864
ATOM     23  C   UNL     1      20.480  -9.597  -1.939 -0.45 -0.00    +0.000    15.864
ATOM     24  C   UNL     1      21.044  -8.595  -1.156 -0.44 -0.00    +0.000    15.864
ATOM     25  N   UNL     1      21.364  -7.524  -1.917 -0.49 -0.00    +0.000    15.864
ATOM     26  C   UNL     1      21.022  -7.847  -3.176 -0.37 -0.00    +0.000    15.864
ATOM     27  C   UNL     1      20.482  -9.107  -3.232 -0.37 -0.00    +0.000    15.864
ATOM     28  C   UNL     1      20.081  -9.681  -4.439 -0.29 -0.00    +0.000    15.864
ATOM     29  C   UNL     1      20.244  -8.923  -5.612 -0.18 -0.00    +0.000    15.864
ATOM     30  C   UNL     1      20.799  -7.626  -5.556 -0.15 -0.00    +0.000    15.864
ATOM     31  C   UNL     1      21.198  -7.075  -4.324 -0.24 -0.00    +0.000    15.864
ATOM     32  H   UNL     1      21.766  -6.678  -1.612 -0.05 +0.00    +0.000    15.864
TER
ENDMDL
MODEL       65
USER    Run = 65
USER    Cluster Rank = 3
USER    Number of conformations in this cluster = 19
USER  
USER    RMSD from reference structure       = 18.028 A
USER  
USER    Estimated Free Energy of Binding    =  -11.03 kcal/mol  [=(1)+(2)+(3)-(4)]
USER    Estimated Inhibition Constant, Ki   =    8.25 nM (nanomolar)  [Temperature = 298.15 K]
USER    
USER    (1) Final Intermolecular Energy     =  -14.01 kcal/mol
USER        vdW + Hbond + desolv Energy     =  -14.01 kcal/mol
USER        Electrostatic Energy            =   +0.00 kcal/mol
USER    (2) Final Total Internal Energy     =   -2.43 kcal/mol
USER    (3) Torsional Free Energy           =   +2.98 kcal/mol
USER    (4) Unbound System's Energy  [=(2)] =   -2.43 kcal/mol
USER    
USER    
USER  
USER    DPF = ligand_dock.biased.dpf
USER    NEWDPF move	ligand.pdbqt
USER    NEWDPF about	0.288000 0.007000 -0.056000
USER    NEWDPF tran0	21.072365 -9.116758 -6.638858
USER    NEWDPF axisangle0	0.576521 0.813204 0.079519 -154.441821
USER    NEWDPF quaternion0	0.562240 0.793061 0.077549 -0.221193
USER    NEWDPF dihe0	123.41 -46.48 45.26 148.14 -113.03 -159.80 -76.53 109.40 -123.01 153.08 
USER  
USER                              x       y       z    vdW   Elec        q     RMS 
ATOM      1  N   UNL     1      21.162 -10.429  -6.410 -0.30 -0.00    +0.000    18.028
ATOM      2  H   UNL     1      21.589 -11.122  -5.796 -0.04 -0.00    +0.000    18.028
ATOM      3  C   UNL     1      21.139  -9.194  -5.584 -0.28 -0.00    +0.000    18.028
ATOM      4  C   UNL     1      20.636  -9.912  -1.330 -0.54 -0.00    +0.000    18.028
ATOM      5  C   UNL     1      20.064 -10.778  -2.274 -0.39 -0.00    +0.000    18.028
ATOM      6  C   UNL     1      20.229 -10.549  -3.643 -0.42 -0.00    +0.000    18.028
ATOM      7  C   UNL     1      20.945  -9.431  -4.099 -0.36 -0.00    +0.000    18.028
ATOM      8  C   UNL     1      21.530  -8.569  -3.156 -0.35 -0.00    +0.000    18.028
ATOM      9  C   UNL     1      21.367  -8.797  -1.786 -0.47 -0.00    +0.000    18.028
ATOM     10  C   UNL     1      20.565 -11.406   0.664 -0.65 -0.00    +0.000    18.028
ATOM     11  C   UNL     1      20.423 -10.192   0.112 -0.64 -0.00    +0.000    18.028
ATOM     12  O   UNL     1      19.866 -12.747   2.503 -1.51 -0.00    +0.000    18.028
ATOM     13  C   UNL     1      20.334 -11.646   2.102 -0.79 -0.00    +0.000    18.028
ATOM     14  N   UNL     1      20.642 -10.622   3.051 -0.64 -0.00    +0.000    18.028
ATOM     15  O   UNL     1      20.436 -10.827   4.373 -0.90 -0.00    +0.000    18.028
ATOM     16  H   UNL     1      21.008  -9.762   2.741 -0.60 -0.00    +0.000    18.028
ATOM     17  C   UNL     1      22.063 -10.379  -7.585 -0.30 -0.00    +0.000    18.028
ATOM     18  C   UNL     1      23.200 -11.398  -7.469 -0.47 -0.00    +0.000    18.028
ATOM     19  O   UNL     1      22.977 -12.237  -6.369 -0.76 -0.00    +0.000    18.028
ATOM     20  H   UNL     1      22.162 -12.744  -6.510 -0.59 -0.00    +0.000    18.028
ATOM     21  C   UNL     1      19.813 -10.946  -6.739 -0.28 -0.00    +0.000    18.028
ATOM     22  C   UNL     1      18.767  -9.832  -6.617 -0.22 -0.00    +0.000    18.028
ATOM     23  C   UNL     1      17.524 -10.335  -5.942 -0.23 -0.00    +0.000    18.028
ATOM     24  C   UNL     1      16.991  -9.868  -4.745 -0.20 -0.00    +0.000    18.028
ATOM     25  N   UNL     1      15.796 -10.451  -4.500 -0.22 -0.00    +0.000    18.028
ATOM     26  C   UNL     1      15.562 -11.270  -5.541 -0.24 -0.00    +0.000    18.028
ATOM     27  C   UNL     1      16.592 -11.224  -6.445 -0.30 -0.00    +0.000    18.028
ATOM     28  C   UNL     1      16.563 -11.964  -7.628 -0.34 -0.00    +0.000    18.028
ATOM     29  C   UNL     1      15.436 -12.770  -7.871 -0.38 +0.00    +0.000    18.028
ATOM     30  C   UNL     1      14.376 -12.817  -6.940 -0.35 -0.00    +0.000    18.028
ATOM     31  C   UNL     1      14.431 -12.057  -5.757 -0.27 -0.00    +0.000    18.028
ATOM     32  H   UNL     1      15.214 -10.305  -3.720 -0.00 -0.00    +0.000    18.028
TER
ENDMDL
MODEL        5
USER    Run = 5
USER    Cluster Rank = 4
USER    Number of conformations in this cluster = 2
USER  
USER    RMSD from reference structure       = 16.715 A
USER  
USER    Estimated Free Energy of Binding    =  -10.91 kcal/mol  [=(1)+(2)+(3)-(4)]
USER    Estimated Inhibition Constant, Ki   =   10.06 nM (nanomolar)  [Temperature = 298.15 K]
USER    
USER    (1) Final Intermolecular Energy     =  -13.89 kcal/mol
USER        vdW + Hbond + desolv Energy     =  -13.89 kcal/mol
USER        Electrostatic Energy            =   +0.00 kcal/mol
USER    (2) Final Total Internal Energy     =   -2.67 kcal/mol
USER    (3) Torsional Free Energy           =   +2.98 kcal/mol
USER    (4) Unbound System's Energy  [=(2)] =   -2.67 kcal/mol
USER    
USER    
USER  
USER    DPF = ligand_dock.biased.dpf
USER    NEWDPF move	ligand.pdbqt
USER    NEWDPF about	0.288000 0.007000 -0.056000
USER    NEWDPF tran0	19.314811 -10.767819 0.185614
USER    NEWDPF axisangle0	0.281133 -0.279452 -0.918080 149.486685
USER    NEWDPF quaternion0	0.271225 -0.269603 -0.885724 0.263143
USER    NEWDPF dihe0	126.17 -66.47 25.01 6.43 176.36 129.56 164.59 68.26 -175.09 -51.32 
USER  
USER                              x       y       z    vdW   Elec        q     RMS 
ATOM      1  N   UNL     1      20.430 -10.965   0.893 -0.63 -0.00    +0.000    16.715
ATOM      2  H   UNL     1      20.966 -11.677   1.389 -0.09 -0.00    +0.000    16.715
ATOM      3  C   UNL     1      19.624 -11.746  -0.081 -0.37 -0.00    +0.000    16.715
ATOM      4  C   UNL     1      15.342 -11.127   0.295 -0.31 +0.00    +0.000    16.715
ATOM      5  C   UNL     1      16.008 -12.040   1.126 -0.42 +0.00    +0.000    16.715
ATOM      6  C   UNL     1      17.386 -12.237   1.007 -0.45 +0.00    +0.000    16.715
ATOM      7  C   UNL     1      18.125 -11.546   0.034 -0.44 -0.00    +0.000    16.715
ATOM      8  C   UNL     1      17.463 -10.621  -0.790 -0.25 -0.00    +0.000    16.715
ATOM      9  C   UNL     1      16.084 -10.422  -0.672 -0.27 -0.00    +0.000    16.715
ATOM     10  C   UNL     1      13.070 -11.903   0.968 -0.43 +0.00    +0.000    16.715
ATOM     11  C   UNL     1      13.875 -10.962   0.454 -0.34 +0.00    +0.000    16.715
ATOM     12  O   UNL     1      11.061 -10.668   0.639 -0.29 +0.00    +0.000    16.715
ATOM     13  C   UNL     1      11.613 -11.704   1.100 -0.43 +0.00    +0.000    16.715
ATOM     14  N   UNL     1      10.820 -12.694   1.757 -0.45 +0.00    +0.000    16.715
ATOM     15  O   UNL     1       9.482 -12.527   1.886 -0.49 +0.00    +0.000    16.715
ATOM     16  H   UNL     1      11.248 -13.504   2.118 -0.65 +0.00    +0.000    16.715
ATOM     17  C   UNL     1      19.648 -10.292   1.956 -0.54 -0.00    +0.000    16.715
ATOM     18  C   UNL     1      19.589 -11.134   3.233 -0.72 -0.00    +0.000    16.715
ATOM     19  O   UNL     1      20.063 -12.426   2.973 -1.64 -0.00    +0.000    16.715
ATOM     20  H   UNL     1      21.007 -12.386   2.754 -0.36 -0.00    +0.000    16.715
ATOM     21  C   UNL     1      21.425 -10.071   0.255 -0.62 -0.00    +0.000    16.715
ATOM     22  C   UNL     1      21.705 -10.520  -1.183 -0.55 -0.00    +0.000    16.715
ATOM     23  C   UNL     1      21.008  -9.628  -2.169 -0.51 -0.00    +0.000    16.715
ATOM     24  C   UNL     1      21.016  -8.237  -2.169 -0.42 -0.00    +0.000    16.715
ATOM     25  N   UNL     1      20.400  -7.760  -3.274 -0.30 -0.00    +0.000    16.715
ATOM     26  C   UNL     1      20.016  -8.838  -3.979 -0.27 -0.00    +0.000    16.715
ATOM     27  C   UNL     1      20.372  -9.998  -3.339 -0.41 -0.00    +0.000    16.715
ATOM     28  C   UNL     1      20.111 -11.252  -3.894 -0.42 -0.00    +0.000    16.715
ATOM     29  C   UNL     1      19.462 -11.296  -5.141 -0.42 -0.00    +0.000    16.715
ATOM     30  C   UNL     1      19.095 -10.102  -5.799 -0.25 -0.00    +0.000    16.715
ATOM     31  C   UNL     1      19.375  -8.852  -5.218 -0.17 -0.00    +0.000    16.715
ATOM     32  H   UNL     1      20.260  -6.816  -3.514 -0.02 -0.00    +0.000    16.715
TER
ENDMDL
MODEL       58
USER    Run = 58
USER    Cluster Rank = 5
USER    Number of conformations in this cluster = 2
USER  
USER    RMSD from reference structure       = 17.763 A
USER  
USER    Estimated Free Energy of Binding    =  -10.64 kcal/mol  [=(1)+(2)+(3)-(4)]
USER    Estimated Inhibition Constant, Ki   =   15.80 nM (nanomolar)  [Temperature = 298.15 K]
USER    
USER    (1) Final Intermolecular Energy     =  -13.63 kcal/mol
USER        vdW + Hbond + desolv Energy     =  -13.63 kcal/mol
USER        Electrostatic Energy            =   +0.00 kcal/mol
USER    (2) Final Total Internal Energy     =   -1.61 kcal/mol
USER    (3) Torsional Free Energy           =   +2.98 kcal/mol
USER    (4) Unbound System's Energy  [=(2)] =   -1.61 kcal/mol
USER    
USER    
USER  
USER    DPF = ligand_dock.biased.dpf
USER    NEWDPF move	ligand.pdbqt
USER    NEWDPF about	0.288000 0.007000 -0.056000
USER    NEWDPF tran0	20.829214 -10.818568 0.696102
USER    NEWDPF axisangle0	0.457088 -0.198407 -0.867009 -50.806715
USER    NEWDPF quaternion0	0.196085 -0.085114 -0.371937 -0.903310
USER    NEWDPF dihe0	-139.71 179.36 -108.34 27.96 -167.16 -179.98 180.00 -154.81 172.81 116.91 
USER  
USER                              x       y       z    vdW   Elec        q     RMS 
ATOM      1  N   UNL     1      19.713 -10.099   0.559 -0.47 -0.00    +0.000    17.763
ATOM      2  H   UNL     1      19.365  -9.147   0.449 +0.17 -0.00    +0.000    17.763
ATOM      3  C   UNL     1      21.108 -10.024   0.052 -0.69 -0.00    +0.000    17.763
ATOM      4  C   UNL     1      21.378  -9.399  -4.238 -0.36 -0.00    +0.000    17.763
ATOM      5  C   UNL     1      21.436 -10.693  -3.698 -0.44 -0.00    +0.000    17.763
ATOM      6  C   UNL     1      21.346 -10.894  -2.319 -0.29 -0.00    +0.000    17.763
ATOM      7  C   UNL     1      21.225  -9.803  -1.444 -0.56 -0.00    +0.000    17.763
ATOM      8  C   UNL     1      21.153  -8.508  -1.982 -0.45 -0.00    +0.000    17.763
ATOM      9  C   UNL     1      21.242  -8.304  -3.362 -0.36 -0.00    +0.000    17.763
ATOM     10  C   UNL     1      21.794 -10.237  -6.548 -0.35 -0.00    +0.000    17.763
ATOM     11  C   UNL     1      21.489  -9.237  -5.709 -0.29 -0.00    +0.000    17.763
ATOM     12  O   UNL     1      22.213  -8.904  -8.476 -0.10 -0.00    +0.000    17.763
ATOM     13  C   UNL     1      21.905 -10.033  -8.006 -0.24 -0.00    +0.000    17.763
ATOM     14  N   UNL     1      21.660 -11.125  -8.895 -0.26 -0.00    +0.000    17.763
ATOM     15  O   UNL     1      21.757 -10.954 -10.235 -0.21 -0.00    +0.000    17.763
ATOM     16  H   UNL     1      21.419 -12.008  -8.531 -0.49 -0.00    +0.000    17.763
ATOM     17  C   UNL     1      19.589 -10.368   2.011 -0.58 -0.00    +0.000    17.763
ATOM     18  C   UNL     1      20.649 -11.361   2.493 -0.64 -0.00    +0.000    17.763
ATOM     19  O   UNL     1      20.032 -12.433   3.152 -1.55 -0.00    +0.000    17.763
ATOM     20  H   UNL     1      20.638 -13.189   3.176 -0.61 -0.00    +0.000    17.763
ATOM     21  C   UNL     1      18.829 -10.957  -0.264 -0.49 -0.00    +0.000    17.763
ATOM     22  C   UNL     1      18.317 -12.145   0.557 -0.56 -0.00    +0.000    17.763
ATOM     23  C   UNL     1      16.819 -12.121   0.659 -0.44 +0.00    +0.000    17.763
ATOM     24  C   UNL     1      15.929 -12.855  -0.118 -0.50 +0.00    +0.000    17.763
ATOM     25  N   UNL     1      14.664 -12.694   0.331 -0.49 +0.00    +0.000    17.763
ATOM     26  C   UNL     1      14.749 -11.877   1.396 -0.43 +0.00    +0.000    17.763
ATOM     27  C   UNL     1      16.049 -11.508   1.630 -0.39 +0.00    +0.000    17.763
ATOM     28  C   UNL     1      16.397 -10.687   2.705 -0.42 +0.00    +0.000    17.763
ATOM     29  C   UNL     1      15.365 -10.241   3.550 -0.42 +0.00    +0.000    17.763
ATOM     30  C   UNL     1      14.027 -10.621   3.308 -0.31 +0.00    +0.000    17.763
ATOM     31  C   UNL     1      13.707 -11.452   2.220 -0.37 +0.00    +0.000    17.763
ATOM     32  H   UNL     1      13.846 -13.093  -0.044 -0.04 +0.00    +0.000    17.763
TER
ENDMDL
MODEL       34
USER    Run = 34
USER    Cluster Rank = 6
USER    Number of conformations in this cluster = 5
USER  
USER    RMSD from reference structure       = 21.040 A
USER  
USER    Estimated Free Energy of Binding    =  -10.59 kcal/mol  [=(1)+(2)+(3)-(4)]
USER    Estimated Inhibition Constant, Ki   =   17.30 nM (nanomolar)  [Temperature = 298.15 K]
USER    
USER    (1) Final Intermolecular Energy     =  -13.57 kcal/mol
USER        vdW + Hbond + desolv Energy     =  -13.57 kcal/mol
USER        Electrostatic Energy            =   +0.00 kcal/mol
USER    (2) Final Total Internal Energy     =   -2.19 kcal/mol
USER    (3) Torsional Free Energy           =   +2.98 kcal/mol
USER    (4) Unbound System's Energy  [=(2)] =   -2.19 kcal/mol
USER    
USER    
USER  
USER    DPF = ligand_dock.biased.dpf
USER    NEWDPF move	ligand.pdbqt
USER    NEWDPF about	0.288000 0.007000 -0.056000
USER    NEWDPF tran0	21.347111 -8.850468 -6.888701
USER    NEWDPF axisangle0	0.064856 -0.990198 -0.123701 159.914921
USER    NEWDPF quaternion0	0.063862 -0.975027 -0.121806 0.174379
USER    NEWDPF dihe0	155.85 -52.59 75.76 -153.45 175.75 75.04 -173.93 -176.55 -170.69 137.38 
USER  
USER                              x       y       z    vdW   Elec        q     RMS 
ATOM      1  N   UNL     1      22.609  -9.037  -6.493 -0.24 -0.00    +0.000    21.040
ATOM      2  H   UNL     1      23.318  -8.698  -5.843 -0.02 -0.00    +0.000    21.040
ATOM      3  C   UNL     1      21.327  -8.648  -5.848 -0.23 -0.00    +0.000    21.040
ATOM      4  C   UNL     1      21.081  -9.729  -1.649 -0.55 -0.00    +0.000    21.040
ATOM      5  C   UNL     1      20.876 -10.692  -2.649 -0.42 -0.00    +0.000    21.040
ATOM      6  C   UNL     1      20.958 -10.345  -4.000 -0.43 -0.00    +0.000    21.040
ATOM      7  C   UNL     1      21.219  -9.020  -4.382 -0.32 -0.00    +0.000    21.040
ATOM      8  C   UNL     1      21.437  -8.056  -3.384 -0.34 -0.00    +0.000    21.040
ATOM      9  C   UNL     1      21.356  -8.401  -2.031 -0.44 -0.00    +0.000    21.040
ATOM     10  C   UNL     1      20.249 -11.196   0.187 -0.63 -0.00    +0.000    21.040
ATOM     11  C   UNL     1      20.971 -10.146  -0.229 -0.69 -0.00    +0.000    21.040
ATOM     12  O   UNL     1      19.902 -12.761   1.948 -1.60 -0.00    +0.000    21.040
ATOM     13  C   UNL     1      20.158 -11.573   1.611 -0.76 -0.00    +0.000    21.040
ATOM     14  N   UNL     1      20.358 -10.581   2.621 -0.65 -0.00    +0.000    21.040
ATOM     15  O   UNL     1      20.277 -10.910   3.932 -1.16 -0.00    +0.000    21.040
ATOM     16  H   UNL     1      20.557  -9.652   2.361 -0.53 -0.00    +0.000    21.040
ATOM     17  C   UNL     1      22.910  -8.334  -7.761 -0.15 -0.00    +0.000    21.040
ATOM     18  C   UNL     1      24.413  -8.103  -7.935 -0.16 -0.00    +0.000    21.040
ATOM     19  O   UNL     1      25.110  -8.669  -6.860 -0.30 -0.00    +0.000    21.040
ATOM     20  H   UNL     1      25.415  -9.556  -7.105 -0.03 -0.00    +0.000    21.040
ATOM     21  C   UNL     1      22.803 -10.503  -6.585 -0.33 -0.00    +0.000    21.040
ATOM     22  C   UNL     1      22.357 -11.018  -7.958 -0.34 -0.00    +0.000    21.040
ATOM     23  C   UNL     1      23.462 -11.780  -8.630 -0.36 -0.00    +0.000    21.040
ATOM     24  C   UNL     1      24.770 -11.907  -8.174 -0.41 -0.00    +0.000    21.040
ATOM     25  N   UNL     1      25.460 -12.771  -8.951 -0.38 -0.00    +0.000    21.040
ATOM     26  C   UNL     1      24.595 -13.204  -9.885 -0.35 -0.00    +0.000    21.040
ATOM     27  C   UNL     1      23.363 -12.625  -9.720 -0.33 -0.00    +0.000    21.040
ATOM     28  C   UNL     1      22.286 -12.942 -10.550 -0.06 -0.00    +0.000    21.040
ATOM     29  C   UNL     1      22.501 -13.882 -11.574 -0.29 +0.00    +0.000    21.040
ATOM     30  C   UNL     1      23.770 -14.478 -11.744 -0.27 +0.00    +0.000    21.040
ATOM     31  C   UNL     1      24.835 -14.141 -10.890 -0.32 -0.00    +0.000    21.040
ATOM     32  H   UNL     1      26.405 -13.032  -8.854 -0.50 -0.00    +0.000    21.040
TER
ENDMDL
MODEL       20
USER    Run = 20
USER    Cluster Rank = 7
USER    Number of conformations in this cluster = 3
USER  
USER    RMSD from reference structure       = 20.801 A
USER  
USER    Estimated Free Energy of Binding    =  -10.43 kcal/mol  [=(1)+(2)+(3)-(4)]
USER    Estimated Inhibition Constant, Ki   =   22.78 nM (nanomolar)  [Temperature = 298.15 K]
USER    
USER    (1) Final Intermolecular Energy     =  -13.41 kcal/mol
USER        vdW + Hbond + desolv Energy     =  -13.41 kcal/mol
USER        Electrostatic Energy            =   +0.00 kcal/mol
USER    (2) Final Total Internal Energy     =   -2.12 kcal/mol
USER    (3) Torsional Free Energy           =   +2.98 kcal/mol
USER    (4) Unbound System's Energy  [=(2)] =   -2.12 kcal/mol
USER    
USER    
USER  
USER    DPF = ligand_dock.biased.dpf
USER    NEWDPF move	ligand.pdbqt
USER    NEWDPF about	0.288000 0.007000 -0.056000
USER    NEWDPF tran0	20.205566 -9.559554 -5.042771
USER    NEWDPF axisangle0	0.650866 0.576740 -0.493705 103.623053
USER    NEWDPF quaternion0	0.511569 0.453307 -0.388043 0.618250
USER    NEWDPF dihe0	8.83 -7.25 6.66 -155.72 -63.24 -179.08 -96.00 -179.39 -179.93 -175.46 
USER  
USER                              x       y       z    vdW   Elec        q     RMS 
ATOM      1  N   UNL     1      19.835 -10.839  -4.955 -0.38 -0.00    +0.000    20.801
ATOM      2  H   UNL     1      19.827 -11.722  -5.466 -0.11 -0.00    +0.000    20.801
ATOM      3  C   UNL     1      20.955 -10.085  -5.577 -0.36 -0.00    +0.000    20.801
ATOM      4  C   UNL     1      23.031 -12.288  -8.692 -0.35 -0.00    +0.000    20.801
ATOM      5  C   UNL     1      23.418 -12.412  -7.349 -0.39 -0.00    +0.000    20.801
ATOM      6  C   UNL     1      22.748 -11.705  -6.347 -0.40 -0.00    +0.000    20.801
ATOM      7  C   UNL     1      21.694 -10.837  -6.668 -0.34 -0.00    +0.000    20.801
ATOM      8  C   UNL     1      21.295 -10.721  -8.010 -0.23 -0.00    +0.000    20.801
ATOM      9  C   UNL     1      21.963 -11.428  -9.014 -0.21 -0.00    +0.000    20.801
ATOM     10  C   UNL     1      23.391 -14.242 -10.198 -0.47 +0.00    +0.000    20.801
ATOM     11  C   UNL     1      23.781 -13.052  -9.720 -0.41 -0.00    +0.000    20.801
ATOM     12  O   UNL     1      23.619 -15.836 -11.952 -0.81 +0.00    +0.000    20.801
ATOM     13  C   UNL     1      24.171 -14.975 -11.214 -0.39 +0.00    +0.000    20.801
ATOM     14  N   UNL     1      25.568 -14.709 -11.363 -0.31 -0.00    +0.000    20.801
ATOM     15  O   UNL     1      26.298 -15.373 -12.290 -0.31 -0.00    +0.000    20.801
ATOM     16  H   UNL     1      26.003 -14.038 -10.788 -0.57 -0.00    +0.000    20.801
ATOM     17  C   UNL     1      18.489 -10.268  -5.190 -0.30 -0.00    +0.000    20.801
ATOM     18  C   UNL     1      17.981 -10.582  -6.600 -0.31 -0.00    +0.000    20.801
ATOM     19  O   UNL     1      18.169 -11.941  -6.882 -0.40 -0.00    +0.000    20.801
ATOM     20  H   UNL     1      19.089 -12.186  -6.696 -0.21 -0.00    +0.000    20.801
ATOM     21  C   UNL     1      20.075 -11.188  -3.535 -0.43 -0.00    +0.000    20.801
ATOM     22  C   UNL     1      19.491 -10.113  -2.612 -0.40 -0.00    +0.000    20.801
ATOM     23  C   UNL     1      20.168 -10.130  -1.272 -0.48 -0.00    +0.000    20.801
ATOM     24  C   UNL     1      21.183  -9.277  -0.852 -0.56 -0.00    +0.000    20.801
ATOM     25  N   UNL     1      21.465  -9.485   0.454 -0.51 -0.00    +0.000    20.801
ATOM     26  C   UNL     1      20.625 -10.451   0.866 -0.59 -0.00    +0.000    20.801
ATOM     27  C   UNL     1      19.815 -10.869  -0.158 -0.52 -0.00    +0.000    20.801
ATOM     28  C   UNL     1      18.835 -11.844   0.032 -0.48 -0.00    +0.000    20.801
ATOM     29  C   UNL     1      18.699 -12.395   1.319 -0.50 -0.00    +0.000    20.801
ATOM     30  C   UNL     1      19.534 -11.965   2.374 -0.63 -0.00    +0.000    20.801
ATOM     31  C   UNL     1      20.511 -10.978   2.152 -0.61 -0.00    +0.000    20.801
ATOM     32  H   UNL     1      22.145  -9.023   0.995 -0.42 -0.00    +0.000    20.801
TER
ENDMDL
MODEL       79
USER    Run = 79
USER    Cluster Rank = 8
USER    Number of conformations in this cluster = 2
USER  
USER    RMSD from reference structure       = 14.273 A
USER  
USER    Estimated Free Energy of Binding    =  -10.20 kcal/mol  [=(1)+(2)+(3)-(4)]
USER    Estimated Inhibition Constant, Ki   =   33.47 nM (nanomolar)  [Temperature = 298.15 K]
USER    
USER    (1) Final Intermolecular Energy     =  -13.18 kcal/mol
USER        vdW + Hbond + desolv Energy     =  -13.18 kcal/mol
USER        Electrostatic Energy            =   +0.00 kcal/mol
USER    (2) Final Total Internal Energy     =   -1.64 kcal/mol
USER    (3) Torsional Free Energy           =   +2.98 kcal/mol
USER    (4) Unbound System's Energy  [=(2)] =   -1.64 kcal/mol
USER    
USER    
USER  
USER    DPF = ligand_dock.biased.dpf
USER    NEWDPF move	ligand.pdbqt
USER    NEWDPF about	0.288000 0.007000 -0.056000
USER    NEWDPF tran0	17.789952 -11.963772 1.337070
USER    NEWDPF axisangle0	-0.641270 0.466722 -0.609052 -114.150709
USER    NEWDPF quaternion0	-0.538273 0.391760 -0.511230 -0.543536
USER    NEWDPF dihe0	-163.01 31.04 -160.47 -116.70 179.75 91.25 -169.01 -51.51 -153.92 130.75 
USER  
USER                              x       y       z    vdW   Elec        q     RMS 
ATOM      1  N   UNL     1      17.529 -10.662   1.476 -0.40 -0.00    +0.000    14.273
ATOM      2  H   UNL     1      17.152  -9.849   0.988 -0.02 -0.00    +0.000    14.273
ATOM      3  C   UNL     1      16.905 -11.813   0.773 -0.48 +0.00    +0.000    14.273
ATOM      4  C   UNL     1      12.568 -11.643   0.628 -0.38 +0.00    +0.000    14.273
ATOM      5  C   UNL     1      13.240 -11.712   1.857 -0.33 +0.00    +0.000    14.273
ATOM      6  C   UNL     1      14.636 -11.763   1.904 -0.43 +0.00    +0.000    14.273
ATOM      7  C   UNL     1      15.390 -11.777   0.721 -0.40 +0.00    +0.000    14.273
ATOM      8  C   UNL     1      14.721 -11.695  -0.511 -0.37 +0.00    +0.000    14.273
ATOM      9  C   UNL     1      13.324 -11.643  -0.561 -0.32 +0.00    +0.000    14.273
ATOM     10  C   UNL     1      10.329 -12.020   1.657 -0.37 +0.00    +0.000    14.273
ATOM     11  C   UNL     1      11.084 -11.601   0.631 -0.39 +0.00    +0.000    14.273
ATOM     12  O   UNL     1       8.211 -11.266   2.443 -0.34 +0.00    +0.000    14.273
ATOM     13  C   UNL     1       8.854 -11.971   1.617 -0.40 +0.00    +0.000    14.273
ATOM     14  N   UNL     1       8.145 -12.731   0.636 -0.32 -0.00    +0.000    14.273
ATOM     15  O   UNL     1       6.793 -12.697   0.587 -0.36 -0.00    +0.000    14.273
ATOM     16  H   UNL     1       8.644 -13.283  -0.010 -0.49 -0.00    +0.000    14.273
ATOM     17  C   UNL     1      18.995 -10.544   1.305 -0.54 -0.00    +0.000    14.273
ATOM     18  C   UNL     1      19.754 -11.310   2.392 -0.73 -0.00    +0.000    14.273
ATOM     19  O   UNL     1      19.906 -12.650   2.011 -1.66 -0.00    +0.000    14.273
ATOM     20  H   UNL     1      20.808 -12.942   2.212 -0.60 -0.00    +0.000    14.273
ATOM     21  C   UNL     1      17.099 -10.528   2.888 -0.50 +0.00    +0.000    14.273
ATOM     22  C   UNL     1      16.868  -9.055   3.241 -0.20 +0.00    +0.000    14.273
ATOM     23  C   UNL     1      15.531  -8.865   3.898 -0.31 +0.00    +0.000    14.273
ATOM     24  C   UNL     1      14.681  -9.873   4.341 -0.40 +0.00    +0.000    14.273
ATOM     25  N   UNL     1      13.627  -9.346   5.003 -0.42 +0.00    +0.000    14.273
ATOM     26  C   UNL     1      13.812  -8.014   4.996 -0.36 +0.00    +0.000    14.273
ATOM     27  C   UNL     1      14.966  -7.681   4.334 -0.36 +0.00    +0.000    14.273
ATOM     28  C   UNL     1      15.392  -6.356   4.223 -0.31 +0.00    +0.000    14.273
ATOM     29  C   UNL     1      14.595  -5.359   4.814 -0.37 +0.00    +0.000    14.273
ATOM     30  C   UNL     1      13.407  -5.702   5.495 -0.32 +0.00    +0.000    14.273
ATOM     31  C   UNL     1      13.005  -7.046   5.594 -0.26 +0.00    +0.000    14.273
ATOM     32  H   UNL     1      12.876  -9.836   5.409 -0.03 +0.00    +0.000    14.273
TER
ENDMDL
MODEL       91
USER    Run = 91
USER    Cluster Rank = 9
USER    Number of conformations in this cluster = 3
USER  
USER    RMSD from reference structure       = 19.599 A
USER  
USER    Estimated Free Energy of Binding    =  -10.07 kcal/mol  [=(1)+(2)+(3)-(4)]
USER    Estimated Inhibition Constant, Ki   =   41.25 nM (nanomolar)  [Temperature = 298.15 K]
USER    
USER    (1) Final Intermolecular Energy     =  -13.06 kcal/mol
USER        vdW + Hbond + desolv Energy     =  -13.06 kcal/mol
USER        Electrostatic Energy            =   +0.00 kcal/mol
USER    (2) Final Total Internal Energy     =   -2.37 kcal/mol
USER    (3) Torsional Free Energy           =   +2.98 kcal/mol
USER    (4) Unbound System's Energy  [=(2)] =   -2.37 kcal/mol
USER    
USER    
USER  
USER    DPF = ligand_dock.biased.dpf
USER    NEWDPF move	ligand.pdbqt
USER    NEWDPF about	0.288000 0.007000 -0.056000
USER    NEWDPF tran0	21.173857 -8.603546 -5.241950
USER    NEWDPF axisangle0	-0.817410 0.551292 0.167086 86.088262
USER    NEWDPF quaternion0	-0.557933 0.376291 0.114047 0.730828
USER    NEWDPF dihe0	129.22 -68.70 19.91 -85.22 -93.88 69.43 171.74 96.51 153.88 -56.57 
USER  
USER                              x       y       z    vdW   Elec        q     RMS 
ATOM      1  N   UNL     1      20.352  -7.949  -6.066 -0.11 -0.00    +0.000    19.599
ATOM      2  H   UNL     1      19.814  -7.088  -6.167 +0.00 -0.00    +0.000    19.599
ATOM      3  C   UNL     1      21.422  -7.583  -5.102 -0.23 -0.00    +0.000    19.599
ATOM      4  C   UNL     1      21.267  -9.810  -1.377 -0.56 -0.00    +0.000    19.599
ATOM      5  C   UNL     1      21.024  -8.428  -1.395 -0.43 -0.00    +0.000    19.599
ATOM      6  C   UNL     1      21.071  -7.712  -2.593 -0.40 -0.00    +0.000    19.599
ATOM      7  C   UNL     1      21.391  -8.357  -3.799 -0.33 -0.00    +0.000    19.599
ATOM      8  C   UNL     1      21.621  -9.742  -3.786 -0.35 -0.00    +0.000    19.599
ATOM      9  C   UNL     1      21.574 -10.461  -2.587 -0.40 -0.00    +0.000    19.599
ATOM     10  C   UNL     1      20.101 -10.658   0.657 -0.65 -0.00    +0.000    19.599
ATOM     11  C   UNL     1      21.215 -10.523  -0.076 -0.70 -0.00    +0.000    19.599
ATOM     12  O   UNL     1      19.932 -12.617   2.001 -1.68 -0.00    +0.000    19.599
ATOM     13  C   UNL     1      20.093 -11.366   1.952 -0.75 -0.00    +0.000    19.599
ATOM     14  N   UNL     1      20.268 -10.629   3.164 -0.70 -0.00    +0.000    19.599
ATOM     15  O   UNL     1      20.263 -11.264   4.360 -1.03 -0.00    +0.000    19.599
ATOM     16  H   UNL     1      20.394  -9.653   3.130 -0.58 -0.00    +0.000    19.599
ATOM     17  C   UNL     1      19.370  -8.937  -5.565 -0.18 -0.00    +0.000    19.599
ATOM     18  C   UNL     1      18.180  -8.255  -4.885 -0.17 -0.00    +0.000    19.599
ATOM     19  O   UNL     1      18.480  -6.910  -4.638 -0.17 -0.00    +0.000    19.599
ATOM     20  H   UNL     1      18.530  -6.430  -5.479 -0.00 -0.00    +0.000    19.599
ATOM     21  C   UNL     1      20.862  -8.276  -7.419 -0.10 -0.00    +0.000    19.599
ATOM     22  C   UNL     1      22.392  -8.359  -7.410 -0.15 -0.00    +0.000    19.599
ATOM     23  C   UNL     1      22.853  -9.774  -7.607 -0.22 -0.00    +0.000    19.599
ATOM     24  C   UNL     1      22.059 -10.915  -7.546 -0.30 -0.00    +0.000    19.599
ATOM     25  N   UNL     1      22.771 -12.007  -7.905 -0.39 -0.00    +0.000    19.599
ATOM     26  C   UNL     1      24.003 -11.564  -8.208 -0.39 -0.00    +0.000    19.599
ATOM     27  C   UNL     1      24.093 -10.205  -8.043 -0.27 -0.00    +0.000    19.599
ATOM     28  C   UNL     1      25.267  -9.507  -8.328 -0.23 -0.00    +0.000    19.599
ATOM     29  C   UNL     1      26.371 -10.242  -8.795 -0.30 -0.00    +0.000    19.599
ATOM     30  C   UNL     1      26.279 -11.641  -8.965 -0.27 -0.00    +0.000    19.599
ATOM     31  C   UNL     1      25.081 -12.317  -8.672 -0.38 -0.00    +0.000    19.599
ATOM     32  H   UNL     1      22.452 -12.938  -7.938 -0.63 -0.00    +0.000    19.599
TER
ENDMDL
MODEL       29
USER    Run = 29
USER    Cluster Rank = 10
USER    Number of conformations in this cluster = 1
USER  
USER    RMSD from reference structure       = 20.643 A
USER  
USER    Estimated Free Energy of Binding    =   -9.97 kcal/mol  [=(1)+(2)+(3)-(4)]
USER    Estimated Inhibition Constant, Ki   =   49.54 nM (nanomolar)  [Temperature = 298.15 K]
USER    
USER    (1) Final Intermolecular Energy     =  -12.95 kcal/mol
USER        vdW + Hbond + desolv Energy     =  -12.95 kcal/mol
USER        Electrostatic Energy            =   +0.00 kcal/mol
USER    (2) Final Total Internal Energy     =   -2.48 kcal/mol
USER    (3) Torsional Free Energy           =   +2.98 kcal/mol
USER    (4) Unbound System's Energy  [=(2)] =   -2.48 kcal/mol
USER    
USER    
USER  
USER    DPF = ligand_dock.biased.dpf
USER    NEWDPF move	ligand.pdbqt
USER    NEWDPF about	0.288000 0.007000 -0.056000
USER    NEWDPF tran0	21.875124 -8.863928 -6.134483
USER    NEWDPF axisangle0	-0.768841 -0.376442 -0.516889 116.389194
USER    NEWDPF quaternion0	-0.653394 -0.319917 -0.439275 0.527036
USER    NEWDPF dihe0	-165.78 -102.60 49.62 40.10 44.32 36.47 -50.18 -62.55 171.07 -126.18 
USER  
USER                              x       y       z    vdW   Elec        q     RMS 
ATOM      1  N   UNL     1      21.358  -9.937  -6.738 -0.24 -0.00    +0.000    20.643
ATOM      2  H   UNL     1      20.717 -10.718  -6.602 -0.03 -0.00    +0.000    20.643
ATOM      3  C   UNL     1      20.885  -8.922  -5.760 -0.23 -0.00    +0.000    20.643
ATOM      4  C   UNL     1      20.190 -10.519  -1.781 -0.46 -0.00    +0.000    20.643
ATOM      5  C   UNL     1      19.130 -10.374  -2.689 -0.34 -0.00    +0.000    20.643
ATOM      6  C   UNL     1      19.354  -9.863  -3.970 -0.29 -0.00    +0.000    20.643
ATOM      7  C   UNL     1      20.640  -9.458  -4.363 -0.32 -0.00    +0.000    20.643
ATOM      8  C   UNL     1      21.705  -9.615  -3.461 -0.31 -0.00    +0.000    20.643
ATOM      9  C   UNL     1      21.483 -10.127  -2.179 -0.44 -0.00    +0.000    20.643
ATOM     10  C   UNL     1      20.668 -10.831   0.646 -0.71 -0.00    +0.000    20.643
ATOM     11  C   UNL     1      19.898 -11.056  -0.428 -0.54 -0.00    +0.000    20.643
ATOM     12  O   UNL     1      19.887 -12.561   2.083 -1.71 -0.00    +0.000    20.643
ATOM     13  C   UNL     1      20.349 -11.392   1.973 -0.77 -0.00    +0.000    20.643
ATOM     14  N   UNL     1      20.562 -10.604   3.146 -0.66 -0.00    +0.000    20.643
ATOM     15  O   UNL     1      20.274 -11.104   4.371 -0.98 -0.00    +0.000    20.643
ATOM     16  H   UNL     1      20.922  -9.691   3.063 -0.60 -0.00    +0.000    20.643
ATOM     17  C   UNL     1      22.695 -10.506  -6.453 -0.32 -0.00    +0.000    20.643
ATOM     18  C   UNL     1      22.631 -12.023  -6.256 -0.49 -0.00    +0.000    20.643
ATOM     19  O   UNL     1      21.589 -12.347  -5.379 -0.80 -0.00    +0.000    20.643
ATOM     20  H   UNL     1      21.078 -13.086  -5.742 -0.66 -0.00    +0.000    20.643
ATOM     21  C   UNL     1      21.199  -9.515  -8.150 -0.18 -0.00    +0.000    20.643
ATOM     22  C   UNL     1      20.982 -10.734  -9.053 -0.16 -0.00    +0.000    20.643
ATOM     23  C   UNL     1      22.165 -10.955  -9.949 -0.18 -0.00    +0.000    20.643
ATOM     24  C   UNL     1      22.844  -9.979 -10.672 -0.07 -0.00    +0.000    20.643
ATOM     25  N   UNL     1      23.940 -10.505 -11.264 -0.07 -0.00    +0.000    20.643
ATOM     26  C   UNL     1      23.968 -11.802 -10.909 -0.15 -0.00    +0.000    20.643
ATOM     27  C   UNL     1      22.903 -12.114 -10.103 -0.25 -0.00    +0.000    20.643
ATOM     28  C   UNL     1      22.732 -13.396  -9.576 -0.23 -0.00    +0.000    20.643
ATOM     29  C   UNL     1      23.693 -14.371  -9.900 -0.22 +0.00    +0.000    20.643
ATOM     30  C   UNL     1      24.789 -14.050 -10.730 -0.33 -0.00    +0.000    20.643
ATOM     31  C   UNL     1      24.936 -12.748 -11.243 -0.19 -0.00    +0.000    20.643
ATOM     32  H   UNL     1      24.586 -10.036 -11.839 +0.00 -0.00    +0.000    20.643
TER
ENDMDL
MODEL        1
USER    Run = 1
USER    Cluster Rank = 11
USER    Number of conformations in this cluster = 1
USER  
USER    RMSD from reference structure       = 17.218 A
USER  
USER    Estimated Free Energy of Binding    =   -9.92 kcal/mol  [=(1)+(2)+(3)-(4)]
USER    Estimated Inhibition Constant, Ki   =   53.10 nM (nanomolar)  [Temperature = 298.15 K]
USER    
USER    (1) Final Intermolecular Energy     =  -12.91 kcal/mol
USER        vdW + Hbond + desolv Energy     =  -12.91 kcal/mol
USER        Electrostatic Energy            =   +0.00 kcal/mol
USER    (2) Final Total Internal Energy     =   -2.21 kcal/mol
USER    (3) Torsional Free Energy           =   +2.98 kcal/mol
USER    (4) Unbound System's Energy  [=(2)] =   -2.21 kcal/mol
USER    
USER    
USER  
USER    DPF = ligand_dock.biased.dpf
USER    NEWDPF move	ligand.pdbqt
USER    NEWDPF about	0.288000 0.007000 -0.056000
USER    NEWDPF tran0	18.956121 -11.251517 0.177198
USER    NEWDPF axisangle0	-0.446029 -0.820232 0.358159 97.128458
USER    NEWDPF quaternion0	-0.334387 -0.614926 0.268511 0.661780
USER    NEWDPF dihe0	-47.43 -17.74 -3.59 -147.72 43.23 6.88 -69.56 85.53 175.34 -28.90 
USER  
USER                              x       y       z    vdW   Elec        q     RMS 
ATOM      1  N   UNL     1      18.594 -11.518   1.434 -0.50 -0.00    +0.000    17.218
ATOM      2  H   UNL     1      18.596 -11.138   2.381 -0.01 -0.00    +0.000    17.218
ATOM      3  C   UNL     1      18.672 -10.310   0.572 -0.10 -0.00    +0.000    17.218
ATOM      4  C   UNL     1      20.994 -10.894  -3.051 -0.37 -0.00    +0.000    17.218
ATOM      5  C   UNL     1      21.599 -10.400  -1.886 -0.40 -0.00    +0.000    17.218
ATOM      6  C   UNL     1      20.853 -10.215  -0.719 -0.59 -0.00    +0.000    17.218
ATOM      7  C   UNL     1      19.477 -10.493  -0.700 -0.42 -0.00    +0.000    17.218
ATOM      8  C   UNL     1      18.871 -10.999  -1.861 -0.35 -0.00    +0.000    17.218
ATOM      9  C   UNL     1      19.616 -11.186  -3.029 -0.33 -0.00    +0.000    17.218
ATOM     10  C   UNL     1      21.332 -11.097  -5.513 -0.51 -0.00    +0.000    17.218
ATOM     11  C   UNL     1      21.828 -11.063  -4.268 -0.41 -0.00    +0.000    17.218
ATOM     12  O   UNL     1      21.883 -10.759  -7.805 -0.31 -0.00    +0.000    17.218
ATOM     13  C   UNL     1      22.194 -11.277  -6.697 -0.43 -0.00    +0.000    17.218
ATOM     14  N   UNL     1      23.393 -12.047  -6.591 -0.52 -0.00    +0.000    17.218
ATOM     15  O   UNL     1      24.195 -12.222  -7.668 -0.93 -0.00    +0.000    17.218
ATOM     16  H   UNL     1      23.639 -12.454  -5.728 -0.07 +0.00    +0.000    17.218
ATOM     17  C   UNL     1      19.785 -12.396   1.391 -0.67 -0.00    +0.000    17.218
ATOM     18  C   UNL     1      21.013 -11.713   1.999 -0.52 -0.00    +0.000    17.218
ATOM     19  O   UNL     1      20.629 -10.937   3.100 -1.32 -0.00    +0.000    17.218
ATOM     20  H   UNL     1      20.684  -9.998   2.868 -0.49 -0.00    +0.000    17.218
ATOM     21  C   UNL     1      17.321 -12.263   1.293 -0.42 +0.00    +0.000    17.218
ATOM     22  C   UNL     1      16.384 -11.546   0.315 -0.43 +0.00    +0.000    17.218
ATOM     23  C   UNL     1      15.012 -11.389   0.904 -0.35 +0.00    +0.000    17.218
ATOM     24  C   UNL     1      14.061 -12.393   1.054 -0.27 +0.00    +0.000    17.218
ATOM     25  N   UNL     1      12.992 -11.933   1.743 -0.41 +0.00    +0.000    17.218
ATOM     26  C   UNL     1      13.267 -10.652   2.043 -0.29 +0.00    +0.000    17.218
ATOM     27  C   UNL     1      14.493 -10.283   1.552 -0.26 +0.00    +0.000    17.218
ATOM     28  C   UNL     1      15.015  -9.006   1.765 -0.26 +0.00    +0.000    17.218
ATOM     29  C   UNL     1      14.240  -8.096   2.505 -0.23 +0.00    +0.000    17.218
ATOM     30  C   UNL     1      12.977  -8.475   3.011 -0.16 +0.00    +0.000    17.218
ATOM     31  C   UNL     1      12.478  -9.770   2.782 -0.15 +0.00    +0.000    17.218
ATOM     32  H   UNL     1      12.178 -12.434   1.977 -0.41 +0.00    +0.000    17.218
TER
ENDMDL
MODEL       50
USER    Run = 50
USER    Cluster Rank = 12
USER    Number of conformations in this cluster = 2
USER  
USER    RMSD from reference structure       = 14.625 A
USER  
USER    Estimated Free Energy of Binding    =   -9.78 kcal/mol  [=(1)+(2)+(3)-(4)]
USER    Estimated Inhibition Constant, Ki   =   67.24 nM (nanomolar)  [Temperature = 298.15 K]
USER    
USER    (1) Final Intermolecular Energy     =  -12.77 kcal/mol
USER        vdW + Hbond + desolv Energy     =  -12.77 kcal/mol
USER        Electrostatic Energy            =   +0.00 kcal/mol
USER    (2) Final Total Internal Energy     =   -2.14 kcal/mol
USER    (3) Torsional Free Energy           =   +2.98 kcal/mol
USER    (4) Unbound System's Energy  [=(2)] =   -2.14 kcal/mol
USER    
USER    
USER  
USER    DPF = ligand_dock.biased.dpf
USER    NEWDPF move	ligand.pdbqt
USER    NEWDPF about	0.288000 0.007000 -0.056000
USER    NEWDPF tran0	13.895353 -9.743575 3.022352
USER    NEWDPF axisangle0	0.177667 -0.761547 0.623281 -121.738199
USER    NEWDPF quaternion0	0.155194 -0.665219 0.544442 -0.486807
USER    NEWDPF dihe0	176.50 -15.42 45.99 10.82 159.14 147.36 -177.52 -65.47 157.70 -18.78 
USER  
USER                              x       y       z    vdW   Elec        q     RMS 
ATOM      1  N   UNL     1      14.741 -10.275   2.136 -0.29 +0.00    +0.000    14.625
ATOM      2  H   UNL     1      15.054 -10.208   1.167 +0.00 +0.00    +0.000    14.625
ATOM      3  C   UNL     1      14.191  -8.923   2.420 -0.27 +0.00    +0.000    14.625
ATOM      4  C   UNL     1      11.204  -8.871   5.572 -0.19 +0.00    +0.000    14.625
ATOM      5  C   UNL     1      10.839  -8.644   4.236 -0.15 +0.00    +0.000    14.625
ATOM      6  C   UNL     1      11.799  -8.663   3.222 -0.14 +0.00    +0.000    14.625
ATOM      7  C   UNL     1      13.152  -8.883   3.524 -0.22 +0.00    +0.000    14.625
ATOM      8  C   UNL     1      13.519  -9.124   4.858 -0.37 +0.00    +0.000    14.625
ATOM      9  C   UNL     1      12.560  -9.105   5.875 -0.35 +0.00    +0.000    14.625
ATOM     10  C   UNL     1       9.166  -7.917   6.644 -0.39 +0.00    +0.000    14.625
ATOM     11  C   UNL     1      10.148  -8.829   6.614 -0.34 +0.00    +0.000    14.625
ATOM     12  O   UNL     1       8.253  -8.640   8.720 -0.71 +0.00    +0.000    14.625
ATOM     13  C   UNL     1       8.139  -7.902   7.704 -0.55 +0.00    +0.000    14.625
ATOM     14  N   UNL     1       7.002  -7.044   7.578 -0.46 +0.00    +0.000    14.625
ATOM     15  O   UNL     1       6.051  -7.019   8.542 -1.07 +0.00    +0.000    14.625
ATOM     16  H   UNL     1       6.910  -6.467   6.786 -0.01 +0.00    +0.000    14.625
ATOM     17  C   UNL     1      13.740 -11.367   2.121 -0.43 +0.00    +0.000    14.625
ATOM     18  C   UNL     1      13.632 -12.015   0.738 -0.46 +0.00    +0.000    14.625
ATOM     19  O   UNL     1      14.905 -12.128   0.165 -0.50 +0.00    +0.000    14.625
ATOM     20  H   UNL     1      15.122 -13.066   0.044 -0.04 +0.00    +0.000    14.625
ATOM     21  C   UNL     1      15.944 -10.604   2.936 -0.48 +0.00    +0.000    14.625
ATOM     22  C   UNL     1      16.820 -11.620   2.194 -0.32 +0.00    +0.000    14.625
ATOM     23  C   UNL     1      18.198 -11.071   1.963 -0.47 -0.00    +0.000    14.625
ATOM     24  C   UNL     1      19.139 -10.771   2.941 -0.57 -0.00    +0.000    14.625
ATOM     25  N   UNL     1      20.317 -10.425   2.375 -0.56 -0.00    +0.000    14.625
ATOM     26  C   UNL     1      20.132 -10.519   1.046 -0.58 -0.00    +0.000    14.625
ATOM     27  C   UNL     1      18.852 -10.914   0.755 -0.47 -0.00    +0.000    14.625
ATOM     28  C   UNL     1      18.427 -11.115  -0.560 -0.40 -0.00    +0.000    14.625
ATOM     29  C   UNL     1      19.359 -10.897  -1.591 -0.40 -0.00    +0.000    14.625
ATOM     30  C   UNL     1      20.677 -10.490  -1.290 -0.53 -0.00    +0.000    14.625
ATOM     31  C   UNL     1      21.077 -10.299   0.044 -0.62 -0.00    +0.000    14.625
ATOM     32  H   UNL     1      21.143 -10.158   2.839 -0.41 -0.00    +0.000    14.625
TER
ENDMDL
MODEL        7
USER    Run = 7
USER    Cluster Rank = 13
USER    Number of conformations in this cluster = 1
USER  
USER    RMSD from reference structure       = 17.626 A
USER  
USER    Estimated Free Energy of Binding    =   -9.74 kcal/mol  [=(1)+(2)+(3)-(4)]
USER    Estimated Inhibition Constant, Ki   =   72.05 nM (nanomolar)  [Temperature = 298.15 K]
USER    
USER    (1) Final Intermolecular Energy     =  -12.73 kcal/mol
USER        vdW + Hbond + desolv Energy     =  -12.73 kcal/mol
USER        Electrostatic Energy            =   +0.00 kcal/mol
USER    (2) Final Total Internal Energy     =   -1.64 kcal/mol
USER    (3) Torsional Free Energy           =   +2.98 kcal/mol
USER    (4) Unbound System's Energy  [=(2)] =   -1.64 kcal/mol
USER    
USER    
USER  
USER    DPF = ligand_dock.biased.dpf
USER    NEWDPF move	ligand.pdbqt
USER    NEWDPF about	0.288000 0.007000 -0.056000
USER    NEWDPF tran0	20.780252 -9.458502 -5.653450
USER    NEWDPF axisangle0	0.072355 0.969484 -0.234232 -145.472854
USER    NEWDPF quaternion0	0.069095 0.925809 -0.223680 -0.296768
USER    NEWDPF dihe0	-120.31 -179.99 168.60 179.87 -44.10 115.47 -55.68 66.56 -116.95 166.74 
USER  
USER                              x       y       z    vdW   Elec        q     RMS 
ATOM      1  N   UNL     1      21.760  -9.724  -4.786 -0.37 -0.00    +0.000    17.626
ATOM      2  H   UNL     1      22.457  -9.286  -4.185 -0.03 -0.00    +0.000    17.626
ATOM      3  C   UNL     1      20.723  -8.671  -4.946 -0.27 -0.00    +0.000    17.626
ATOM      4  C   UNL     1      20.889  -5.536  -1.945 -0.39 -0.00    +0.000    17.626
ATOM      5  C   UNL     1      21.399  -6.814  -1.673 -0.29 +0.00    +0.000    17.626
ATOM      6  C   UNL     1      21.348  -7.822  -2.639 -0.40 -0.00    +0.000    17.626
ATOM      7  C   UNL     1      20.760  -7.583  -3.891 -0.28 -0.00    +0.000    17.626
ATOM      8  C   UNL     1      20.260  -6.300  -4.171 -0.19 -0.00    +0.000    17.626
ATOM      9  C   UNL     1      20.310  -5.290  -3.206 -0.22 -0.00    +0.000    17.626
ATOM     10  C   UNL     1      21.687  -3.382  -0.976 -0.37 +0.00    +0.000    17.626
ATOM     11  C   UNL     1      20.956  -4.502  -0.882 -0.42 +0.00    +0.000    17.626
ATOM     12  O   UNL     1      22.453  -1.351   0.002 -0.33 -0.00    +0.000    17.626
ATOM     13  C   UNL     1      21.736  -2.383   0.110 -0.39 -0.00    +0.000    17.626
ATOM     14  N   UNL     1      20.964  -2.586   1.296 -0.52 +0.00    +0.000    17.626
ATOM     15  O   UNL     1      20.998  -1.679   2.300 -0.60 -0.00    +0.000    17.626
ATOM     16  H   UNL     1      20.403  -3.391   1.383 -0.05 +0.00    +0.000    17.626
ATOM     17  C   UNL     1      22.504 -10.063  -6.021 -0.29 -0.00    +0.000    17.626
ATOM     18  C   UNL     1      22.349 -11.543  -6.385 -0.47 -0.00    +0.000    17.626
ATOM     19  O   UNL     1      23.612 -12.134  -6.518 -1.01 -0.00    +0.000    17.626
ATOM     20  H   UNL     1      23.507 -13.073  -6.739 -0.10 -0.00    +0.000    17.626
ATOM     21  C   UNL     1      21.280 -10.920  -4.054 -0.51 -0.00    +0.000    17.626
ATOM     22  C   UNL     1      20.048 -10.575  -3.211 -0.47 -0.00    +0.000    17.626
ATOM     23  C   UNL     1      20.331 -10.759  -1.748 -0.40 -0.00    +0.000    17.626
ATOM     24  C   UNL     1      21.545 -10.533  -1.110 -0.53 -0.00    +0.000    17.626
ATOM     25  N   UNL     1      21.409 -10.668   0.229 -0.66 -0.00    +0.000    17.626
ATOM     26  C   UNL     1      20.115 -10.963   0.442 -0.58 -0.00    +0.000    17.626
ATOM     27  C   UNL     1      19.422 -11.023  -0.740 -0.44 -0.00    +0.000    17.626
ATOM     28  C   UNL     1      18.051 -11.281  -0.774 -0.38 -0.00    +0.000    17.626
ATOM     29  C   UNL     1      17.390 -11.481   0.451 -0.41 +0.00    +0.000    17.626
ATOM     30  C   UNL     1      18.103 -11.419   1.668 -0.46 -0.00    +0.000    17.626
ATOM     31  C   UNL     1      19.484 -11.154   1.672 -0.60 -0.00    +0.000    17.626
ATOM     32  H   UNL     1      22.114 -10.571   0.909 -0.29 -0.00    +0.000    17.626
TER
ENDMDL
MODEL       80
USER    Run = 80
USER    Cluster Rank = 14
USER    Number of conformations in this cluster = 1
USER  
USER    RMSD from reference structure       = 12.132 A
USER  
USER    Estimated Free Energy of Binding    =   -9.69 kcal/mol  [=(1)+(2)+(3)-(4)]
USER    Estimated Inhibition Constant, Ki   =   78.59 nM (nanomolar)  [Temperature = 298.15 K]
USER    
USER    (1) Final Intermolecular Energy     =  -12.68 kcal/mol
USER        vdW + Hbond + desolv Energy     =  -12.68 kcal/mol
USER        Electrostatic Energy            =   +0.00 kcal/mol
USER    (2) Final Total Internal Energy     =   -2.10 kcal/mol
USER    (3) Torsional Free Energy           =   +2.98 kcal/mol
USER    (4) Unbound System's Energy  [=(2)] =   -2.10 kcal/mol
USER    
USER    
USER  
USER    DPF = ligand_dock.biased.dpf
USER    NEWDPF move	ligand.pdbqt
USER    NEWDPF about	0.288000 0.007000 -0.056000
USER    NEWDPF tran0	11.393327 -6.799973 4.445557
USER    NEWDPF axisangle0	0.777242 -0.557347 -0.291992 -164.428820
USER    NEWDPF quaternion0	0.770077 -0.552210 -0.289300 -0.135466
USER    NEWDPF dihe0	-176.11 -92.43 75.83 83.18 49.56 1.83 -155.89 -23.05 56.04 34.33 
USER  
USER                              x       y       z    vdW   Elec        q     RMS 
ATOM      1  N   UNL     1      11.339  -5.485   4.668 -0.20 +0.00    +0.000    12.132
ATOM      2  H   UNL     1      11.028  -4.784   5.341 -0.01 +0.00    +0.000    12.132
ATOM      3  C   UNL     1      11.521  -6.707   5.494 -0.22 +0.00    +0.000    12.132
ATOM      4  C   UNL     1      14.464  -9.525   3.989 -0.36 +0.00    +0.000    12.132
ATOM      5  C   UNL     1      14.239  -9.393   5.368 -0.42 +0.00    +0.000    12.132
ATOM      6  C   UNL     1      13.290  -8.489   5.852 -0.42 +0.00    +0.000    12.132
ATOM      7  C   UNL     1      12.564  -7.674   4.969 -0.26 +0.00    +0.000    12.132
ATOM      8  C   UNL     1      12.778  -7.813   3.587 -0.15 +0.00    +0.000    12.132
ATOM      9  C   UNL     1      13.726  -8.718   3.101 -0.22 +0.00    +0.000    12.132
ATOM     10  C   UNL     1      16.190 -10.350   2.391 -0.43 +0.00    +0.000    12.132
ATOM     11  C   UNL     1      15.490 -10.492   3.526 -0.50 +0.00    +0.000    12.132
ATOM     12  O   UNL     1      16.846 -12.394   1.360 -0.93 +0.00    +0.000    12.132
ATOM     13  C   UNL     1      17.196 -11.340   1.959 -0.45 +0.00    +0.000    12.132
ATOM     14  N   UNL     1      18.581 -11.105   2.224 -0.51 -0.00    +0.000    12.132
ATOM     15  O   UNL     1      19.516 -12.004   1.835 -1.59 -0.00    +0.000    12.132
ATOM     16  H   UNL     1      18.857 -10.284   2.692 -0.04 -0.00    +0.000    12.132
ATOM     17  C   UNL     1      10.238  -5.555   3.680 -0.11 +0.00    +0.000    12.132
ATOM     18  C   UNL     1       9.567  -4.193   3.484 -0.20 +0.00    +0.000    12.132
ATOM     19  O   UNL     1       9.494  -3.518   4.709 -0.57 +0.00    +0.000    12.132
ATOM     20  H   UNL     1       9.930  -2.655   4.629 -0.62 +0.00    +0.000    12.132
ATOM     21  C   UNL     1      12.601  -4.967   4.090 -0.22 +0.00    +0.000    12.132
ATOM     22  C   UNL     1      12.987  -3.638   4.747 -0.35 +0.00    +0.000    12.132
ATOM     23  C   UNL     1      14.476  -3.536   4.918 -0.33 -0.00    +0.000    12.132
ATOM     24  C   UNL     1      15.231  -4.131   5.923 -0.45 +0.00    +0.000    12.132
ATOM     25  N   UNL     1      16.551  -3.944   5.696 -0.50 -0.00    +0.000    12.132
ATOM     26  C   UNL     1      16.636  -3.249   4.548 -0.43 -0.00    +0.000    12.132
ATOM     27  C   UNL     1      15.390  -2.985   4.040 -0.40 -0.00    +0.000    12.132
ATOM     28  C   UNL     1      15.219  -2.303   2.834 -0.32 -0.00    +0.000    12.132
ATOM     29  C   UNL     1      16.373  -1.889   2.145 -0.31 -0.00    +0.000    12.132
ATOM     30  C   UNL     1      17.656  -2.161   2.669 -0.42 -0.00    +0.000    12.132
ATOM     31  C   UNL     1      17.797  -2.853   3.885 -0.26 -0.00    +0.000    12.132
ATOM     32  H   UNL     1      17.299  -4.253   6.257 -0.47 -0.00    +0.000    12.132
TER
ENDMDL
MODEL       52
USER    Run = 52
USER    Cluster Rank = 15
USER    Number of conformations in this cluster = 1
USER  
USER    RMSD from reference structure       = 21.068 A
USER  
USER    Estimated Free Energy of Binding    =   -9.67 kcal/mol  [=(1)+(2)+(3)-(4)]
USER    Estimated Inhibition Constant, Ki   =   81.01 nM (nanomolar)  [Temperature = 298.15 K]
USER    
USER    (1) Final Intermolecular Energy     =  -12.66 kcal/mol
USER        vdW + Hbond + desolv Energy     =  -12.66 kcal/mol
USER        Electrostatic Energy            =   +0.00 kcal/mol
USER    (2) Final Total Internal Energy     =   -1.85 kcal/mol
USER    (3) Torsional Free Energy           =   +2.98 kcal/mol
USER    (4) Unbound System's Energy  [=(2)] =   -1.85 kcal/mol
USER    
USER    
USER  
USER    DPF = ligand_dock.biased.dpf
USER    NEWDPF move	ligand.pdbqt
USER    NEWDPF about	0.288000 0.007000 -0.056000
USER    NEWDPF tran0	22.265764 -9.260025 -7.549220
USER    NEWDPF axisangle0	-0.607241 -0.550889 -0.572521 114.571899
USER    NEWDPF quaternion0	-0.510919 -0.463506 -0.481706 0.540447
USER    NEWDPF dihe0	105.95 -114.62 72.81 -54.72 7.55 -44.05 -171.02 -116.40 -159.47 -137.37 
USER  
USER                              x       y       z    vdW   Elec        q     RMS 
ATOM      1  N   UNL     1      22.143 -10.557  -7.842 -0.26 -0.00    +0.000    21.068
ATOM      2  H   UNL     1      21.758 -11.437  -7.500 -0.28 -0.00    +0.000    21.068
ATOM      3  C   UNL     1      21.313  -9.525  -7.168 -0.22 -0.00    +0.000    21.068
ATOM      4  C   UNL     1      20.202 -10.553  -3.097 -0.43 -0.00    +0.000    21.068
ATOM      5  C   UNL     1      19.693 -11.281  -4.183 -0.43 -0.00    +0.000    21.068
ATOM      6  C   UNL     1      20.053 -10.953  -5.492 -0.39 -0.00    +0.000    21.068
ATOM      7  C   UNL     1      20.908  -9.869  -5.748 -0.28 -0.00    +0.000    21.068
ATOM      8  C   UNL     1      21.429  -9.146  -4.662 -0.31 -0.00    +0.000    21.068
ATOM      9  C   UNL     1      21.071  -9.474  -3.351 -0.42 -0.00    +0.000    21.068
ATOM     10  C   UNL     1      20.381 -10.493  -0.611 -0.62 -0.00    +0.000    21.068
ATOM     11  C   UNL     1      19.781 -10.935  -1.726 -0.41 -0.00    +0.000    21.068
ATOM     12  O   UNL     1      18.745 -10.728   1.102 -0.58 -0.00    +0.000    21.068
ATOM     13  C   UNL     1      19.939 -10.905   0.735 -0.66 -0.00    +0.000    21.068
ATOM     14  N   UNL     1      20.871 -11.509   1.634 -0.69 -0.00    +0.000    21.068
ATOM     15  O   UNL     1      20.481 -11.892   2.873 -1.71 -0.00    +0.000    21.068
ATOM     16  H   UNL     1      21.804 -11.648   1.351 -0.55 -0.00    +0.000    21.068
ATOM     17  C   UNL     1      23.563 -10.591  -7.422 -0.36 -0.00    +0.000    21.068
ATOM     18  C   UNL     1      24.102 -12.023  -7.371 -0.40 -0.00    +0.000    21.068
ATOM     19  O   UNL     1      23.354 -12.782  -6.462 -0.94 -0.00    +0.000    21.068
ATOM     20  H   UNL     1      22.409 -12.618  -6.605 -0.52 -0.00    +0.000    21.068
ATOM     21  C   UNL     1      21.976 -10.580  -9.315 -0.22 -0.00    +0.000    21.068
ATOM     22  C   UNL     1      23.215 -11.184  -9.985 -0.20 -0.00    +0.000    21.068
ATOM     23  C   UNL     1      22.831 -12.290 -10.925 -0.20 -0.00    +0.000    21.068
ATOM     24  C   UNL     1      23.322 -13.591 -10.909 -0.31 -0.00    +0.000    21.068
ATOM     25  N   UNL     1      22.663 -14.357 -11.807 -0.31 +0.00    +0.000    21.068
ATOM     26  C   UNL     1      21.748 -13.554 -12.379 -0.22 -0.00    +0.000    21.068
ATOM     27  C   UNL     1      21.817 -12.285 -11.864 -0.13 -0.00    +0.000    21.068
ATOM     28  C   UNL     1      20.943 -11.277 -12.277 -0.10 -0.00    +0.000    21.068
ATOM     29  C   UNL     1      19.979 -11.602 -13.249 -0.12 -0.00    +0.000    21.068
ATOM     30  C   UNL     1      19.909 -12.909 -13.779 -0.16 -0.00    +0.000    21.068
ATOM     31  C   UNL     1      20.800 -13.905 -13.341 -0.23 +0.00    +0.000    21.068
ATOM     32  H   UNL     1      22.819 -15.309 -12.003 -0.01 +0.00    +0.000    21.068
TER
ENDMDL
MODEL       57
USER    Run = 57
USER    Cluster Rank = 16
USER    Number of conformations in this cluster = 1
USER  
USER    RMSD from reference structure       = 15.929 A
USER  
USER    Estimated Free Energy of Binding    =   -9.66 kcal/mol  [=(1)+(2)+(3)-(4)]
USER    Estimated Inhibition Constant, Ki   =   83.30 nM (nanomolar)  [Temperature = 298.15 K]
USER    
USER    (1) Final Intermolecular Energy     =  -12.64 kcal/mol
USER        vdW + Hbond + desolv Energy     =  -12.64 kcal/mol
USER        Electrostatic Energy            =   +0.00 kcal/mol
USER    (2) Final Total Internal Energy     =   -1.62 kcal/mol
USER    (3) Torsional Free Energy           =   +2.98 kcal/mol
USER    (4) Unbound System's Energy  [=(2)] =   -1.62 kcal/mol
USER    
USER    
USER  
USER    DPF = ligand_dock.biased.dpf
USER    NEWDPF move	ligand.pdbqt
USER    NEWDPF about	0.288000 0.007000 -0.056000
USER    NEWDPF tran0	18.941779 -10.447168 2.140649
USER    NEWDPF axisangle0	0.821823 0.294203 0.487905 -93.846710
USER    NEWDPF quaternion0	0.600293 0.214898 0.356385 -0.682976
USER    NEWDPF dihe0	177.49 -133.82 -74.72 -125.17 -51.19 173.86 -58.78 -165.96 -31.78 180.00 
USER  
USER                              x       y       z    vdW   Elec        q     RMS 
ATOM      1  N   UNL     1      18.163 -11.424   1.669 -0.46 -0.00    +0.000    15.929
ATOM      2  H   UNL     1      17.285 -11.917   1.834 -0.01 +0.00    +0.000    15.929
ATOM      3  C   UNL     1      17.955 -10.110   2.334 -0.50 -0.00    +0.000    15.929
ATOM      4  C   UNL     1      13.967  -9.432   3.913 -0.32 +0.00    +0.000    15.929
ATOM      5  C   UNL     1      14.747 -10.502   4.376 -0.33 +0.00    +0.000    15.929
ATOM      6  C   UNL     1      16.032 -10.719   3.870 -0.45 +0.00    +0.000    15.929
ATOM      7  C   UNL     1      16.554  -9.887   2.868 -0.40 +0.00    +0.000    15.929
ATOM      8  C   UNL     1      15.780  -8.807   2.412 -0.27 +0.00    +0.000    15.929
ATOM      9  C   UNL     1      14.495  -8.588   2.917 -0.26 +0.00    +0.000    15.929
ATOM     10  C   UNL     1      12.271  -8.264   5.317 -0.35 +0.00    +0.000    15.929
ATOM     11  C   UNL     1      12.605  -9.252   4.474 -0.15 +0.00    +0.000    15.929
ATOM     12  O   UNL     1      10.277  -7.036   5.751 -0.30 +0.00    +0.000    15.929
ATOM     13  C   UNL     1      10.906  -8.124   5.862 -0.25 +0.00    +0.000    15.929
ATOM     14  N   UNL     1      10.290  -9.231   6.524 -0.42 +0.00    +0.000    15.929
ATOM     15  O   UNL     1       9.039  -9.119   7.030 -0.57 +0.00    +0.000    15.929
ATOM     16  H   UNL     1      10.779 -10.082   6.613 -0.05 +0.00    +0.000    15.929
ATOM     17  C   UNL     1      19.190 -12.287   2.296 -0.39 -0.00    +0.000    15.929
ATOM     18  C   UNL     1      19.896 -11.575   3.453 -0.69 -0.00    +0.000    15.929
ATOM     19  O   UNL     1      20.860 -10.691   2.951 -1.05 -0.00    +0.000    15.929
ATOM     20  H   UNL     1      20.627  -9.783   3.201 -0.58 -0.00    +0.000    15.929
ATOM     21  C   UNL     1      18.310 -11.326   0.198 -0.50 -0.00    +0.000    15.929
ATOM     22  C   UNL     1      19.770 -11.549  -0.211 -0.40 -0.00    +0.000    15.929
ATOM     23  C   UNL     1      20.317 -10.346  -0.924 -0.53 -0.00    +0.000    15.929
ATOM     24  C   UNL     1      20.998  -9.283  -0.340 -0.51 -0.00    +0.000    15.929
ATOM     25  N   UNL     1      21.465  -8.441  -1.290 -0.52 -0.00    +0.000    15.929
ATOM     26  C   UNL     1      21.099  -8.973  -2.470 -0.45 -0.00    +0.000    15.929
ATOM     27  C   UNL     1      20.400 -10.139  -2.288 -0.47 -0.00    +0.000    15.929
ATOM     28  C   UNL     1      19.941 -10.895  -3.368 -0.42 -0.00    +0.000    15.929
ATOM     29  C   UNL     1      20.217 -10.424  -4.664 -0.37 -0.00    +0.000    15.929
ATOM     30  C   UNL     1      20.937  -9.223  -4.851 -0.29 -0.00    +0.000    15.929
ATOM     31  C   UNL     1      21.390  -8.484  -3.743 -0.34 -0.00    +0.000    15.929
ATOM     32  H   UNL     1      21.971  -7.609  -1.148 -0.04 +0.00    +0.000    15.929
TER
ENDMDL
MODEL       98
USER    Run = 98
USER    Cluster Rank = 17
USER    Number of conformations in this cluster = 4
USER  
USER    RMSD from reference structure       = 19.584 A
USER  
USER    Estimated Free Energy of Binding    =   -9.53 kcal/mol  [=(1)+(2)+(3)-(4)]
USER    Estimated Inhibition Constant, Ki   =  103.50 nM (nanomolar)  [Temperature = 298.15 K]
USER    
USER    (1) Final Intermolecular Energy     =  -12.51 kcal/mol
USER        vdW + Hbond + desolv Energy     =  -12.51 kcal/mol
USER        Electrostatic Energy            =   +0.00 kcal/mol
USER    (2) Final Total Internal Energy     =   -2.48 kcal/mol
USER    (3) Torsional Free Energy           =   +2.98 kcal/mol
USER    (4) Unbound System's Energy  [=(2)] =   -2.48 kcal/mol
USER    
USER    
USER  
USER    DPF = ligand_dock.biased.dpf
USER    NEWDPF move	ligand.pdbqt
USER    NEWDPF about	0.288000 0.007000 -0.056000
USER    NEWDPF tran0	20.708967 -6.744421 -5.911750
USER    NEWDPF axisangle0	0.198261 -0.669071 -0.716266 164.947215
USER    NEWDPF quaternion0	0.196553 -0.663307 -0.710095 0.130983
USER    NEWDPF dihe0	39.63 -106.53 66.40 -69.20 95.55 -127.97 180.00 -34.20 137.26 -155.78 
USER  
USER                              x       y       z    vdW   Elec        q     RMS 
ATOM      1  N   UNL     1      22.000  -6.620  -5.595 -0.15 -0.00    +0.000    19.584
ATOM      2  H   UNL     1      22.690  -6.853  -4.880 -0.02 -0.00    +0.000    19.584
ATOM      3  C   UNL     1      20.942  -7.647  -5.408 -0.19 -0.00    +0.000    19.584
ATOM      4  C   UNL     1      21.105  -9.672  -1.569 -0.55 -0.00    +0.000    19.584
ATOM      5  C   UNL     1      21.015 -10.406  -2.762 -0.49 -0.00    +0.000    19.584
ATOM      6  C   UNL     1      20.966  -9.755  -3.997 -0.39 -0.00    +0.000    19.584
ATOM      7  C   UNL     1      20.976  -8.353  -4.066 -0.31 -0.00    +0.000    19.584
ATOM      8  C   UNL     1      21.079  -7.616  -2.875 -0.38 -0.00    +0.000    19.584
ATOM      9  C   UNL     1      21.129  -8.265  -1.638 -0.43 -0.00    +0.000    19.584
ATOM     10  C   UNL     1      20.106 -10.488   0.564 -0.63 -0.00    +0.000    19.584
ATOM     11  C   UNL     1      21.143 -10.411  -0.282 -0.70 -0.00    +0.000    19.584
ATOM     12  O   UNL     1      20.247 -12.485   1.854 -1.74 -0.00    +0.000    19.584
ATOM     13  C   UNL     1      20.187 -11.225   1.841 -0.75 -0.00    +0.000    19.584
ATOM     14  N   UNL     1      20.197 -10.505   3.075 -0.68 -0.00    +0.000    19.584
ATOM     15  O   UNL     1      20.271 -11.166   4.255 -1.05 -0.00    +0.000    19.584
ATOM     16  H   UNL     1      20.151  -9.521   3.068 -0.56 -0.00    +0.000    19.584
ATOM     17  C   UNL     1      21.591  -5.234  -5.270 -0.12 -0.00    +0.000    19.584
ATOM     18  C   UNL     1      22.673  -4.497  -4.477 -0.15 -0.00    +0.000    19.584
ATOM     19  O   UNL     1      23.060  -5.266  -3.371 -0.18 -0.00    +0.000    19.584
ATOM     20  H   UNL     1      22.364  -5.909  -3.166 -0.02 -0.00    +0.000    19.584
ATOM     21  C   UNL     1      22.703  -6.725  -6.895 -0.12 -0.00    +0.000    19.584
ATOM     22  C   UNL     1      24.208  -6.918  -6.677 -0.12 -0.00    +0.000    19.584
ATOM     23  C   UNL     1      24.671  -8.222  -7.259 -0.19 -0.00    +0.000    19.584
ATOM     24  C   UNL     1      25.938  -8.493  -7.764 -0.22 -0.00    +0.000    19.584
ATOM     25  N   UNL     1      26.051  -9.803  -8.081 -0.31 -0.00    +0.000    19.584
ATOM     26  C   UNL     1      24.870 -10.364  -7.765 -0.31 -0.00    +0.000    19.584
ATOM     27  C   UNL     1      24.003  -9.432  -7.256 -0.24 -0.00    +0.000    19.584
ATOM     28  C   UNL     1      22.723  -9.781  -6.822 -0.26 -0.00    +0.000    19.584
ATOM     29  C   UNL     1      22.340 -11.130  -6.924 -0.37 -0.00    +0.000    19.584
ATOM     30  C   UNL     1      23.233 -12.090  -7.449 -0.45 -0.00    +0.000    19.584
ATOM     31  C   UNL     1      24.519 -11.709  -7.874 -0.39 -0.00    +0.000    19.584
ATOM     32  H   UNL     1      26.836 -10.255  -8.465 -0.01 -0.00    +0.000    19.584
TER
ENDMDL
MODEL       18
USER    Run = 18
USER    Cluster Rank = 18
USER    Number of conformations in this cluster = 1
USER  
USER    RMSD from reference structure       = 14.868 A
USER  
USER    Estimated Free Energy of Binding    =   -9.42 kcal/mol  [=(1)+(2)+(3)-(4)]
USER    Estimated Inhibition Constant, Ki   =  123.88 nM (nanomolar)  [Temperature = 298.15 K]
USER    
USER    (1) Final Intermolecular Energy     =  -12.41 kcal/mol
USER        vdW + Hbond + desolv Energy     =  -12.41 kcal/mol
USER        Electrostatic Energy            =   +0.00 kcal/mol
USER    (2) Final Total Internal Energy     =   -2.26 kcal/mol
USER    (3) Torsional Free Energy           =   +2.98 kcal/mol
USER    (4) Unbound System's Energy  [=(2)] =   -2.26 kcal/mol
USER    
USER    
USER  
USER    DPF = ligand_dock.biased.dpf
USER    NEWDPF move	ligand.pdbqt
USER    NEWDPF about	0.288000 0.007000 -0.056000
USER    NEWDPF tran0	15.588929 -12.426965 2.480391
USER    NEWDPF axisangle0	0.761516 -0.598311 0.249235 -149.980962
USER    NEWDPF quaternion0	0.735535 -0.577898 0.240732 -0.258980
USER    NEWDPF dihe0	110.58 -30.66 59.60 -166.41 -92.04 -178.82 -141.75 -159.56 -33.50 167.20 
USER  
USER                              x       y       z    vdW   Elec        q     RMS 
ATOM      1  N   UNL     1      15.605 -11.424   1.599 -0.38 +0.00    +0.000    14.868
ATOM      2  H   UNL     1      15.052 -10.646   1.239 +0.00 +0.00    +0.000    14.868
ATOM      3  C   UNL     1      15.049 -11.650   2.958 -0.52 +0.00    +0.000    14.868
ATOM      4  C   UNL     1      12.753  -8.350   4.601 -0.27 +0.00    +0.000    14.868
ATOM      5  C   UNL     1      12.376  -8.950   3.390 -0.18 +0.00    +0.000    14.868
ATOM      6  C   UNL     1      13.113 -10.014   2.863 -0.22 +0.00    +0.000    14.868
ATOM      7  C   UNL     1      14.261 -10.483   3.521 -0.35 +0.00    +0.000    14.868
ATOM      8  C   UNL     1      14.633  -9.893   4.740 -0.39 +0.00    +0.000    14.868
ATOM      9  C   UNL     1      13.896  -8.829   5.269 -0.43 +0.00    +0.000    14.868
ATOM     10  C   UNL     1      10.678  -7.336   5.540 -0.25 +0.00    +0.000    14.868
ATOM     11  C   UNL     1      11.943  -7.215   5.113 -0.27 +0.00    +0.000    14.868
ATOM     12  O   UNL     1       8.810  -6.351   6.640 -0.39 +0.00    +0.000    14.868
ATOM     13  C   UNL     1       9.903  -6.180   6.033 -0.28 +0.00    +0.000    14.868
ATOM     14  N   UNL     1      10.393  -4.855   5.821 -0.35 +0.00    +0.000    14.868
ATOM     15  O   UNL     1       9.693  -3.785   6.266 -1.10 +0.00    +0.000    14.868
ATOM     16  H   UNL     1      11.246  -4.718   5.347 -0.01 +0.00    +0.000    14.868
ATOM     17  C   UNL     1      15.364 -12.521   0.633 -0.49 +0.00    +0.000    14.868
ATOM     18  C   UNL     1      14.787 -11.997  -0.684 -0.45 +0.00    +0.000    14.868
ATOM     19  O   UNL     1      15.139 -10.652  -0.856 -0.29 +0.00    +0.000    14.868
ATOM     20  H   UNL     1      16.094 -10.548  -0.723 -0.00 -0.00    +0.000    14.868
ATOM     21  C   UNL     1      17.013 -10.960   1.606 -0.44 +0.00    +0.000    14.868
ATOM     22  C   UNL     1      17.934 -12.033   1.015 -0.55 +0.00    +0.000    14.868
ATOM     23  C   UNL     1      19.208 -11.424   0.505 -0.53 -0.00    +0.000    14.868
ATOM     24  C   UNL     1      20.433 -11.406   1.164 -0.65 -0.00    +0.000    14.868
ATOM     25  N   UNL     1      21.395 -10.897   0.361 -0.63 -0.00    +0.000    14.868
ATOM     26  C   UNL     1      20.791 -10.608  -0.805 -0.55 -0.00    +0.000    14.868
ATOM     27  C   UNL     1      19.455 -10.919  -0.758 -0.45 -0.00    +0.000    14.868
ATOM     28  C   UNL     1      18.621 -10.739  -1.862 -0.33 -0.00    +0.000    14.868
ATOM     29  C   UNL     1      19.192 -10.223  -3.039 -0.34 -0.00    +0.000    14.868
ATOM     30  C   UNL     1      20.566  -9.903  -3.087 -0.43 -0.00    +0.000    14.868
ATOM     31  C   UNL     1      21.384 -10.098  -1.959 -0.52 -0.00    +0.000    14.868
ATOM     32  H   UNL     1      22.344 -10.765   0.584 -0.36 -0.00    +0.000    14.868
TER
ENDMDL
MODEL       43
USER    Run = 43
USER    Cluster Rank = 19
USER    Number of conformations in this cluster = 3
USER  
USER    RMSD from reference structure       = 20.655 A
USER  
USER    Estimated Free Energy of Binding    =   -9.36 kcal/mol  [=(1)+(2)+(3)-(4)]
USER    Estimated Inhibition Constant, Ki   =  137.34 nM (nanomolar)  [Temperature = 298.15 K]
USER    
USER    (1) Final Intermolecular Energy     =  -12.34 kcal/mol
USER        vdW + Hbond + desolv Energy     =  -12.34 kcal/mol
USER        Electrostatic Energy            =   +0.00 kcal/mol
USER    (2) Final Total Internal Energy     =   -1.59 kcal/mol
USER    (3) Torsional Free Energy           =   +2.98 kcal/mol
USER    (4) Unbound System's Energy  [=(2)] =   -1.59 kcal/mol
USER    
USER    
USER  
USER    DPF = ligand_dock.biased.dpf
USER    NEWDPF move	ligand.pdbqt
USER    NEWDPF about	0.288000 0.007000 -0.056000
USER    NEWDPF tran0	20.052137 -10.338730 -5.625442
USER    NEWDPF axisangle0	-0.448179 -0.238461 0.861552 -128.694799
USER    NEWDPF quaternion0	-0.404005 -0.214957 0.776634 -0.432913
USER    NEWDPF dihe0	84.41 37.54 -91.51 -27.93 118.80 152.61 161.40 -154.90 -17.08 113.70 
USER  
USER                              x       y       z    vdW   Elec        q     RMS 
ATOM      1  N   UNL     1      20.592 -11.276  -4.843 -0.48 -0.00    +0.000    20.655
ATOM      2  H   UNL     1      20.915 -12.244  -4.833 -0.12 -0.00    +0.000    20.655
ATOM      3  C   UNL     1      20.684 -10.889  -6.275 -0.37 -0.00    +0.000    20.655
ATOM      4  C   UNL     1      24.711 -10.331  -7.803 -0.31 -0.00    +0.000    20.655
ATOM      5  C   UNL     1      24.205 -11.620  -7.573 -0.39 -0.00    +0.000    20.655
ATOM      6  C   UNL     1      22.909 -11.799  -7.084 -0.44 -0.00    +0.000    20.655
ATOM      7  C   UNL     1      22.098 -10.693  -6.787 -0.35 -0.00    +0.000    20.655
ATOM      8  C   UNL     1      22.596  -9.402  -7.028 -0.22 -0.00    +0.000    20.655
ATOM      9  C   UNL     1      23.893  -9.220  -7.518 -0.22 -0.00    +0.000    20.655
ATOM     10  C   UNL     1      27.187 -10.243  -7.532 -0.36 -0.00    +0.000    20.655
ATOM     11  C   UNL     1      26.098 -10.193  -8.313 -0.37 -0.00    +0.000    20.655
ATOM     12  O   UNL     1      28.816 -10.446  -9.258 -0.40 -0.00    +0.000    20.655
ATOM     13  C   UNL     1      28.551 -10.091  -8.077 -0.48 -0.00    +0.000    20.655
ATOM     14  N   UNL     1      29.584  -9.539  -7.257 -0.40 -0.00    +0.000    20.655
ATOM     15  O   UNL     1      30.840  -9.393  -7.741 -0.35 -0.00    +0.000    20.655
ATOM     16  H   UNL     1      29.380  -9.261  -6.334 -0.03 -0.00    +0.000    20.655
ATOM     17  C   UNL     1      19.215 -11.346  -4.300 -0.38 -0.00    +0.000    20.655
ATOM     18  C   UNL     1      18.234 -10.528  -5.145 -0.32 -0.00    +0.000    20.655
ATOM     19  O   UNL     1      17.648 -11.346  -6.119 -0.40 -0.00    +0.000    20.655
ATOM     20  H   UNL     1      17.679 -12.270  -5.826 -0.03 -0.00    +0.000    20.655
ATOM     21  C   UNL     1      21.520 -10.524  -3.966 -0.51 -0.00    +0.000    20.655
ATOM     22  C   UNL     1      20.738  -9.695  -2.942 -0.50 -0.00    +0.000    20.655
ATOM     23  C   UNL     1      20.707 -10.381  -1.607 -0.52 -0.00    +0.000    20.655
ATOM     24  C   UNL     1      21.780 -10.529  -0.734 -0.52 -0.00    +0.000    20.655
ATOM     25  N   UNL     1      21.368 -11.076   0.433 -0.61 -0.00    +0.000    20.655
ATOM     26  C   UNL     1      20.042 -11.259   0.309 -0.57 -0.00    +0.000    20.655
ATOM     27  C   UNL     1      19.600 -10.843  -0.921 -0.45 -0.00    +0.000    20.655
ATOM     28  C   UNL     1      18.251 -10.901  -1.274 -0.35 -0.00    +0.000    20.655
ATOM     29  C   UNL     1      17.345 -11.405  -0.324 -0.37 -0.00    +0.000    20.655
ATOM     30  C   UNL     1      17.799 -11.834   0.942 -0.47 +0.00    +0.000    20.655
ATOM     31  C   UNL     1      19.165 -11.760   1.271 -0.58 -0.00    +0.000    20.655
ATOM     32  H   UNL     1      21.925 -11.296   1.214 -0.49 -0.00    +0.000    20.655
TER
ENDMDL
MODEL       16
USER    Run = 16
USER    Cluster Rank = 20
USER    Number of conformations in this cluster = 1
USER  
USER    RMSD from reference structure       = 17.061 A
USER  
USER    Estimated Free Energy of Binding    =   -9.29 kcal/mol  [=(1)+(2)+(3)-(4)]
USER    Estimated Inhibition Constant, Ki   =  154.52 nM (nanomolar)  [Temperature = 298.15 K]
USER    
USER    (1) Final Intermolecular Energy     =  -12.27 kcal/mol
USER        vdW + Hbond + desolv Energy     =  -12.27 kcal/mol
USER        Electrostatic Energy            =   +0.00 kcal/mol
USER    (2) Final Total Internal Energy     =   -2.40 kcal/mol
USER    (3) Torsional Free Energy           =   +2.98 kcal/mol
USER    (4) Unbound System's Energy  [=(2)] =   -2.40 kcal/mol
USER    
USER    
USER  
USER    DPF = ligand_dock.biased.dpf
USER    NEWDPF move	ligand.pdbqt
USER    NEWDPF about	0.288000 0.007000 -0.056000
USER    NEWDPF tran0	20.154784 -9.248197 -4.457780
USER    NEWDPF axisangle0	-0.585304 -0.723812 0.365398 -90.085240
USER    NEWDPF quaternion0	-0.414180 -0.512193 0.258568 -0.706581
USER    NEWDPF dihe0	109.66 -66.99 61.22 -81.80 -39.95 122.43 -80.41 -172.57 162.13 -9.34 
USER  
USER                              x       y       z    vdW   Elec        q     RMS 
ATOM      1  N   UNL     1      19.692 -10.434  -4.861 -0.32 -0.00    +0.000    17.061
ATOM      2  H   UNL     1      19.654 -11.065  -5.661 -0.03 -0.00    +0.000    17.061
ATOM      3  C   UNL     1      20.898  -9.606  -5.123 -0.33 -0.00    +0.000    17.061
ATOM      4  C   UNL     1      21.108  -6.000  -2.712 -0.36 -0.00    +0.000    17.061
ATOM      5  C   UNL     1      20.773  -5.932  -4.073 -0.21 -0.00    +0.000    17.061
ATOM      6  C   UNL     1      20.703  -7.093  -4.848 -0.18 -0.00    +0.000    17.061
ATOM      7  C   UNL     1      20.994  -8.346  -4.286 -0.29 -0.00    +0.000    17.061
ATOM      8  C   UNL     1      21.317  -8.418  -2.921 -0.40 -0.00    +0.000    17.061
ATOM      9  C   UNL     1      21.387  -7.258  -2.144 -0.43 -0.00    +0.000    17.061
ATOM     10  C   UNL     1      20.409  -4.472  -0.870 -0.41 +0.00    +0.000    17.061
ATOM     11  C   UNL     1      21.180  -4.737  -1.935 -0.42 -0.00    +0.000    17.061
ATOM     12  O   UNL     1      21.385  -3.036   0.759 -1.10 +0.00    +0.000    17.061
ATOM     13  C   UNL     1      20.504  -3.199  -0.129 -0.44 +0.00    +0.000    17.061
ATOM     14  N   UNL     1      19.589  -2.141  -0.419 -0.24 -0.00    +0.000    17.061
ATOM     15  O   UNL     1      19.662  -0.967   0.252 -0.18 -0.00    +0.000    17.061
ATOM     16  H   UNL     1      18.899  -2.265  -1.112 -0.01 -0.00    +0.000    17.061
ATOM     17  C   UNL     1      18.406  -9.701  -4.914 -0.25 -0.00    +0.000    17.061
ATOM     18  C   UNL     1      17.372 -10.435  -5.772 -0.27 -0.00    +0.000    17.061
ATOM     19  O   UNL     1      17.996 -11.457  -6.499 -0.44 -0.00    +0.000    17.061
ATOM     20  H   UNL     1      18.545 -11.989  -5.902 -0.07 -0.00    +0.000    17.061
ATOM     21  C   UNL     1      19.816 -11.297  -3.662 -0.44 -0.00    +0.000    17.061
ATOM     22  C   UNL     1      19.101 -10.659  -2.466 -0.42 -0.00    +0.000    17.061
ATOM     23  C   UNL     1      19.878 -10.876  -1.199 -0.43 -0.00    +0.000    17.061
ATOM     24  C   UNL     1      21.258 -10.792  -1.056 -0.45 -0.00    +0.000    17.061
ATOM     25  N   UNL     1      21.607 -10.912   0.245 -0.56 -0.00    +0.000    17.061
ATOM     26  C   UNL     1      20.457 -11.055   0.926 -0.63 -0.00    +0.000    17.061
ATOM     27  C   UNL     1      19.378 -11.034   0.080 -0.50 -0.00    +0.000    17.061
ATOM     28  C   UNL     1      18.070 -11.132   0.556 -0.42 -0.00    +0.000    17.061
ATOM     29  C   UNL     1      17.885 -11.255   1.945 -0.44 +0.00    +0.000    17.061
ATOM     30  C   UNL     1      18.996 -11.277   2.816 -0.56 -0.00    +0.000    17.061
ATOM     31  C   UNL     1      20.303 -11.173   2.307 -0.66 -0.00    +0.000    17.061
ATOM     32  H   UNL     1      22.518 -10.898   0.618 -0.40 -0.00    +0.000    17.061
TER
ENDMDL
MODEL       95
USER    Run = 95
USER    Cluster Rank = 21
USER    Number of conformations in this cluster = 1
USER  
USER    RMSD from reference structure       = 13.625 A
USER  
USER    Estimated Free Energy of Binding    =   -9.29 kcal/mol  [=(1)+(2)+(3)-(4)]
USER    Estimated Inhibition Constant, Ki   =  154.57 nM (nanomolar)  [Temperature = 298.15 K]
USER    
USER    (1) Final Intermolecular Energy     =  -12.27 kcal/mol
USER        vdW + Hbond + desolv Energy     =  -12.27 kcal/mol
USER        Electrostatic Energy            =   +0.00 kcal/mol
USER    (2) Final Total Internal Energy     =   -2.17 kcal/mol
USER    (3) Torsional Free Energy           =   +2.98 kcal/mol
USER    (4) Unbound System's Energy  [=(2)] =   -2.17 kcal/mol
USER    
USER    
USER  
USER    DPF = ligand_dock.biased.dpf
USER    NEWDPF move	ligand.pdbqt
USER    NEWDPF about	0.288000 0.007000 -0.056000
USER    NEWDPF tran0	15.890894 -11.944403 1.466798
USER    NEWDPF axisangle0	-0.645354 -0.196160 -0.738268 143.805191
USER    NEWDPF quaternion0	-0.613428 -0.186456 -0.701746 0.310633
USER    NEWDPF dihe0	81.38 128.67 -176.04 -153.55 56.25 179.66 170.55 9.40 179.93 12.99 
USER  
USER                              x       y       z    vdW   Elec        q     RMS 
ATOM      1  N   UNL     1      16.026 -12.584   0.302 -0.50 +0.00    +0.000    13.625
ATOM      2  H   UNL     1      15.737 -13.419  -0.207 -0.04 +0.00    +0.000    13.625
ATOM      3  C   UNL     1      14.944 -12.393   1.304 -0.47 +0.00    +0.000    13.625
ATOM      4  C   UNL     1      15.277  -8.693   3.555 -0.34 +0.00    +0.000    13.625
ATOM      5  C   UNL     1      15.929  -9.857   3.990 -0.27 +0.00    +0.000    13.625
ATOM      6  C   UNL     1      15.825 -11.046   3.264 -0.46 +0.00    +0.000    13.625
ATOM      7  C   UNL     1      15.041 -11.107   2.101 -0.39 +0.00    +0.000    13.625
ATOM      8  C   UNL     1      14.398  -9.940   1.655 -0.24 +0.00    +0.000    13.625
ATOM      9  C   UNL     1      14.502  -8.749   2.380 -0.25 +0.00    +0.000    13.625
ATOM     10  C   UNL     1      14.427  -6.560   4.524 -0.38 +0.00    +0.000    13.625
ATOM     11  C   UNL     1      15.410  -7.458   4.367 -0.42 +0.00    +0.000    13.625
ATOM     12  O   UNL     1      13.609  -4.764   5.857 -0.83 +0.00    +0.000    13.625
ATOM     13  C   UNL     1      14.603  -5.337   5.333 -0.47 +0.00    +0.000    13.625
ATOM     14  N   UNL     1      15.911  -4.794   5.522 -0.46 +0.00    +0.000    13.625
ATOM     15  O   UNL     1      16.089  -3.673   6.260 -0.69 +0.00    +0.000    13.625
ATOM     16  H   UNL     1      16.690  -5.238   5.113 -0.63 -0.00    +0.000    13.625
ATOM     17  C   UNL     1      17.347 -12.940   0.868 -0.21 +0.00    +0.000    13.625
ATOM     18  C   UNL     1      18.318 -11.757   0.824 -0.56 -0.00    +0.000    13.625
ATOM     19  O   UNL     1      19.576 -12.156   1.293 -1.47 -0.00    +0.000    13.625
ATOM     20  H   UNL     1      19.656 -13.120   1.223 -0.52 -0.00    +0.000    13.625
ATOM     21  C   UNL     1      16.102 -11.495  -0.701 -0.37 +0.00    +0.000    13.625
ATOM     22  C   UNL     1      15.014 -11.670  -1.765 -0.32 +0.00    +0.000    13.625
ATOM     23  C   UNL     1      13.953 -10.616  -1.626 -0.27 -0.00    +0.000    13.625
ATOM     24  C   UNL     1      13.861  -9.440  -2.362 -0.19 -0.00    +0.000    13.625
ATOM     25  N   UNL     1      12.711  -8.789  -2.073 -0.13 -0.00    +0.000    13.625
ATOM     26  C   UNL     1      12.070  -9.553  -1.171 -0.18 -0.00    +0.000    13.625
ATOM     27  C   UNL     1      12.794 -10.680  -0.876 -0.26 +0.00    +0.000    13.625
ATOM     28  C   UNL     1      12.318 -11.646   0.011 -0.28 +0.00    +0.000    13.625
ATOM     29  C   UNL     1      11.060 -11.432   0.603 -0.34 +0.00    +0.000    13.625
ATOM     30  C   UNL     1      10.315 -10.272   0.299 -0.20 +0.00    +0.000    13.625
ATOM     31  C   UNL     1      10.819  -9.316  -0.602 -0.14 -0.00    +0.000    13.625
ATOM     32  H   UNL     1      12.406  -7.931  -2.445 +0.00 -0.00    +0.000    13.625
TER
ENDMDL
MODEL       28
USER    Run = 28
USER    Cluster Rank = 22
USER    Number of conformations in this cluster = 4
USER  
USER    RMSD from reference structure       = 14.408 A
USER  
USER    Estimated Free Energy of Binding    =   -9.28 kcal/mol  [=(1)+(2)+(3)-(4)]
USER    Estimated Inhibition Constant, Ki   =  158.36 nM (nanomolar)  [Temperature = 298.15 K]
USER    
USER    (1) Final Intermolecular Energy     =  -12.26 kcal/mol
USER        vdW + Hbond + desolv Energy     =  -12.26 kcal/mol
USER        Electrostatic Energy            =   +0.00 kcal/mol
USER    (2) Final Total Internal Energy     =   -2.42 kcal/mol
USER    (3) Torsional Free Energy           =   +2.98 kcal/mol
USER    (4) Unbound System's Energy  [=(2)] =   -2.42 kcal/mol
USER    
USER    
USER  
USER    DPF = ligand_dock.biased.dpf
USER    NEWDPF move	ligand.pdbqt
USER    NEWDPF about	0.288000 0.007000 -0.056000
USER    NEWDPF tran0	18.963335 -10.946113 1.857652
USER    NEWDPF axisangle0	-0.894296 -0.263328 -0.361791 142.820426
USER    NEWDPF quaternion0	-0.847636 -0.249589 -0.342915 0.318790
USER    NEWDPF dihe0	122.67 18.29 -106.90 173.99 7.37 24.12 121.53 -39.01 -154.82 119.76 
USER  
USER                              x       y       z    vdW   Elec        q     RMS 
ATOM      1  N   UNL     1      18.069 -11.576   1.091 -0.46 -0.00    +0.000    14.408
ATOM      2  H   UNL     1      17.350 -12.299   1.104 -0.02 +0.00    +0.000    14.408
ATOM      3  C   UNL     1      18.148 -11.134   2.508 -0.52 +0.00    +0.000    14.408
ATOM      4  C   UNL     1      14.548  -9.166   3.934 -0.34 +0.00    +0.000    14.408
ATOM      5  C   UNL     1      15.298  -8.612   2.886 -0.31 +0.00    +0.000    14.408
ATOM      6  C   UNL     1      16.455  -9.247   2.425 -0.26 +0.00    +0.000    14.408
ATOM      7  C   UNL     1      16.903 -10.436   3.022 -0.43 +0.00    +0.000    14.408
ATOM      8  C   UNL     1      16.147 -10.999   4.063 -0.43 +0.00    +0.000    14.408
ATOM      9  C   UNL     1      14.989 -10.366   4.525 -0.38 +0.00    +0.000    14.408
ATOM     10  C   UNL     1      12.405  -8.991   5.195 -0.33 +0.00    +0.000    14.408
ATOM     11  C   UNL     1      13.333  -8.448   4.395 -0.33 +0.00    +0.000    14.408
ATOM     12  O   UNL     1      10.283  -8.824   6.262 -0.44 +0.00    +0.000    14.408
ATOM     13  C   UNL     1      11.204  -8.246   5.624 -0.29 +0.00    +0.000    14.408
ATOM     14  N   UNL     1      11.082  -6.857   5.310 -0.23 +0.00    +0.000    14.408
ATOM     15  O   UNL     1       9.987  -6.160   5.695 -0.30 +0.00    +0.000    14.408
ATOM     16  H   UNL     1      11.800  -6.403   4.811 -0.00 +0.00    +0.000    14.408
ATOM     17  C   UNL     1      19.276 -12.270   0.585 -0.48 -0.00    +0.000    14.408
ATOM     18  C   UNL     1      20.559 -11.668   1.165 -0.72 -0.00    +0.000    14.408
ATOM     19  O   UNL     1      20.691 -12.036   2.510 -1.83 -0.00    +0.000    14.408
ATOM     20  H   UNL     1      20.770 -13.001   2.575 -0.60 -0.00    +0.000    14.408
ATOM     21  C   UNL     1      17.579 -10.524   0.170 -0.29 -0.00    +0.000    14.408
ATOM     22  C   UNL     1      16.395 -11.042  -0.654 -0.35 +0.00    +0.000    14.408
ATOM     23  C   UNL     1      15.255 -11.441   0.238 -0.35 +0.00    +0.000    14.408
ATOM     24  C   UNL     1      15.302 -12.378   1.264 -0.39 +0.00    +0.000    14.408
ATOM     25  N   UNL     1      14.136 -12.391   1.947 -0.32 +0.00    +0.000    14.408
ATOM     26  C   UNL     1      13.358 -11.458   1.371 -0.38 +0.00    +0.000    14.408
ATOM     27  C   UNL     1      14.007 -10.852   0.326 -0.28 +0.00    +0.000    14.408
ATOM     28  C   UNL     1      13.415  -9.824  -0.409 -0.18 +0.00    +0.000    14.408
ATOM     29  C   UNL     1      12.118  -9.421  -0.046 -0.14 +0.00    +0.000    14.408
ATOM     30  C   UNL     1      11.449 -10.044   1.030 -0.19 +0.00    +0.000    14.408
ATOM     31  C   UNL     1      12.072 -11.076   1.755 -0.29 +0.00    +0.000    14.408
ATOM     32  H   UNL     1      13.902 -12.966   2.712 -0.41 +0.00    +0.000    14.408
TER
ENDMDL
MODEL       76
USER    Run = 76
USER    Cluster Rank = 23
USER    Number of conformations in this cluster = 1
USER  
USER    RMSD from reference structure       = 15.811 A
USER  
USER    Estimated Free Energy of Binding    =   -9.17 kcal/mol  [=(1)+(2)+(3)-(4)]
USER    Estimated Inhibition Constant, Ki   =  189.23 nM (nanomolar)  [Temperature = 298.15 K]
USER    
USER    (1) Final Intermolecular Energy     =  -12.15 kcal/mol
USER        vdW + Hbond + desolv Energy     =  -12.15 kcal/mol
USER        Electrostatic Energy            =   +0.00 kcal/mol
USER    (2) Final Total Internal Energy     =   -2.40 kcal/mol
USER    (3) Torsional Free Energy           =   +2.98 kcal/mol
USER    (4) Unbound System's Energy  [=(2)] =   -2.40 kcal/mol
USER    
USER    
USER  
USER    DPF = ligand_dock.biased.dpf
USER    NEWDPF move	ligand.pdbqt
USER    NEWDPF about	0.288000 0.007000 -0.056000
USER    NEWDPF tran0	17.646664 -10.063131 1.404509
USER    NEWDPF axisangle0	0.307514 -0.279890 -0.909449 86.591237
USER    NEWDPF quaternion0	0.210882 -0.191938 -0.623666 0.727825
USER    NEWDPF dihe0	159.19 -18.72 6.29 177.91 88.94 126.43 159.23 64.64 10.58 -131.50 
USER  
USER                              x       y       z    vdW   Elec        q     RMS 
ATOM      1  N   UNL     1      17.755 -11.178   2.131 -0.45 +0.00    +0.000    15.811
ATOM      2  H   UNL     1      17.270 -12.041   2.377 -0.01 +0.00    +0.000    15.811
ATOM      3  C   UNL     1      17.160 -10.803   0.822 -0.40 +0.00    +0.000    15.811
ATOM      4  C   UNL     1      12.854 -11.280   0.522 -0.35 +0.00    +0.000    15.811
ATOM      5  C   UNL     1      13.422 -10.009   0.700 -0.19 +0.00    +0.000    15.811
ATOM      6  C   UNL     1      14.808  -9.856   0.794 -0.24 +0.00    +0.000    15.811
ATOM      7  C   UNL     1      15.656 -10.973   0.740 -0.31 +0.00    +0.000    15.811
ATOM      8  C   UNL     1      15.090 -12.245   0.548 -0.44 +0.00    +0.000    15.811
ATOM      9  C   UNL     1      13.704 -12.401   0.453 -0.28 +0.00    +0.000    15.811
ATOM     10  C   UNL     1      10.619 -11.979   1.377 -0.45 +0.00    +0.000    15.811
ATOM     11  C   UNL     1      11.376 -11.391   0.439 -0.36 +0.00    +0.000    15.811
ATOM     12  O   UNL     1       8.473 -12.693   2.120 -0.50 +0.00    +0.000    15.811
ATOM     13  C   UNL     1       9.151 -12.079   1.253 -0.40 +0.00    +0.000    15.811
ATOM     14  N   UNL     1       8.492 -11.476   0.137 -0.26 -0.00    +0.000    15.811
ATOM     15  O   UNL     1       7.146 -11.559   0.009 -0.23 -0.00    +0.000    15.811
ATOM     16  H   UNL     1       9.019 -10.996  -0.543 -0.02 -0.00    +0.000    15.811
ATOM     17  C   UNL     1      17.447 -10.254   3.247 -0.35 +0.00    +0.000    15.811
ATOM     18  C   UNL     1      16.023 -10.459   3.771 -0.50 +0.00    +0.000    15.811
ATOM     19  O   UNL     1      15.689 -11.818   3.725 -0.54 +0.00    +0.000    15.811
ATOM     20  H   UNL     1      15.807 -12.210   4.604 -0.50 +0.00    +0.000    15.811
ATOM     21  C   UNL     1      19.194 -11.524   2.049 -0.67 -0.00    +0.000    15.811
ATOM     22  C   UNL     1      19.561 -11.959   0.626 -0.62 -0.00    +0.000    15.811
ATOM     23  C   UNL     1      20.175 -10.823  -0.140 -0.55 -0.00    +0.000    15.811
ATOM     24  C   UNL     1      21.151  -9.949   0.326 -0.56 -0.00    +0.000    15.811
ATOM     25  N   UNL     1      21.571  -9.134  -0.668 -0.57 -0.00    +0.000    15.811
ATOM     26  C   UNL     1      20.880  -9.498  -1.763 -0.52 -0.00    +0.000    15.811
ATOM     27  C   UNL     1      20.020 -10.529  -1.482 -0.46 -0.00    +0.000    15.811
ATOM     28  C   UNL     1      19.217 -11.104  -2.468 -0.32 -0.00    +0.000    15.811
ATOM     29  C   UNL     1      19.312 -10.590  -3.774 -0.36 -0.00    +0.000    15.811
ATOM     30  C   UNL     1      20.198  -9.529  -4.063 -0.31 -0.00    +0.000    15.811
ATOM     31  C   UNL     1      20.998  -8.972  -3.049 -0.41 -0.00    +0.000    15.811
ATOM     32  H   UNL     1      22.246  -8.420  -0.605 -0.02 -0.00    +0.000    15.811
TER
ENDMDL
MODEL       83
USER    Run = 83
USER    Cluster Rank = 24
USER    Number of conformations in this cluster = 1
USER  
USER    RMSD from reference structure       = 16.802 A
USER  
USER    Estimated Free Energy of Binding    =   -9.16 kcal/mol  [=(1)+(2)+(3)-(4)]
USER    Estimated Inhibition Constant, Ki   =  191.48 nM (nanomolar)  [Temperature = 298.15 K]
USER    
USER    (1) Final Intermolecular Energy     =  -12.15 kcal/mol
USER        vdW + Hbond + desolv Energy     =  -12.15 kcal/mol
USER        Electrostatic Energy            =   +0.00 kcal/mol
USER    (2) Final Total Internal Energy     =   -1.97 kcal/mol
USER    (3) Torsional Free Energy           =   +2.98 kcal/mol
USER    (4) Unbound System's Energy  [=(2)] =   -1.97 kcal/mol
USER    
USER    
USER  
USER    DPF = ligand_dock.biased.dpf
USER    NEWDPF move	ligand.pdbqt
USER    NEWDPF about	0.288000 0.007000 -0.056000
USER    NEWDPF tran0	20.689078 -6.420207 -3.579277
USER    NEWDPF axisangle0	0.383764 0.761891 -0.521774 160.137002
USER    NEWDPF quaternion0	0.378013 0.750473 -0.513955 0.172471
USER    NEWDPF dihe0	19.11 0.99 32.75 -179.99 87.51 140.95 -46.88 -59.13 19.89 73.24 
USER  
USER                              x       y       z    vdW   Elec        q     RMS 
ATOM      1  N   UNL     1      21.421  -7.446  -3.136 -0.38 -0.00    +0.000    16.802
ATOM      2  H   UNL     1      22.335  -7.890  -3.218 -0.04 -0.00    +0.000    16.802
ATOM      3  C   UNL     1      21.677  -6.039  -3.541 -0.30 -0.00    +0.000    16.802
ATOM      4  C   UNL     1      21.237  -3.080  -0.393 -0.37 +0.00    +0.000    16.802
ATOM      5  C   UNL     1      22.498  -3.356  -0.943 -0.11 +0.00    +0.000    16.802
ATOM      6  C   UNL     1      22.639  -4.306  -1.958 -0.31 +0.00    +0.000    16.802
ATOM      7  C   UNL     1      21.526  -5.022  -2.426 -0.35 -0.00    +0.000    16.802
ATOM      8  C   UNL     1      20.261  -4.739  -1.886 -0.27 -0.00    +0.000    16.802
ATOM      9  C   UNL     1      20.117  -3.788  -0.871 -0.34 -0.00    +0.000    16.802
ATOM     10  C   UNL     1      20.804  -2.363   1.955 -0.57 -0.00    +0.000    16.802
ATOM     11  C   UNL     1      21.142  -2.070   0.691 -0.44 -0.00    +0.000    16.802
ATOM     12  O   UNL     1      20.366  -1.630   4.178 -0.83 -0.00    +0.000    16.802
ATOM     13  C   UNL     1      20.710  -1.327   3.003 -0.64 -0.00    +0.000    16.802
ATOM     14  N   UNL     1      21.009   0.033   2.684 -0.44 -0.00    +0.000    16.802
ATOM     15  O   UNL     1      20.927   0.995   3.634 -0.43 -0.00    +0.000    16.802
ATOM     16  H   UNL     1      21.278   0.274   1.767 -0.01 -0.00    +0.000    16.802
ATOM     17  C   UNL     1      20.556  -8.215  -4.060 -0.32 -0.00    +0.000    16.802
ATOM     18  C   UNL     1      21.372  -9.178  -4.927 -0.34 -0.00    +0.000    16.802
ATOM     19  O   UNL     1      22.132 -10.026  -4.111 -0.44 -0.00    +0.000    16.802
ATOM     20  H   UNL     1      22.505  -9.517  -3.375 -0.03 -0.00    +0.000    16.802
ATOM     21  C   UNL     1      21.020  -7.588  -1.717 -0.40 -0.00    +0.000    16.802
ATOM     22  C   UNL     1      21.543  -8.909  -1.142 -0.40 -0.00    +0.000    16.802
ATOM     23  C   UNL     1      20.422  -9.887  -0.937 -0.51 -0.00    +0.000    16.802
ATOM     24  C   UNL     1      19.568 -10.376  -1.920 -0.39 -0.00    +0.000    16.802
ATOM     25  N   UNL     1      18.764 -11.338  -1.412 -0.41 -0.00    +0.000    16.802
ATOM     26  C   UNL     1      19.114 -11.471  -0.121 -0.48 -0.00    +0.000    16.802
ATOM     27  C   UNL     1      20.126 -10.605   0.206 -0.56 -0.00    +0.000    16.802
ATOM     28  C   UNL     1      20.685 -10.578   1.485 -0.51 -0.00    +0.000    16.802
ATOM     29  C   UNL     1      20.175 -11.475   2.442 -0.68 -0.00    +0.000    16.802
ATOM     30  C   UNL     1      19.134 -12.366   2.105 -0.39 -0.00    +0.000    16.802
ATOM     31  C   UNL     1      18.593 -12.372   0.807 -0.47 -0.00    +0.000    16.802
ATOM     32  H   UNL     1      18.065 -11.840  -1.890 +0.01 -0.00    +0.000    16.802
TER
ENDMDL
MODEL       82
USER    Run = 82
USER    Cluster Rank = 25
USER    Number of conformations in this cluster = 1
USER  
USER    RMSD from reference structure       = 16.052 A
USER  
USER    Estimated Free Energy of Binding    =   -9.01 kcal/mol  [=(1)+(2)+(3)-(4)]
USER    Estimated Inhibition Constant, Ki   =  246.62 nM (nanomolar)  [Temperature = 298.15 K]
USER    
USER    (1) Final Intermolecular Energy     =  -12.00 kcal/mol
USER        vdW + Hbond + desolv Energy     =  -12.00 kcal/mol
USER        Electrostatic Energy            =   +0.00 kcal/mol
USER    (2) Final Total Internal Energy     =   -1.62 kcal/mol
USER    (3) Torsional Free Energy           =   +2.98 kcal/mol
USER    (4) Unbound System's Energy  [=(2)] =   -1.62 kcal/mol
USER    
USER    
USER  
USER    DPF = ligand_dock.biased.dpf
USER    NEWDPF move	ligand.pdbqt
USER    NEWDPF about	0.288000 0.007000 -0.056000
USER    NEWDPF tran0	18.277463 -10.467454 0.696320
USER    NEWDPF axisangle0	0.656526 0.618952 0.431129 -115.838904
USER    NEWDPF quaternion0	0.556276 0.524439 0.365297 -0.531111
USER    NEWDPF dihe0	-7.80 168.74 2.89 38.36 -31.58 -172.61 -168.15 124.57 134.12 130.24 
USER  
USER                              x       y       z    vdW   Elec        q     RMS 
ATOM      1  N   UNL     1      17.981 -11.765   0.595 -0.46 -0.00    +0.000    16.052
ATOM      2  H   UNL     1      17.618 -12.562   1.118 -0.03 +0.00    +0.000    16.052
ATOM      3  C   UNL     1      17.425 -10.590   1.315 -0.42 -0.00    +0.000    16.052
ATOM      4  C   UNL     1      13.094 -10.596   1.633 -0.28 +0.00    +0.000    16.052
ATOM      5  C   UNL     1      13.780  -9.439   1.234 -0.18 +0.00    +0.000    16.052
ATOM      6  C   UNL     1      15.174  -9.438   1.129 -0.25 +0.00    +0.000    16.052
ATOM      7  C   UNL     1      15.915 -10.586   1.448 -0.32 +0.00    +0.000    16.052
ATOM      8  C   UNL     1      15.230 -11.750   1.836 -0.43 +0.00    +0.000    16.052
ATOM      9  C   UNL     1      13.836 -11.753   1.941 -0.37 +0.00    +0.000    16.052
ATOM     10  C   UNL     1      10.792 -11.418   1.146 -0.40 +0.00    +0.000    16.052
ATOM     11  C   UNL     1      11.614 -10.542   1.741 -0.27 +0.00    +0.000    16.052
ATOM     12  O   UNL     1       8.750 -10.202   1.289 -0.19 +0.00    +0.000    16.052
ATOM     13  C   UNL     1       9.324 -11.325   1.268 -0.35 +0.00    +0.000    16.052
ATOM     14  N   UNL     1       8.544 -12.518   1.367 -0.39 -0.00    +0.000    16.052
ATOM     15  O   UNL     1       7.196 -12.450   1.480 -0.38 -0.00    +0.000    16.052
ATOM     16  H   UNL     1       8.989 -13.397   1.352 -0.63 -0.00    +0.000    16.052
ATOM     17  C   UNL     1      19.452 -11.913   0.679 -0.64 -0.00    +0.000    16.052
ATOM     18  C   UNL     1      19.893 -12.389   2.066 -0.71 -0.00    +0.000    16.052
ATOM     19  O   UNL     1      21.011 -11.659   2.487 -1.55 -0.00    +0.000    16.052
ATOM     20  H   UNL     1      21.774 -11.887   1.933 -0.47 -0.00    +0.000    16.052
ATOM     21  C   UNL     1      17.464 -11.911  -0.786 -0.28 -0.00    +0.000    16.052
ATOM     22  C   UNL     1      17.282 -10.537  -1.439 -0.27 -0.00    +0.000    16.052
ATOM     23  C   UNL     1      17.914 -10.501  -2.800 -0.21 -0.00    +0.000    16.052
ATOM     24  C   UNL     1      17.244 -10.520  -4.019 -0.14 -0.00    +0.000    16.052
ATOM     25  N   UNL     1      18.113 -10.340  -5.039 -0.25 -0.00    +0.000    16.052
ATOM     26  C   UNL     1      19.324 -10.191  -4.474 -0.30 -0.00    +0.000    16.052
ATOM     27  C   UNL     1      19.243 -10.279  -3.108 -0.35 -0.00    +0.000    16.052
ATOM     28  C   UNL     1      20.367 -10.123  -2.295 -0.46 -0.00    +0.000    16.052
ATOM     29  C   UNL     1      21.601  -9.871  -2.922 -0.36 -0.00    +0.000    16.052
ATOM     30  C   UNL     1      21.684  -9.781  -4.329 -0.35 -0.00    +0.000    16.052
ATOM     31  C   UNL     1      20.533  -9.939  -5.122 -0.30 -0.00    +0.000    16.052
ATOM     32  H   UNL     1      17.903 -10.322  -6.001 -0.00 -0.00    +0.000    16.052
TER
ENDMDL
MODEL       86
USER    Run = 86
USER    Cluster Rank = 26
USER    Number of conformations in this cluster = 1
USER  
USER    RMSD from reference structure       = 19.346 A
USER  
USER    Estimated Free Energy of Binding    =   -8.95 kcal/mol  [=(1)+(2)+(3)-(4)]
USER    Estimated Inhibition Constant, Ki   =  272.99 nM (nanomolar)  [Temperature = 298.15 K]
USER    
USER    (1) Final Intermolecular Energy     =  -11.94 kcal/mol
USER        vdW + Hbond + desolv Energy     =  -11.94 kcal/mol
USER        Electrostatic Energy            =   +0.00 kcal/mol
USER    (2) Final Total Internal Energy     =   -2.49 kcal/mol
USER    (3) Torsional Free Energy           =   +2.98 kcal/mol
USER    (4) Unbound System's Energy  [=(2)] =   -2.49 kcal/mol
USER    
USER    
USER  
USER    DPF = ligand_dock.biased.dpf
USER    NEWDPF move	ligand.pdbqt
USER    NEWDPF about	0.288000 0.007000 -0.056000
USER    NEWDPF tran0	20.001274 -10.819166 -6.645925
USER    NEWDPF axisangle0	0.907594 -0.213289 -0.361636 -141.301214
USER    NEWDPF quaternion0	0.856329 -0.201241 -0.341210 -0.331328
USER    NEWDPF dihe0	17.11 -106.09 61.36 178.21 64.40 144.12 141.97 99.18 147.66 -164.88 
USER  
USER                              x       y       z    vdW   Elec        q     RMS 
ATOM      1  N   UNL     1      19.145  -9.864  -6.275 -0.20 -0.00    +0.000    19.346
ATOM      2  H   UNL     1      18.669  -9.466  -5.466 +0.00 -0.00    +0.000    19.346
ATOM      3  C   UNL     1      20.345 -10.517  -5.690 -0.38 -0.00    +0.000    19.346
ATOM      4  C   UNL     1      20.344 -10.631  -1.348 -0.47 -0.00    +0.000    19.346
ATOM      5  C   UNL     1      21.366  -9.970  -2.046 -0.51 -0.00    +0.000    19.346
ATOM      6  C   UNL     1      21.365  -9.931  -3.443 -0.45 -0.00    +0.000    19.346
ATOM      7  C   UNL     1      20.356 -10.577  -4.175 -0.41 -0.00    +0.000    19.346
ATOM      8  C   UNL     1      19.325 -11.228  -3.478 -0.32 -0.00    +0.000    19.346
ATOM      9  C   UNL     1      19.324 -11.268  -2.081 -0.27 -0.00    +0.000    19.346
ATOM     10  C   UNL     1      20.146 -11.744   0.874 -0.65 -0.00    +0.000    19.346
ATOM     11  C   UNL     1      20.397 -10.653   0.135 -0.66 -0.00    +0.000    19.346
ATOM     12  O   UNL     1      19.901 -12.750   3.018 -1.43 -0.00    +0.000    19.346
ATOM     13  C   UNL     1      20.198 -11.723   2.349 -0.77 -0.00    +0.000    19.346
ATOM     14  N   UNL     1      20.589 -10.527   3.027 -0.64 -0.00    +0.000    19.346
ATOM     15  O   UNL     1      20.642 -10.491   4.380 -0.85 -0.00    +0.000    19.346
ATOM     16  H   UNL     1      20.821  -9.723   2.508 -0.57 -0.00    +0.000    19.346
ATOM     17  C   UNL     1      18.151 -10.792  -6.863 -0.34 -0.00    +0.000    19.346
ATOM     18  C   UNL     1      16.731 -10.474  -6.387 -0.25 -0.00    +0.000    19.346
ATOM     19  O   UNL     1      16.705 -10.388  -4.989 -0.24 -0.00    +0.000    19.346
ATOM     20  H   UNL     1      17.228 -11.112  -4.611 -0.01 -0.00    +0.000    19.346
ATOM     21  C   UNL     1      19.467  -8.724  -7.165 -0.12 -0.00    +0.000    19.346
ATOM     22  C   UNL     1      20.968  -8.692  -7.474 -0.12 -0.00    +0.000    19.346
ATOM     23  C   UNL     1      21.313  -9.667  -8.563 -0.15 -0.00    +0.000    19.346
ATOM     24  C   UNL     1      20.851  -9.632  -9.874 -0.11 -0.00    +0.000    19.346
ATOM     25  N   UNL     1      21.467 -10.580 -10.617 -0.14 -0.00    +0.000    19.346
ATOM     26  C   UNL     1      22.324 -11.202  -9.790 -0.20 -0.00    +0.000    19.346
ATOM     27  C   UNL     1      22.263 -10.670  -8.527 -0.23 -0.00    +0.000    19.346
ATOM     28  C   UNL     1      23.086 -11.128  -7.497 -0.38 -0.00    +0.000    19.346
ATOM     29  C   UNL     1      23.991 -12.164  -7.791 -0.43 -0.00    +0.000    19.346
ATOM     30  C   UNL     1      24.054 -12.712  -9.091 -0.38 -0.00    +0.000    19.346
ATOM     31  C   UNL     1      23.214 -12.227 -10.110 -0.26 -0.00    +0.000    19.346
ATOM     32  H   UNL     1      21.318 -10.775 -11.570 -0.01 -0.00    +0.000    19.346
TER
ENDMDL
MODEL       59
USER    Run = 59
USER    Cluster Rank = 27
USER    Number of conformations in this cluster = 1
USER  
USER    RMSD from reference structure       = 13.309 A
USER  
USER    Estimated Free Energy of Binding    =   -8.91 kcal/mol  [=(1)+(2)+(3)-(4)]
USER    Estimated Inhibition Constant, Ki   =  296.04 nM (nanomolar)  [Temperature = 298.15 K]
USER    
USER    (1) Final Intermolecular Energy     =  -11.89 kcal/mol
USER        vdW + Hbond + desolv Energy     =  -11.89 kcal/mol
USER        Electrostatic Energy            =   +0.00 kcal/mol
USER    (2) Final Total Internal Energy     =   -3.62 kcal/mol
USER    (3) Torsional Free Energy           =   +2.98 kcal/mol
USER    (4) Unbound System's Energy  [=(2)] =   -3.62 kcal/mol
USER    
USER    
USER  
USER    DPF = ligand_dock.biased.dpf
USER    NEWDPF move	ligand.pdbqt
USER    NEWDPF about	0.288000 0.007000 -0.056000
USER    NEWDPF tran0	17.025363 -10.223272 3.425356
USER    NEWDPF axisangle0	-0.527503 -0.501384 -0.685824 163.400931
USER    NEWDPF quaternion0	-0.521979 -0.496133 -0.678642 0.144348
USER    NEWDPF dihe0	-107.27 -102.50 71.02 180.00 -123.23 -59.07 172.74 14.42 -127.67 24.36 
USER  
USER                              x       y       z    vdW   Elec        q     RMS 
ATOM      1  N   UNL     1      17.465 -11.009   2.439 -0.45 +0.00    +0.000    13.309
ATOM      2  H   UNL     1      17.725 -11.970   2.217 -0.01 +0.00    +0.000    13.309
ATOM      3  C   UNL     1      16.547 -11.153   3.599 -0.38 +0.00    +0.000    13.309
ATOM      4  C   UNL     1      14.025  -7.689   4.305 -0.29 +0.00    +0.000    13.309
ATOM      5  C   UNL     1      15.341  -7.533   3.847 -0.32 +0.00    +0.000    13.309
ATOM      6  C   UNL     1      16.152  -8.648   3.616 -0.26 +0.00    +0.000    13.309
ATOM      7  C   UNL     1      15.673  -9.943   3.867 -0.39 +0.00    +0.000    13.309
ATOM      8  C   UNL     1      14.351 -10.103   4.314 -0.36 +0.00    +0.000    13.309
ATOM      9  C   UNL     1      13.538  -8.989   4.544 -0.34 +0.00    +0.000    13.309
ATOM     10  C   UNL     1      13.277  -5.367   3.789 -0.21 +0.00    +0.000    13.309
ATOM     11  C   UNL     1      13.208  -6.472   4.545 -0.27 +0.00    +0.000    13.309
ATOM     12  O   UNL     1      12.559  -3.139   3.352 -0.66 -0.00    +0.000    13.309
ATOM     13  C   UNL     1      12.454  -4.173   4.067 -0.27 +0.00    +0.000    13.309
ATOM     14  N   UNL     1      11.531  -4.187   5.157 -0.35 +0.00    +0.000    13.309
ATOM     15  O   UNL     1      10.769  -3.100   5.425 -0.73 +0.00    +0.000    13.309
ATOM     16  H   UNL     1      11.447  -4.992   5.718 -0.02 +0.00    +0.000    13.309
ATOM     17  C   UNL     1      18.754 -10.343   2.741 -0.59 -0.00    +0.000    13.309
ATOM     18  C   UNL     1      19.915 -10.989   1.980 -0.72 -0.00    +0.000    13.309
ATOM     19  O   UNL     1      19.856 -12.382   2.115 -1.79 -0.00    +0.000    13.309
ATOM     20  H   UNL     1      20.688 -12.772   1.806 -0.59 -0.00    +0.000    13.309
ATOM     21  C   UNL     1      16.807 -10.469   1.226 -0.37 +0.00    +0.000    13.309
ATOM     22  C   UNL     1      15.904 -11.531   0.589 -0.42 +0.00    +0.000    13.309
ATOM     23  C   UNL     1      14.457 -11.154   0.721 -0.32 +0.00    +0.000    13.309
ATOM     24  C   UNL     1      13.404 -12.018   1.002 -0.39 +0.00    +0.000    13.309
ATOM     25  N   UNL     1      12.257 -11.324   1.183 -0.38 +0.00    +0.000    13.309
ATOM     26  C   UNL     1      12.581 -10.028   1.035 -0.19 +0.00    +0.000    13.309
ATOM     27  C   UNL     1      13.916  -9.882   0.756 -0.20 +0.00    +0.000    13.309
ATOM     28  C   UNL     1      14.498  -8.624   0.593 -0.23 +0.00    +0.000    13.309
ATOM     29  C   UNL     1      13.669  -7.495   0.722 -0.18 +0.00    +0.000    13.309
ATOM     30  C   UNL     1      12.295  -7.645   1.009 -0.08 +0.00    +0.000    13.309
ATOM     31  C   UNL     1      11.736  -8.926   1.171 -0.10 +0.00    +0.000    13.309
ATOM     32  H   UNL     1      11.366 -11.692   1.382 -0.04 +0.00    +0.000    13.309
TER
ENDMDL
MODEL       13
USER    Run = 13
USER    Cluster Rank = 28
USER    Number of conformations in this cluster = 2
USER  
USER    RMSD from reference structure       = 17.490 A
USER  
USER    Estimated Free Energy of Binding    =   -8.86 kcal/mol  [=(1)+(2)+(3)-(4)]
USER    Estimated Inhibition Constant, Ki   =  317.65 nM (nanomolar)  [Temperature = 298.15 K]
USER    
USER    (1) Final Intermolecular Energy     =  -11.85 kcal/mol
USER        vdW + Hbond + desolv Energy     =  -11.85 kcal/mol
USER        Electrostatic Energy            =   +0.00 kcal/mol
USER    (2) Final Total Internal Energy     =   -2.84 kcal/mol
USER    (3) Torsional Free Energy           =   +2.98 kcal/mol
USER    (4) Unbound System's Energy  [=(2)] =   -2.84 kcal/mol
USER    
USER    
USER  
USER    DPF = ligand_dock.biased.dpf
USER    NEWDPF move	ligand.pdbqt
USER    NEWDPF about	0.288000 0.007000 -0.056000
USER    NEWDPF tran0	19.933602 -10.090162 -6.663971
USER    NEWDPF axisangle0	-0.978443 0.009764 0.206288 179.930348
USER    NEWDPF quaternion0	-0.978442 0.009764 0.206288 0.000608
USER    NEWDPF dihe0	-1.83 -45.67 16.83 -153.36 -124.47 -15.18 -97.59 125.64 -44.82 141.26 
USER  
USER                              x       y       z    vdW   Elec        q     RMS 
ATOM      1  N   UNL     1      18.750  -9.760  -6.142 -0.18 -0.00    +0.000    17.490
ATOM      2  H   UNL     1      18.013 -10.091  -5.519 +0.00 -0.00    +0.000    17.490
ATOM      3  C   UNL     1      19.952 -10.508  -5.690 -0.36 -0.00    +0.000    17.490
ATOM      4  C   UNL     1      20.494 -10.717  -1.386 -0.44 -0.00    +0.000    17.490
ATOM      5  C   UNL     1      19.246 -10.993  -1.964 -0.36 -0.00    +0.000    17.490
ATOM      6  C   UNL     1      19.072 -10.928  -3.349 -0.32 -0.00    +0.000    17.490
ATOM      7  C   UNL     1      20.137 -10.558  -4.186 -0.40 -0.00    +0.000    17.490
ATOM      8  C   UNL     1      21.391 -10.295  -3.611 -0.46 -0.00    +0.000    17.490
ATOM      9  C   UNL     1      21.567 -10.359  -2.226 -0.40 -0.00    +0.000    17.490
ATOM     10  C   UNL     1      19.963 -11.668   0.856 -0.69 -0.00    +0.000    17.490
ATOM     11  C   UNL     1      20.625 -10.789   0.091 -0.68 -0.00    +0.000    17.490
ATOM     12  O   UNL     1      19.894 -12.763   2.970 -1.43 -0.00    +0.000    17.490
ATOM     13  C   UNL     1      20.111 -11.701   2.325 -0.78 -0.00    +0.000    17.490
ATOM     14  N   UNL     1      20.504 -10.518   3.023 -0.65 -0.00    +0.000    17.490
ATOM     15  O   UNL     1      20.645 -10.531   4.370 -0.89 -0.00    +0.000    17.490
ATOM     16  H   UNL     1      20.675  -9.687   2.522 -0.55 -0.00    +0.000    17.490
ATOM     17  C   UNL     1      18.268 -10.111  -7.497 -0.24 -0.00    +0.000    17.490
ATOM     18  C   UNL     1      17.298 -11.296  -7.462 -0.36 -0.00    +0.000    17.490
ATOM     19  O   UNL     1      16.964 -11.598  -6.136 -0.39 -0.00    +0.000    17.490
ATOM     20  H   UNL     1      17.763 -11.860  -5.653 -0.04 -0.00    +0.000    17.490
ATOM     21  C   UNL     1      18.846  -8.297  -5.924 -0.13 -0.00    +0.000    17.490
ATOM     22  C   UNL     1      20.272  -7.807  -6.196 -0.12 -0.00    +0.000    17.490
ATOM     23  C   UNL     1      20.529  -6.496  -5.512 -0.11 -0.00    +0.000    17.490
ATOM     24  C   UNL     1      20.431  -5.234  -6.088 -0.06 -0.00    +0.000    17.490
ATOM     25  N   UNL     1      20.598  -4.272  -5.152 -0.07 -0.00    +0.000    17.490
ATOM     26  C   UNL     1      20.784  -4.917  -3.986 -0.17 -0.00    +0.000    17.490
ATOM     27  C   UNL     1      20.745  -6.276  -4.164 -0.21 -0.00    +0.000    17.490
ATOM     28  C   UNL     1      20.880  -7.160  -3.092 -0.34 -0.00    +0.000    17.490
ATOM     29  C   UNL     1      21.061  -6.613  -1.809 -0.36 -0.00    +0.000    17.490
ATOM     30  C   UNL     1      21.102  -5.214  -1.627 -0.42 +0.00    +0.000    17.490
ATOM     31  C   UNL     1      20.959  -4.347  -2.725 -0.25 -0.00    +0.000    17.490
ATOM     32  H   UNL     1      20.585  -3.298  -5.293 +0.00 -0.00    +0.000    17.490
TER
ENDMDL
MODEL       64
USER    Run = 64
USER    Cluster Rank = 29
USER    Number of conformations in this cluster = 2
USER  
USER    RMSD from reference structure       = 21.667 A
USER  
USER    Estimated Free Energy of Binding    =   -8.84 kcal/mol  [=(1)+(2)+(3)-(4)]
USER    Estimated Inhibition Constant, Ki   =  329.59 nM (nanomolar)  [Temperature = 298.15 K]
USER    
USER    (1) Final Intermolecular Energy     =  -11.83 kcal/mol
USER        vdW + Hbond + desolv Energy     =  -11.83 kcal/mol
USER        Electrostatic Energy            =   +0.00 kcal/mol
USER    (2) Final Total Internal Energy     =   -2.38 kcal/mol
USER    (3) Torsional Free Energy           =   +2.98 kcal/mol
USER    (4) Unbound System's Energy  [=(2)] =   -2.38 kcal/mol
USER    
USER    
USER  
USER    DPF = ligand_dock.biased.dpf
USER    NEWDPF move	ligand.pdbqt
USER    NEWDPF about	0.288000 0.007000 -0.056000
USER    NEWDPF tran0	22.650591 -9.016062 -7.994704
USER    NEWDPF axisangle0	0.408817 -0.906351 -0.106756 144.022672
USER    NEWDPF quaternion0	0.388833 -0.862046 -0.101537 0.308829
USER    NEWDPF dihe0	110.18 -49.39 52.33 -105.08 -92.64 -127.79 -168.10 -167.01 175.13 140.38 
USER  
USER                              x       y       z    vdW   Elec        q     RMS 
ATOM      1  N   UNL     1      23.534  -8.432  -7.181 -0.19 -0.00    +0.000    21.667
ATOM      2  H   UNL     1      23.620  -7.751  -6.426 -0.02 -0.00    +0.000    21.667
ATOM      3  C   UNL     1      22.120  -8.880  -7.087 -0.20 -0.00    +0.000    21.667
ATOM      4  C   UNL     1      20.834  -9.785  -3.039 -0.45 -0.00    +0.000    21.667
ATOM      5  C   UNL     1      21.350 -10.793  -3.867 -0.46 -0.00    +0.000    21.667
ATOM      6  C   UNL     1      21.766 -10.501  -5.169 -0.41 -0.00    +0.000    21.667
ATOM      7  C   UNL     1      21.649  -9.200  -5.682 -0.26 -0.00    +0.000    21.667
ATOM      8  C   UNL     1      21.145  -8.186  -4.850 -0.24 -0.00    +0.000    21.667
ATOM      9  C   UNL     1      20.729  -8.475  -3.547 -0.34 -0.00    +0.000    21.667
ATOM     10  C   UNL     1      21.230 -10.558  -0.702 -0.67 -0.00    +0.000    21.667
ATOM     11  C   UNL     1      20.395 -10.148  -1.668 -0.56 -0.00    +0.000    21.667
ATOM     12  O   UNL     1      20.958 -10.156   1.629 -0.60 -0.00    +0.000    21.667
ATOM     13  C   UNL     1      20.752 -10.920   0.647 -0.70 -0.00    +0.000    21.667
ATOM     14  N   UNL     1      20.052 -12.150   0.845 -0.57 -0.00    +0.000    21.667
ATOM     15  O   UNL     1      19.608 -12.497   2.076 -1.61 -0.00    +0.000    21.667
ATOM     16  H   UNL     1      19.890 -12.750   0.080 -0.33 -0.00    +0.000    21.667
ATOM     17  C   UNL     1      23.868  -7.666  -8.404 -0.10 -0.00    +0.000    21.667
ATOM     18  C   UNL     1      24.438  -6.286  -8.067 -0.07 -0.00    +0.000    21.667
ATOM     19  O   UNL     1      24.606  -6.165  -6.682 -0.15 -0.00    +0.000    21.667
ATOM     20  H   UNL     1      25.087  -6.938  -6.346 -0.02 -0.00    +0.000    21.667
ATOM     21  C   UNL     1      24.514  -9.503  -6.884 -0.00 -0.00    +0.000    21.667
ATOM     22  C   UNL     1      25.175  -9.998  -8.175 -0.32 -0.00    +0.000    21.667
ATOM     23  C   UNL     1      26.669 -10.038  -8.031 -0.36 -0.00    +0.000    21.667
ATOM     24  C   UNL     1      27.536 -10.904  -8.689 -0.34 -0.00    +0.000    21.667
ATOM     25  N   UNL     1      28.821 -10.575  -8.429 -0.46 -0.00    +0.000    21.667
ATOM     26  C   UNL     1      28.774  -9.498  -7.626 -0.41 -0.00    +0.000    21.667
ATOM     27  C   UNL     1      27.477  -9.137  -7.363 -0.37 -0.00    +0.000    21.667
ATOM     28  C   UNL     1      27.169  -8.025  -6.577 -0.32 -0.00    +0.000    21.667
ATOM     29  C   UNL     1      28.239  -7.276  -6.054 -0.29 -0.00    +0.000    21.667
ATOM     30  C   UNL     1      29.574  -7.648  -6.324 -0.21 -0.00    +0.000    21.667
ATOM     31  C   UNL     1      29.853  -8.772  -7.122 -0.23 -0.00    +0.000    21.667
ATOM     32  H   UNL     1      29.629 -11.030  -8.760 -0.56 -0.00    +0.000    21.667
TER
ENDMDL
MODEL       14
USER    Run = 14
USER    Cluster Rank = 30
USER    Number of conformations in this cluster = 4
USER  
USER    RMSD from reference structure       = 14.149 A
USER  
USER    Estimated Free Energy of Binding    =   -8.83 kcal/mol  [=(1)+(2)+(3)-(4)]
USER    Estimated Inhibition Constant, Ki   =  335.53 nM (nanomolar)  [Temperature = 298.15 K]
USER    
USER    (1) Final Intermolecular Energy     =  -11.82 kcal/mol
USER        vdW + Hbond + desolv Energy     =  -11.82 kcal/mol
USER        Electrostatic Energy            =   +0.00 kcal/mol
USER    (2) Final Total Internal Energy     =   -2.37 kcal/mol
USER    (3) Torsional Free Energy           =   +2.98 kcal/mol
USER    (4) Unbound System's Energy  [=(2)] =   -2.37 kcal/mol
USER    
USER    
USER  
USER    DPF = ligand_dock.biased.dpf
USER    NEWDPF move	ligand.pdbqt
USER    NEWDPF about	0.288000 0.007000 -0.056000
USER    NEWDPF tran0	12.576603 -11.267562 0.841748
USER    NEWDPF axisangle0	0.994597 -0.074225 0.072582 148.383906
USER    NEWDPF quaternion0	0.956981 -0.071418 0.069837 0.272415
USER    NEWDPF dihe0	58.34 -95.90 74.13 -133.97 2.61 138.18 -75.49 170.01 -158.10 -8.27 
USER  
USER                              x       y       z    vdW   Elec        q     RMS 
ATOM      1  N   UNL     1      11.333 -10.783   0.880 -0.29 +0.00    +0.000    14.149
ATOM      2  H   UNL     1      10.351 -11.055   0.838 -0.01 +0.00    +0.000    14.149
ATOM      3  C   UNL     1      12.019 -12.019   1.340 -0.41 +0.00    +0.000    14.149
ATOM      4  C   UNL     1      16.333 -11.917   0.846 -0.42 +0.00    +0.000    14.149
ATOM      5  C   UNL     1      15.485 -11.917  -0.271 -0.40 +0.00    +0.000    14.149
ATOM      6  C   UNL     1      14.097 -11.946  -0.112 -0.40 +0.00    +0.000    14.149
ATOM      7  C   UNL     1      13.526 -12.006   1.168 -0.38 +0.00    +0.000    14.149
ATOM      8  C   UNL     1      14.372 -11.994   2.290 -0.39 +0.00    +0.000    14.149
ATOM      9  C   UNL     1      15.761 -11.963   2.133 -0.38 +0.00    +0.000    14.149
ATOM     10  C   UNL     1      18.692 -11.548   1.564 -0.60 -0.00    +0.000    14.149
ATOM     11  C   UNL     1      17.800 -11.896   0.624 -0.53 -0.00    +0.000    14.149
ATOM     12  O   UNL     1      20.955 -12.021   2.132 -1.75 -0.00    +0.000    14.149
ATOM     13  C   UNL     1      20.144 -11.530   1.300 -0.74 -0.00    +0.000    14.149
ATOM     14  N   UNL     1      20.638 -10.949   0.091 -0.61 -0.00    +0.000    14.149
ATOM     15  O   UNL     1      21.967 -10.925  -0.165 -0.72 -0.00    +0.000    14.149
ATOM     16  H   UNL     1      20.007 -10.565  -0.561 -0.01 -0.00    +0.000    14.149
ATOM     17  C   UNL     1      11.656 -10.367  -0.504 -0.26 +0.00    +0.000    14.149
ATOM     18  C   UNL     1      10.443  -9.750  -1.206 -0.18 -0.00    +0.000    14.149
ATOM     19  O   UNL     1       9.290 -10.482  -0.895 -0.21 -0.00    +0.000    14.149
ATOM     20  H   UNL     1       9.527 -11.232  -0.329 -0.02 +0.00    +0.000    14.149
ATOM     21  C   UNL     1      11.409  -9.667   1.852 -0.19 +0.00    +0.000    14.149
ATOM     22  C   UNL     1      12.746  -8.930   1.718 -0.16 +0.00    +0.000    14.149
ATOM     23  C   UNL     1      13.330  -8.629   3.068 -0.19 +0.00    +0.000    14.149
ATOM     24  C   UNL     1      13.619  -9.555   4.064 -0.30 +0.00    +0.000    14.149
ATOM     25  N   UNL     1      14.259  -8.958   5.095 -0.44 +0.00    +0.000    14.149
ATOM     26  C   UNL     1      14.391  -7.665   4.750 -0.36 +0.00    +0.000    14.149
ATOM     27  C   UNL     1      13.840  -7.425   3.517 -0.21 +0.00    +0.000    14.149
ATOM     28  C   UNL     1      13.883  -6.161   2.927 -0.19 +0.00    +0.000    14.149
ATOM     29  C   UNL     1      14.514  -5.125   3.640 -0.26 +0.00    +0.000    14.149
ATOM     30  C   UNL     1      15.081  -5.372   4.910 -0.41 +0.00    +0.000    14.149
ATOM     31  C   UNL     1      15.025  -6.658   5.477 -0.36 +0.00    +0.000    14.149
ATOM     32  H   UNL     1      14.566  -9.382   5.928 -0.04 +0.00    +0.000    14.149
TER
ENDMDL
MODEL       48
USER    Run = 48
USER    Cluster Rank = 31
USER    Number of conformations in this cluster = 1
USER  
USER    RMSD from reference structure       = 15.829 A
USER  
USER    Estimated Free Energy of Binding    =   -8.71 kcal/mol  [=(1)+(2)+(3)-(4)]
USER    Estimated Inhibition Constant, Ki   =  409.16 nM (nanomolar)  [Temperature = 298.15 K]
USER    
USER    (1) Final Intermolecular Energy     =  -11.70 kcal/mol
USER        vdW + Hbond + desolv Energy     =  -11.70 kcal/mol
USER        Electrostatic Energy            =   +0.00 kcal/mol
USER    (2) Final Total Internal Energy     =   -2.12 kcal/mol
USER    (3) Torsional Free Energy           =   +2.98 kcal/mol
USER    (4) Unbound System's Energy  [=(2)] =   -2.12 kcal/mol
USER    
USER    
USER  
USER    DPF = ligand_dock.biased.dpf
USER    NEWDPF move	ligand.pdbqt
USER    NEWDPF about	0.288000 0.007000 -0.056000
USER    NEWDPF tran0	17.247434 -11.825182 2.120511
USER    NEWDPF axisangle0	-0.625856 0.241038 0.741758 107.161198
USER    NEWDPF quaternion0	-0.503622 0.193961 0.596888 0.593691
USER    NEWDPF dihe0	-12.40 -18.50 58.23 -28.42 6.18 157.57 -161.90 176.08 12.98 90.55 
USER  
USER                              x       y       z    vdW   Elec        q     RMS 
ATOM      1  N   UNL     1      16.814 -10.583   2.350 -0.41 +0.00    +0.000    15.829
ATOM      2  H   UNL     1      17.025  -9.729   2.866 -0.02 +0.00    +0.000    15.829
ATOM      3  C   UNL     1      18.134 -11.255   2.231 -0.52 +0.00    +0.000    15.829
ATOM      4  C   UNL     1      20.276 -10.526  -1.476 -0.48 -0.00    +0.000    15.829
ATOM      5  C   UNL     1      20.678  -9.905  -0.284 -0.58 -0.00    +0.000    15.829
ATOM      6  C   UNL     1      19.990 -10.142   0.910 -0.49 -0.00    +0.000    15.829
ATOM      7  C   UNL     1      18.867 -10.984   0.932 -0.49 -0.00    +0.000    15.829
ATOM      8  C   UNL     1      18.471 -11.617  -0.257 -0.45 -0.00    +0.000    15.829
ATOM      9  C   UNL     1      19.158 -11.382  -1.452 -0.28 -0.00    +0.000    15.829
ATOM     10  C   UNL     1      20.932 -10.959  -3.841 -0.48 -0.00    +0.000    15.829
ATOM     11  C   UNL     1      21.032 -10.233  -2.719 -0.55 -0.00    +0.000    15.829
ATOM     12  O   UNL     1      22.046  -9.452  -5.311 -0.37 -0.00    +0.000    15.829
ATOM     13  C   UNL     1      21.710 -10.641  -5.055 -0.49 -0.00    +0.000    15.829
ATOM     14  N   UNL     1      22.085 -11.689  -5.952 -0.52 -0.00    +0.000    15.829
ATOM     15  O   UNL     1      22.798 -11.414  -7.070 -0.49 -0.00    +0.000    15.829
ATOM     16  H   UNL     1      21.823 -12.618  -5.755 -0.53 -0.00    +0.000    15.829
ATOM     17  C   UNL     1      15.827 -11.288   3.200 -0.52 +0.00    +0.000    15.829
ATOM     18  C   UNL     1      15.219 -10.356   4.251 -0.50 +0.00    +0.000    15.829
ATOM     19  O   UNL     1      15.056  -9.073   3.713 -0.39 +0.00    +0.000    15.829
ATOM     20  H   UNL     1      15.923  -8.648   3.623 -0.02 +0.00    +0.000    15.829
ATOM     21  C   UNL     1      16.252 -10.151   1.049 -0.33 +0.00    +0.000    15.829
ATOM     22  C   UNL     1      15.424 -11.277   0.421 -0.38 +0.00    +0.000    15.829
ATOM     23  C   UNL     1      14.145 -10.744  -0.157 -0.27 +0.00    +0.000    15.829
ATOM     24  C   UNL     1      14.011 -10.039  -1.348 -0.23 -0.00    +0.000    15.829
ATOM     25  N   UNL     1      12.705  -9.831  -1.631 -0.21 -0.00    +0.000    15.829
ATOM     26  C   UNL     1      12.012 -10.412  -0.636 -0.24 +0.00    +0.000    15.829
ATOM     27  C   UNL     1      12.856 -10.984   0.282 -0.31 +0.00    +0.000    15.829
ATOM     28  C   UNL     1      12.371 -11.678   1.392 -0.40 +0.00    +0.000    15.829
ATOM     29  C   UNL     1      10.976 -11.776   1.546 -0.32 +0.00    +0.000    15.829
ATOM     30  C   UNL     1      10.108 -11.187   0.601 -0.30 +0.00    +0.000    15.829
ATOM     31  C   UNL     1      10.626 -10.496  -0.509 -0.17 +0.00    +0.000    15.829
ATOM     32  H   UNL     1      12.335  -9.352  -2.407 -0.00 -0.00    +0.000    15.829
TER
ENDMDL
MODEL       24
USER    Run = 24
USER    Cluster Rank = 32
USER    Number of conformations in this cluster = 1
USER  
USER    RMSD from reference structure       = 14.901 A
USER  
USER    Estimated Free Energy of Binding    =   -8.71 kcal/mol  [=(1)+(2)+(3)-(4)]
USER    Estimated Inhibition Constant, Ki   =  409.96 nM (nanomolar)  [Temperature = 298.15 K]
USER    
USER    (1) Final Intermolecular Energy     =  -11.70 kcal/mol
USER        vdW + Hbond + desolv Energy     =  -11.70 kcal/mol
USER        Electrostatic Energy            =   +0.00 kcal/mol
USER    (2) Final Total Internal Energy     =   -2.36 kcal/mol
USER    (3) Torsional Free Energy           =   +2.98 kcal/mol
USER    (4) Unbound System's Energy  [=(2)] =   -2.36 kcal/mol
USER    
USER    
USER  
USER    DPF = ligand_dock.biased.dpf
USER    NEWDPF move	ligand.pdbqt
USER    NEWDPF about	0.288000 0.007000 -0.056000
USER    NEWDPF tran0	13.476571 -8.287603 3.358556
USER    NEWDPF axisangle0	-0.145493 0.492396 0.858124 -105.922373
USER    NEWDPF quaternion0	-0.116136 0.393044 0.684979 -0.602356
USER    NEWDPF dihe0	-94.72 -153.83 -154.93 -179.54 -126.31 -2.20 -148.88 -17.16 -179.47 86.51 
USER  
USER                              x       y       z    vdW   Elec        q     RMS 
ATOM      1  N   UNL     1      14.078  -9.252   4.060 -0.34 +0.00    +0.000    14.901
ATOM      2  H   UNL     1      13.901 -10.099   4.599 -0.03 +0.00    +0.000    14.901
ATOM      3  C   UNL     1      12.898  -9.154   3.162 -0.24 +0.00    +0.000    14.901
ATOM      4  C   UNL     1      13.639 -10.601  -0.865 -0.26 +0.00    +0.000    14.901
ATOM      5  C   UNL     1      13.918  -9.270  -0.521 -0.19 -0.00    +0.000    14.901
ATOM      6  C   UNL     1      13.682  -8.805   0.775 -0.17 +0.00    +0.000    14.901
ATOM      7  C   UNL     1      13.135  -9.654   1.750 -0.19 +0.00    +0.000    14.901
ATOM      8  C   UNL     1      12.866 -10.990   1.412 -0.33 +0.00    +0.000    14.901
ATOM      9  C   UNL     1      13.102 -11.458   0.116 -0.35 +0.00    +0.000    14.901
ATOM     10  C   UNL     1      14.890 -10.566  -3.021 -0.29 -0.00    +0.000    14.901
ATOM     11  C   UNL     1      13.896 -11.044  -2.259 -0.33 -0.00    +0.000    14.901
ATOM     12  O   UNL     1      16.043 -10.545  -5.104 -0.24 -0.00    +0.000    14.901
ATOM     13  C   UNL     1      15.107 -11.025  -4.407 -0.26 -0.00    +0.000    14.901
ATOM     14  N   UNL     1      14.249 -12.021  -4.967 -0.29 -0.00    +0.000    14.901
ATOM     15  O   UNL     1      14.434 -12.452  -6.237 -0.38 -0.00    +0.000    14.901
ATOM     16  H   UNL     1      13.517 -12.397  -4.425 -0.44 -0.00    +0.000    14.901
ATOM     17  C   UNL     1      14.177  -8.184   5.082 -0.44 +0.00    +0.000    14.901
ATOM     18  C   UNL     1      14.851  -6.928   4.521 -0.43 +0.00    +0.000    14.901
ATOM     19  O   UNL     1      16.200  -6.904   4.897 -0.47 +0.00    +0.000    14.901
ATOM     20  H   UNL     1      16.518  -5.988   4.903 -0.62 -0.00    +0.000    14.901
ATOM     21  C   UNL     1      15.352  -9.482   3.339 -0.42 +0.00    +0.000    14.901
ATOM     22  C   UNL     1      15.805 -10.937   3.500 -0.54 +0.00    +0.000    14.901
ATOM     23  C   UNL     1      16.586 -11.391   2.302 -0.35 +0.00    +0.000    14.901
ATOM     24  C   UNL     1      16.057 -11.875   1.110 -0.41 +0.00    +0.000    14.901
ATOM     25  N   UNL     1      17.039 -12.064   0.199 -0.44 +0.00    +0.000    14.901
ATOM     26  C   UNL     1      18.181 -11.688   0.800 -0.48 -0.00    +0.000    14.901
ATOM     27  C   UNL     1      17.946 -11.267   2.084 -0.44 +0.00    +0.000    14.901
ATOM     28  C   UNL     1      18.974 -10.794   2.902 -0.56 -0.00    +0.000    14.901
ATOM     29  C   UNL     1      20.275 -10.762   2.367 -0.61 -0.00    +0.000    14.901
ATOM     30  C   UNL     1      20.517 -11.196   1.045 -0.65 -0.00    +0.000    14.901
ATOM     31  C   UNL     1      19.460 -11.664   0.244 -0.53 -0.00    +0.000    14.901
ATOM     32  H   UNL     1      16.938 -12.406  -0.718 -0.01 +0.00    +0.000    14.901
TER
ENDMDL
MODEL       84
USER    Run = 84
USER    Cluster Rank = 33
USER    Number of conformations in this cluster = 2
USER  
USER    RMSD from reference structure       = 17.217 A
USER  
USER    Estimated Free Energy of Binding    =   -8.56 kcal/mol  [=(1)+(2)+(3)-(4)]
USER    Estimated Inhibition Constant, Ki   =  529.81 nM (nanomolar)  [Temperature = 298.15 K]
USER    
USER    (1) Final Intermolecular Energy     =  -11.54 kcal/mol
USER        vdW + Hbond + desolv Energy     =  -11.54 kcal/mol
USER        Electrostatic Energy            =   +0.00 kcal/mol
USER    (2) Final Total Internal Energy     =   -2.95 kcal/mol
USER    (3) Torsional Free Energy           =   +2.98 kcal/mol
USER    (4) Unbound System's Energy  [=(2)] =   -2.95 kcal/mol
USER    
USER    
USER  
USER    DPF = ligand_dock.biased.dpf
USER    NEWDPF move	ligand.pdbqt
USER    NEWDPF about	0.288000 0.007000 -0.056000
USER    NEWDPF tran0	21.170348 -7.903973 -5.207642
USER    NEWDPF axisangle0	-0.815256 -0.500867 -0.290671 -113.652250
USER    NEWDPF quaternion0	-0.682381 -0.419233 -0.243296 -0.547182
USER    NEWDPF dihe0	154.83 -50.07 19.75 -158.71 154.54 -179.39 -114.92 14.05 26.75 55.78 
USER  
USER                              x       y       z    vdW   Elec        q     RMS 
ATOM      1  N   UNL     1      20.225  -8.286  -6.070 -0.12 -0.00    +0.000    17.217
ATOM      2  H   UNL     1      20.065  -8.844  -6.909 +0.01 -0.00    +0.000    17.217
ATOM      3  C   UNL     1      21.443  -8.893  -5.473 -0.28 -0.00    +0.000    17.217
ATOM      4  C   UNL     1      21.175  -9.829  -1.241 -0.58 -0.00    +0.000    17.217
ATOM      5  C   UNL     1      21.407 -10.841  -2.183 -0.31 -0.00    +0.000    17.217
ATOM      6  C   UNL     1      21.496 -10.540  -3.545 -0.45 -0.00    +0.000    17.217
ATOM      7  C   UNL     1      21.327  -9.222  -3.998 -0.36 -0.00    +0.000    17.217
ATOM      8  C   UNL     1      21.107  -8.204  -3.055 -0.38 -0.00    +0.000    17.217
ATOM      9  C   UNL     1      21.019  -8.503  -1.692 -0.46 -0.00    +0.000    17.217
ATOM     10  C   UNL     1      20.354 -11.235   0.647 -0.70 -0.00    +0.000    17.217
ATOM     11  C   UNL     1      21.078 -10.202   0.193 -0.69 -0.00    +0.000    17.217
ATOM     12  O   UNL     1      19.919 -12.719   2.458 -1.55 -0.00    +0.000    17.217
ATOM     13  C   UNL     1      20.274 -11.568   2.083 -0.78 -0.00    +0.000    17.217
ATOM     14  N   UNL     1      20.601 -10.576   3.059 -0.64 -0.00    +0.000    17.217
ATOM     15  O   UNL     1      20.532 -10.866   4.380 -0.91 -0.00    +0.000    17.217
ATOM     16  H   UNL     1      20.878  -9.677   2.770 -0.59 -0.00    +0.000    17.217
ATOM     17  C   UNL     1      20.399  -6.905  -6.578 -0.08 -0.00    +0.000    17.217
ATOM     18  C   UNL     1      20.828  -6.894  -8.048 -0.04 -0.00    +0.000    17.217
ATOM     19  O   UNL     1      20.836  -8.202  -8.551 -0.06 -0.00    +0.000    17.217
ATOM     20  H   UNL     1      19.989  -8.385  -8.986 +0.00 -0.00    +0.000    17.217
ATOM     21  C   UNL     1      19.014  -8.444  -5.232 -0.18 -0.00    +0.000    17.217
ATOM     22  C   UNL     1      18.509  -9.890  -5.287 -0.25 -0.00    +0.000    17.217
ATOM     23  C   UNL     1      17.227 -10.040  -4.519 -0.22 -0.00    +0.000    17.217
ATOM     24  C   UNL     1      15.944 -10.059  -5.056 -0.18 -0.00    +0.000    17.217
ATOM     25  N   UNL     1      15.035 -10.345  -4.097 -0.21 -0.00    +0.000    17.217
ATOM     26  C   UNL     1      15.734 -10.521  -2.962 -0.22 -0.00    +0.000    17.217
ATOM     27  C   UNL     1      17.077 -10.347  -3.180 -0.15 -0.00    +0.000    17.217
ATOM     28  C   UNL     1      18.013 -10.512  -2.158 -0.24 -0.00    +0.000    17.217
ATOM     29  C   UNL     1      17.537 -10.864  -0.882 -0.31 -0.00    +0.000    17.217
ATOM     30  C   UNL     1      16.155 -11.043  -0.658 -0.30 +0.00    +0.000    17.217
ATOM     31  C   UNL     1      15.235 -10.874  -1.708 -0.28 -0.00    +0.000    17.217
ATOM     32  H   UNL     1      14.059 -10.411  -4.206 -0.01 -0.00    +0.000    17.217
TER
ENDMDL
MODEL       44
USER    Run = 44
USER    Cluster Rank = 34
USER    Number of conformations in this cluster = 1
USER  
USER    RMSD from reference structure       = 16.078 A
USER  
USER    Estimated Free Energy of Binding    =   -8.47 kcal/mol  [=(1)+(2)+(3)-(4)]
USER    Estimated Inhibition Constant, Ki   =  623.10 nM (nanomolar)  [Temperature = 298.15 K]
USER    
USER    (1) Final Intermolecular Energy     =  -11.45 kcal/mol
USER        vdW + Hbond + desolv Energy     =  -11.45 kcal/mol
USER        Electrostatic Energy            =   +0.00 kcal/mol
USER    (2) Final Total Internal Energy     =   -2.29 kcal/mol
USER    (3) Torsional Free Energy           =   +2.98 kcal/mol
USER    (4) Unbound System's Energy  [=(2)] =   -2.29 kcal/mol
USER    
USER    
USER  
USER    DPF = ligand_dock.biased.dpf
USER    NEWDPF move	ligand.pdbqt
USER    NEWDPF about	0.288000 0.007000 -0.056000
USER    NEWDPF tran0	14.575186 -10.484926 2.522839
USER    NEWDPF axisangle0	0.083648 -0.433429 -0.897297 131.863945
USER    NEWDPF quaternion0	0.076376 -0.395747 -0.819288 0.407821
USER    NEWDPF dihe0	126.72 -138.51 -115.26 99.95 -54.42 -161.02 -97.20 -14.36 174.73 72.72 
USER  
USER                              x       y       z    vdW   Elec        q     RMS 
ATOM      1  N   UNL     1      15.650 -11.166   2.927 -0.47 +0.00    +0.000    16.078
ATOM      2  H   UNL     1      15.945 -12.042   3.358 -0.05 +0.00    +0.000    16.078
ATOM      3  C   UNL     1      14.331 -11.498   2.327 -0.47 +0.00    +0.000    16.078
ATOM      4  C   UNL     1      14.302 -11.377  -2.014 -0.32 -0.00    +0.000    16.078
ATOM      5  C   UNL     1      13.938 -10.248  -1.264 -0.24 -0.00    +0.000    16.078
ATOM      6  C   UNL     1      13.950 -10.286   0.132 -0.22 +0.00    +0.000    16.078
ATOM      7  C   UNL     1      14.299 -11.463   0.812 -0.37 +0.00    +0.000    16.078
ATOM      8  C   UNL     1      14.677 -12.591   0.064 -0.44 +0.00    +0.000    16.078
ATOM      9  C   UNL     1      14.666 -12.555  -1.333 -0.32 +0.00    +0.000    16.078
ATOM     10  C   UNL     1      15.354 -11.181  -4.265 -0.15 -0.00    +0.000    16.078
ATOM     11  C   UNL     1      14.262 -11.289  -3.495 -0.31 -0.00    +0.000    16.078
ATOM     12  O   UNL     1      15.344  -9.966  -6.313 -0.14 -0.00    +0.000    16.078
ATOM     13  C   UNL     1      15.272 -11.085  -5.736 -0.27 -0.00    +0.000    16.078
ATOM     14  N   UNL     1      15.106 -12.272  -6.515 -0.32 -0.00    +0.000    16.078
ATOM     15  O   UNL     1      15.029 -12.202  -7.865 -0.32 -0.00    +0.000    16.078
ATOM     16  H   UNL     1      15.049 -13.148  -6.068 -0.03 -0.00    +0.000    16.078
ATOM     17  C   UNL     1      15.602 -10.203   4.051 -0.47 +0.00    +0.000    16.078
ATOM     18  C   UNL     1      14.682  -9.019   3.742 -0.38 +0.00    +0.000    16.078
ATOM     19  O   UNL     1      15.379  -8.057   3.000 -0.39 +0.00    +0.000    16.078
ATOM     20  H   UNL     1      15.597  -8.418   2.127 -0.02 +0.00    +0.000    16.078
ATOM     21  C   UNL     1      16.688 -10.832   1.924 -0.44 +0.00    +0.000    16.078
ATOM     22  C   UNL     1      17.634 -12.019   1.714 -0.31 +0.00    +0.000    16.078
ATOM     23  C   UNL     1      18.946 -11.565   1.144 -0.54 -0.00    +0.000    16.078
ATOM     24  C   UNL     1      20.192 -11.683   1.750 -0.69 -0.00    +0.000    16.078
ATOM     25  N   UNL     1      21.171 -11.295   0.901 -0.59 -0.00    +0.000    16.078
ATOM     26  C   UNL     1      20.554 -10.947  -0.242 -0.53 -0.00    +0.000    16.078
ATOM     27  C   UNL     1      19.196 -11.102  -0.135 -0.47 -0.00    +0.000    16.078
ATOM     28  C   UNL     1      18.340 -10.836  -1.206 -0.34 -0.00    +0.000    16.078
ATOM     29  C   UNL     1      18.916 -10.398  -2.412 -0.31 -0.00    +0.000    16.078
ATOM     30  C   UNL     1      20.315 -10.239  -2.522 -0.45 -0.00    +0.000    16.078
ATOM     31  C   UNL     1      21.152 -10.518  -1.427 -0.55 -0.00    +0.000    16.078
ATOM     32  H   UNL     1      22.138 -11.271   1.082 -0.51 -0.00    +0.000    16.078
TER
ENDMDL
MODEL      100
USER    Run = 100
USER    Cluster Rank = 35
USER    Number of conformations in this cluster = 1
USER  
USER    RMSD from reference structure       = 12.797 A
USER  
USER    Estimated Free Energy of Binding    =   -8.39 kcal/mol  [=(1)+(2)+(3)-(4)]
USER    Estimated Inhibition Constant, Ki   =  712.53 nM (nanomolar)  [Temperature = 298.15 K]
USER    
USER    (1) Final Intermolecular Energy     =  -11.37 kcal/mol
USER        vdW + Hbond + desolv Energy     =  -11.37 kcal/mol
USER        Electrostatic Energy            =   +0.00 kcal/mol
USER    (2) Final Total Internal Energy     =   -2.26 kcal/mol
USER    (3) Torsional Free Energy           =   +2.98 kcal/mol
USER    (4) Unbound System's Energy  [=(2)] =   -2.26 kcal/mol
USER    
USER    
USER  
USER    DPF = ligand_dock.biased.dpf
USER    NEWDPF move	ligand.pdbqt
USER    NEWDPF about	0.288000 0.007000 -0.056000
USER    NEWDPF tran0	12.602034 -8.192465 3.155592
USER    NEWDPF axisangle0	0.953067 0.169181 0.251079 159.939581
USER    NEWDPF quaternion0	0.938501 0.166595 0.247241 0.174167
USER    NEWDPF dihe0	-41.71 64.27 -154.82 -76.67 163.83 -179.93 174.16 97.60 33.85 -70.67 
USER  
USER                              x       y       z    vdW   Elec        q     RMS 
ATOM      1  N   UNL     1      11.412  -8.217   2.551 -0.10 +0.00    +0.000    12.797
ATOM      2  H   UNL     1      10.684  -8.845   2.209 +0.00 +0.00    +0.000    12.797
ATOM      3  C   UNL     1      12.102  -9.017   3.596 -0.19 +0.00    +0.000    12.797
ATOM      4  C   UNL     1      15.919 -10.720   2.415 -0.39 +0.00    +0.000    12.797
ATOM      5  C   UNL     1      15.815  -9.932   3.572 -0.41 +0.00    +0.000    12.797
ATOM      6  C   UNL     1      14.586  -9.387   3.953 -0.36 +0.00    +0.000    12.797
ATOM      7  C   UNL     1      13.439  -9.593   3.170 -0.25 +0.00    +0.000    12.797
ATOM      8  C   UNL     1      13.538 -10.392   2.019 -0.27 +0.00    +0.000    12.797
ATOM      9  C   UNL     1      14.766 -10.940   1.636 -0.34 +0.00    +0.000    12.797
ATOM     10  C   UNL     1      18.402 -10.603   2.216 -0.56 -0.00    +0.000    12.797
ATOM     11  C   UNL     1      17.249 -11.267   2.047 -0.46 +0.00    +0.000    12.797
ATOM     12  O   UNL     1      20.270 -12.041   2.554 -1.96 -0.00    +0.000    12.797
ATOM     13  C   UNL     1      19.704 -11.179   1.827 -0.70 -0.00    +0.000    12.797
ATOM     14  N   UNL     1      20.333 -10.754   0.616 -0.60 -0.00    +0.000    12.797
ATOM     15  O   UNL     1      21.528 -11.272   0.246 -0.72 -0.00    +0.000    12.797
ATOM     16  H   UNL     1      19.895 -10.081   0.047 -0.02 -0.00    +0.000    12.797
ATOM     17  C   UNL     1      12.228  -7.917   1.352 -0.10 +0.00    +0.000    12.797
ATOM     18  C   UNL     1      13.105  -6.679   1.562 -0.15 +0.00    +0.000    12.797
ATOM     19  O   UNL     1      14.456  -7.028   1.441 -0.28 +0.00    +0.000    12.797
ATOM     20  H   UNL     1      14.851  -7.101   2.324 -0.02 +0.00    +0.000    12.797
ATOM     21  C   UNL     1      10.710  -7.026   3.085 -0.07 +0.00    +0.000    12.797
ATOM     22  C   UNL     1      11.085  -6.797   4.553 -0.18 +0.00    +0.000    12.797
ATOM     23  C   UNL     1      11.874  -5.530   4.713 -0.20 +0.00    +0.000    12.797
ATOM     24  C   UNL     1      11.376  -4.296   5.118 -0.31 +0.00    +0.000    12.797
ATOM     25  N   UNL     1      12.385  -3.410   5.284 -0.30 +0.00    +0.000    12.797
ATOM     26  C   UNL     1      13.517  -4.079   5.003 -0.31 +0.00    +0.000    12.797
ATOM     27  C   UNL     1      13.247  -5.378   4.654 -0.25 +0.00    +0.000    12.797
ATOM     28  C   UNL     1      14.266  -6.282   4.351 -0.30 +0.00    +0.000    12.797
ATOM     29  C   UNL     1      15.593  -5.820   4.411 -0.30 +0.00    +0.000    12.797
ATOM     30  C   UNL     1      15.870  -4.483   4.770 -0.41 -0.00    +0.000    12.797
ATOM     31  C   UNL     1      14.823  -3.595   5.074 -0.39 -0.00    +0.000    12.797
ATOM     32  H   UNL     1      12.307  -2.467   5.556 -0.48 +0.00    +0.000    12.797
TER
ENDMDL
MODEL       93
USER    Run = 93
USER    Cluster Rank = 36
USER    Number of conformations in this cluster = 1
USER  
USER    RMSD from reference structure       = 14.594 A
USER  
USER    Estimated Free Energy of Binding    =   -8.02 kcal/mol  [=(1)+(2)+(3)-(4)]
USER    Estimated Inhibition Constant, Ki   =    1.32 uM (micromolar)  [Temperature = 298.15 K]
USER    
USER    (1) Final Intermolecular Energy     =  -11.00 kcal/mol
USER        vdW + Hbond + desolv Energy     =  -11.00 kcal/mol
USER        Electrostatic Energy            =   +0.00 kcal/mol
USER    (2) Final Total Internal Energy     =   -3.40 kcal/mol
USER    (3) Torsional Free Energy           =   +2.98 kcal/mol
USER    (4) Unbound System's Energy  [=(2)] =   -3.40 kcal/mol
USER    
USER    
USER  
USER    DPF = ligand_dock.biased.dpf
USER    NEWDPF move	ligand.pdbqt
USER    NEWDPF about	0.288000 0.007000 -0.056000
USER    NEWDPF tran0	17.964757 -12.377027 2.128429
USER    NEWDPF axisangle0	0.245801 -0.261808 0.933295 99.187748
USER    NEWDPF quaternion0	0.187170 -0.199358 0.710675 0.648201
USER    NEWDPF dihe0	-12.67 -136.46 -11.50 144.88 140.78 -52.10 171.94 -33.63 -18.02 122.14 
USER  
USER                              x       y       z    vdW   Elec        q     RMS 
ATOM      1  N   UNL     1      17.824 -11.058   2.280 -0.46 +0.00    +0.000    14.594
ATOM      2  H   UNL     1      18.057 -10.159   1.858 -0.02 -0.00    +0.000    14.594
ATOM      3  C   UNL     1      17.883 -12.008   1.138 -0.54 +0.00    +0.000    14.594
ATOM      4  C   UNL     1      14.983 -11.315  -2.020 -0.28 -0.00    +0.000    14.594
ATOM      5  C   UNL     1      16.096 -10.473  -1.874 -0.26 -0.00    +0.000    14.594
ATOM      6  C   UNL     1      17.031 -10.698  -0.859 -0.27 -0.00    +0.000    14.594
ATOM      7  C   UNL     1      16.858 -11.753   0.050 -0.40 +0.00    +0.000    14.594
ATOM      8  C   UNL     1      15.752 -12.605  -0.102 -0.49 +0.00    +0.000    14.594
ATOM      9  C   UNL     1      14.816 -12.383  -1.117 -0.39 +0.00    +0.000    14.594
ATOM     10  C   UNL     1      13.328  -9.880  -3.210 -0.22 -0.00    +0.000    14.594
ATOM     11  C   UNL     1      14.014 -11.027  -3.107 -0.29 -0.00    +0.000    14.594
ATOM     12  O   UNL     1      11.303  -8.987  -4.089 -0.13 -0.00    +0.000    14.594
ATOM     13  C   UNL     1      12.364  -9.636  -4.301 -0.12 -0.00    +0.000    14.594
ATOM     14  N   UNL     1      12.633 -10.142  -5.610 -0.14 -0.00    +0.000    14.594
ATOM     15  O   UNL     1      11.758  -9.927  -6.621 -0.10 -0.00    +0.000    14.594
ATOM     16  H   UNL     1      13.460 -10.649  -5.779 -0.00 -0.00    +0.000    14.594
ATOM     17  C   UNL     1      18.864 -11.257   3.315 -0.55 -0.00    +0.000    14.594
ATOM     18  C   UNL     1      20.274 -11.132   2.729 -0.73 -0.00    +0.000    14.594
ATOM     19  O   UNL     1      20.644 -12.337   2.119 -1.86 -0.00    +0.000    14.594
ATOM     20  H   UNL     1      20.832 -13.000   2.802 -0.61 -0.00    +0.000    14.594
ATOM     21  C   UNL     1      16.465 -10.903   2.850 -0.50 +0.00    +0.000    14.594
ATOM     22  C   UNL     1      16.017  -9.439   2.780 -0.41 +0.00    +0.000    14.594
ATOM     23  C   UNL     1      14.905  -9.266   1.786 -0.26 +0.00    +0.000    14.594
ATOM     24  C   UNL     1      14.818  -8.276   0.813 -0.22 +0.00    +0.000    14.594
ATOM     25  N   UNL     1      13.756  -8.497   0.006 -0.18 -0.00    +0.000    14.594
ATOM     26  C   UNL     1      13.180  -9.628   0.451 -0.16 +0.00    +0.000    14.594
ATOM     27  C   UNL     1      13.855 -10.130   1.535 -0.23 +0.00    +0.000    14.594
ATOM     28  C   UNL     1      13.467 -11.319   2.155 -0.36 +0.00    +0.000    14.594
ATOM     29  C   UNL     1      12.350 -11.996   1.633 -0.26 +0.00    +0.000    14.594
ATOM     30  C   UNL     1      11.656 -11.480   0.518 -0.35 +0.00    +0.000    14.594
ATOM     31  C   UNL     1      12.072 -10.281  -0.088 -0.23 +0.00    +0.000    14.594
ATOM     32  H   UNL     1      13.463  -7.944  -0.754 -0.00 -0.00    +0.000    14.594
TER
ENDMDL
MODEL       99
USER    Run = 99
USER    Cluster Rank = 37
USER    Number of conformations in this cluster = 1
USER  
USER    RMSD from reference structure       = 15.873 A
USER  
USER    Estimated Free Energy of Binding    =   -7.91 kcal/mol  [=(1)+(2)+(3)-(4)]
USER    Estimated Inhibition Constant, Ki   =    1.60 uM (micromolar)  [Temperature = 298.15 K]
USER    
USER    (1) Final Intermolecular Energy     =  -10.89 kcal/mol
USER        vdW + Hbond + desolv Energy     =  -10.89 kcal/mol
USER        Electrostatic Energy            =   +0.00 kcal/mol
USER    (2) Final Total Internal Energy     =   -3.48 kcal/mol
USER    (3) Torsional Free Energy           =   +2.98 kcal/mol
USER    (4) Unbound System's Energy  [=(2)] =   -3.48 kcal/mol
USER    
USER    
USER  
USER    DPF = ligand_dock.biased.dpf
USER    NEWDPF move	ligand.pdbqt
USER    NEWDPF about	0.288000 0.007000 -0.056000
USER    NEWDPF tran0	16.996717 -10.204489 3.945607
USER    NEWDPF axisangle0	0.591372 0.740573 0.319110 68.923277
USER    NEWDPF quaternion0	0.334630 0.419056 0.180570 0.824505
USER    NEWDPF dihe0	-72.64 -48.08 36.18 179.94 179.14 138.17 113.04 -51.39 -82.38 179.93 
USER  
USER                              x       y       z    vdW   Elec        q     RMS 
ATOM      1  N   UNL     1      16.061 -10.398   3.013 -0.42 +0.00    +0.000    15.873
ATOM      2  H   UNL     1      15.882 -10.327   2.011 +0.00 +0.00    +0.000    15.873
ATOM      3  C   UNL     1      17.539 -10.531   3.095 -0.46 +0.00    +0.000    15.873
ATOM      4  C   UNL     1      19.553 -10.850  -0.739 -0.46 -0.00    +0.000    15.873
ATOM      5  C   UNL     1      18.191 -10.522  -0.672 -0.23 -0.00    +0.000    15.873
ATOM      6  C   UNL     1      17.543 -10.417   0.562 -0.13 -0.00    +0.000    15.873
ATOM      7  C   UNL     1      18.238 -10.665   1.756 -0.45 -0.00    +0.000    15.873
ATOM      8  C   UNL     1      19.605 -10.980   1.693 -0.60 -0.00    +0.000    15.873
ATOM      9  C   UNL     1      20.255 -11.085   0.460 -0.60 -0.00    +0.000    15.873
ATOM     10  C   UNL     1      19.513 -11.181  -3.210 -0.42 -0.00    +0.000    15.873
ATOM     11  C   UNL     1      20.192 -10.961  -2.075 -0.31 -0.00    +0.000    15.873
ATOM     12  O   UNL     1      19.524 -11.527  -5.565 -0.50 -0.00    +0.000    15.873
ATOM     13  C   UNL     1      20.187 -11.295  -4.518 -0.51 -0.00    +0.000    15.873
ATOM     14  N   UNL     1      21.606 -11.143  -4.600 -0.51 -0.00    +0.000    15.873
ATOM     15  O   UNL     1      22.239 -11.245  -5.793 -0.53 -0.00    +0.000    15.873
ATOM     16  H   UNL     1      22.127 -10.962  -3.784 -0.05 -0.00    +0.000    15.873
ATOM     17  C   UNL     1      15.514  -9.141   3.572 -0.42 +0.00    +0.000    15.873
ATOM     18  C   UNL     1      15.049  -8.187   2.468 -0.31 +0.00    +0.000    15.873
ATOM     19  O   UNL     1      15.126  -8.825   1.224 -0.32 +0.00    +0.000    15.873
ATOM     20  H   UNL     1      15.560  -8.238   0.586 -0.04 -0.00    +0.000    15.873
ATOM     21  C   UNL     1      15.332 -11.602   3.476 -0.47 +0.00    +0.000    15.873
ATOM     22  C   UNL     1      14.141 -11.895   2.558 -0.33 +0.00    +0.000    15.873
ATOM     23  C   UNL     1      14.572 -11.944   1.120 -0.43 +0.00    +0.000    15.873
ATOM     24  C   UNL     1      15.552 -12.771   0.583 -0.36 +0.00    +0.000    15.873
ATOM     25  N   UNL     1      15.587 -12.650  -0.764 -0.45 +0.00    +0.000    15.873
ATOM     26  C   UNL     1      14.627 -11.764  -1.082 -0.37 +0.00    +0.000    15.873
ATOM     27  C   UNL     1      13.982 -11.313   0.041 -0.33 +0.00    +0.000    15.873
ATOM     28  C   UNL     1      12.921 -10.409  -0.036 -0.23 +0.00    +0.000    15.873
ATOM     29  C   UNL     1      12.527  -9.966  -1.311 -0.21 -0.00    +0.000    15.873
ATOM     30  C   UNL     1      13.192 -10.430  -2.467 -0.23 -0.00    +0.000    15.873
ATOM     31  C   UNL     1      14.256 -11.344  -2.359 -0.31 -0.00    +0.000    15.873
ATOM     32  H   UNL     1      16.193 -13.114  -1.385 +0.07 +0.00    +0.000    15.873
TER
ENDMDL
MODEL       74
USER    Run = 74
USER    Cluster Rank = 38
USER    Number of conformations in this cluster = 1
USER  
USER    RMSD from reference structure       = 16.241 A
USER  
USER    Estimated Free Energy of Binding    =   -7.63 kcal/mol  [=(1)+(2)+(3)-(4)]
USER    Estimated Inhibition Constant, Ki   =    2.56 uM (micromolar)  [Temperature = 298.15 K]
USER    
USER    (1) Final Intermolecular Energy     =  -10.61 kcal/mol
USER        vdW + Hbond + desolv Energy     =  -10.61 kcal/mol
USER        Electrostatic Energy            =   +0.00 kcal/mol
USER    (2) Final Total Internal Energy     =   -2.30 kcal/mol
USER    (3) Torsional Free Energy           =   +2.98 kcal/mol
USER    (4) Unbound System's Energy  [=(2)] =   -2.30 kcal/mol
USER    
USER    
USER  
USER    DPF = ligand_dock.biased.dpf
USER    NEWDPF move	ligand.pdbqt
USER    NEWDPF about	0.288000 0.007000 -0.056000
USER    NEWDPF tran0	15.747280 -9.606210 -3.020260
USER    NEWDPF axisangle0	-0.183642 0.977126 -0.107239 -29.065594
USER    NEWDPF quaternion0	-0.046082 0.245194 -0.026910 -0.968004
USER    NEWDPF dihe0	99.99 -7.94 28.67 163.13 0.35 137.88 137.07 -150.42 -5.19 8.14 
USER  
USER                              x       y       z    vdW   Elec        q     RMS 
ATOM      1  N   UNL     1      14.597  -9.812  -2.374 -0.21 -0.00    +0.000    16.241
ATOM      2  H   UNL     1      13.670  -9.418  -2.215 +0.00 -0.00    +0.000    16.241
ATOM      3  C   UNL     1      15.007  -9.228  -3.678 -0.19 -0.00    +0.000    16.241
ATOM      4  C   UNL     1      18.864 -10.538  -5.184 -0.31 -0.00    +0.000    16.241
ATOM      5  C   UNL     1      17.700 -11.271  -5.464 -0.23 -0.00    +0.000    16.241
ATOM      6  C   UNL     1      16.459 -10.847  -4.982 -0.18 -0.00    +0.000    16.241
ATOM      7  C   UNL     1      16.357  -9.697  -4.184 -0.20 -0.00    +0.000    16.241
ATOM      8  C   UNL     1      17.518  -8.954  -3.913 -0.13 -0.00    +0.000    16.241
ATOM      9  C   UNL     1      18.761  -9.375  -4.396 -0.22 -0.00    +0.000    16.241
ATOM     10  C   UNL     1      21.248 -10.267  -5.860 -0.38 -0.00    +0.000    16.241
ATOM     11  C   UNL     1      20.160 -11.036  -5.710 -0.42 -0.00    +0.000    16.241
ATOM     12  O   UNL     1      23.402 -10.018  -6.844 -0.34 -0.00    +0.000    16.241
ATOM     13  C   UNL     1      22.517 -10.797  -6.397 -0.41 -0.00    +0.000    16.241
ATOM     14  N   UNL     1      22.745 -12.208  -6.413 -0.54 -0.00    +0.000    16.241
ATOM     15  O   UNL     1      23.903 -12.711  -6.902 -1.12 +0.00    +0.000    16.241
ATOM     16  H   UNL     1      22.055 -12.820  -6.065 -0.58 -0.00    +0.000    16.241
ATOM     17  C   UNL     1      15.391  -9.361  -1.208 -0.23 -0.00    +0.000    16.241
ATOM     18  C   UNL     1      14.673  -8.254  -0.431 -0.23 -0.00    +0.000    16.241
ATOM     19  O   UNL     1      13.335  -8.610  -0.222 -0.16 -0.00    +0.000    16.241
ATOM     20  H   UNL     1      13.281  -9.555  -0.011 +0.01 +0.00    +0.000    16.241
ATOM     21  C   UNL     1      14.418 -11.283  -2.416 -0.35 -0.00    +0.000    16.241
ATOM     22  C   UNL     1      15.337 -11.965  -1.397 -0.25 +0.00    +0.000    16.241
ATOM     23  C   UNL     1      14.802 -11.807  -0.003 -0.39 +0.00    +0.000    16.241
ATOM     24  C   UNL     1      13.543 -12.195   0.444 -0.32 +0.00    +0.000    16.241
ATOM     25  N   UNL     1      13.444 -12.029   1.782 -0.42 +0.00    +0.000    16.241
ATOM     26  C   UNL     1      14.636 -11.555   2.187 -0.43 +0.00    +0.000    16.241
ATOM     27  C   UNL     1      15.493 -11.409   1.126 -0.36 +0.00    +0.000    16.241
ATOM     28  C   UNL     1      16.804 -10.963   1.299 -0.36 +0.00    +0.000    16.241
ATOM     29  C   UNL     1      17.228 -10.661   2.606 -0.43 +0.00    +0.000    16.241
ATOM     30  C   UNL     1      16.345 -10.811   3.697 -0.44 +0.00    +0.000    16.241
ATOM     31  C   UNL     1      15.030 -11.266   3.493 -0.43 +0.00    +0.000    16.241
ATOM     32  H   UNL     1      12.660 -12.217   2.347 -0.35 +0.00    +0.000    16.241
TER
ENDMDL
MODEL        8
USER    Run = 8
USER    Cluster Rank = 39
USER    Number of conformations in this cluster = 1
USER  
USER    RMSD from reference structure       = 12.572 A
USER  
USER    Estimated Free Energy of Binding    =   -7.25 kcal/mol  [=(1)+(2)+(3)-(4)]
USER    Estimated Inhibition Constant, Ki   =    4.81 uM (micromolar)  [Temperature = 298.15 K]
USER    
USER    (1) Final Intermolecular Energy     =  -10.24 kcal/mol
USER        vdW + Hbond + desolv Energy     =  -10.24 kcal/mol
USER        Electrostatic Energy            =   +0.00 kcal/mol
USER    (2) Final Total Internal Energy     =   -3.42 kcal/mol
USER    (3) Torsional Free Energy           =   +2.98 kcal/mol
USER    (4) Unbound System's Energy  [=(2)] =   -3.42 kcal/mol
USER    
USER    
USER  
USER    DPF = ligand_dock.biased.dpf
USER    NEWDPF move	ligand.pdbqt
USER    NEWDPF about	0.288000 0.007000 -0.056000
USER    NEWDPF tran0	15.846065 -8.769652 2.226767
USER    NEWDPF axisangle0	0.713309 0.267389 0.647838 -90.542240
USER    NEWDPF quaternion0	0.506767 0.189965 0.460253 -0.703753
USER    NEWDPF dihe0	-70.64 0.04 21.94 -22.77 -21.82 173.26 126.34 -31.32 -6.40 -138.56 
USER  
USER                              x       y       z    vdW   Elec        q     RMS 
ATOM      1  N   UNL     1      15.330  -9.882   1.697 -0.29 +0.00    +0.000    12.572
ATOM      2  H   UNL     1      14.508 -10.485   1.710 +0.00 +0.00    +0.000    12.572
ATOM      3  C   UNL     1      14.808  -8.568   2.156 -0.30 +0.00    +0.000    12.572
ATOM      4  C   UNL     1      11.685  -8.745   5.168 -0.22 +0.00    +0.000    12.572
ATOM      5  C   UNL     1      13.038  -8.774   5.538 -0.40 +0.00    +0.000    12.572
ATOM      6  C   UNL     1      14.043  -8.714   4.569 -0.36 +0.00    +0.000    12.572
ATOM      7  C   UNL     1      13.717  -8.653   3.205 -0.22 +0.00    +0.000    12.572
ATOM      8  C   UNL     1      12.363  -8.610   2.832 -0.14 +0.00    +0.000    12.572
ATOM      9  C   UNL     1      11.356  -8.669   3.801 -0.14 +0.00    +0.000    12.572
ATOM     10  C   UNL     1       9.547  -8.067   6.258 -0.36 +0.00    +0.000    12.572
ATOM     11  C   UNL     1      10.655  -8.822   6.235 -0.32 +0.00    +0.000    12.572
ATOM     12  O   UNL     1       8.447  -9.222   8.026 -0.67 +0.00    +0.000    12.572
ATOM     13  C   UNL     1       8.551  -8.166   7.343 -0.51 +0.00    +0.000    12.572
ATOM     14  N   UNL     1       7.694  -7.057   7.622 -0.47 +0.00    +0.000    12.572
ATOM     15  O   UNL     1       6.775  -7.133   8.614 -1.08 +0.00    +0.000    12.572
ATOM     16  H   UNL     1       7.773  -6.232   7.090 -0.01 +0.00    +0.000    12.572
ATOM     17  C   UNL     1      16.279 -10.537   2.627 -0.46 +0.00    +0.000    12.572
ATOM     18  C   UNL     1      15.561 -11.489   3.588 -0.47 +0.00    +0.000    12.572
ATOM     19  O   UNL     1      14.806 -12.418   2.862 -0.58 +0.00    +0.000    12.572
ATOM     20  H   UNL     1      13.907 -12.457   3.223 -0.30 +0.00    +0.000    12.572
ATOM     21  C   UNL     1      15.810  -9.871   0.296 -0.28 +0.00    +0.000    12.572
ATOM     22  C   UNL     1      15.006 -10.860  -0.555 -0.33 +0.00    +0.000    12.572
ATOM     23  C   UNL     1      13.570 -10.432  -0.660 -0.24 +0.00    +0.000    12.572
ATOM     24  C   UNL     1      13.021  -9.634  -1.657 -0.19 -0.00    +0.000    12.572
ATOM     25  N   UNL     1      11.678  -9.559  -1.518 -0.19 -0.00    +0.000    12.572
ATOM     26  C   UNL     1      11.373 -10.318  -0.450 -0.22 +0.00    +0.000    12.572
ATOM     27  C   UNL     1      12.501 -10.871   0.099 -0.29 +0.00    +0.000    12.572
ATOM     28  C   UNL     1      12.438 -11.727   1.200 -0.39 +0.00    +0.000    12.572
ATOM     29  C   UNL     1      11.170 -12.009   1.739 -0.26 +0.00    +0.000    12.572
ATOM     30  C   UNL     1      10.008 -11.439   1.174 -0.34 +0.00    +0.000    12.572
ATOM     31  C   UNL     1      10.103 -10.583   0.062 -0.21 +0.00    +0.000    12.572
ATOM     32  H   UNL     1      11.050  -9.054  -2.083 -0.01 -0.00    +0.000    12.572
TER
ENDMDL


AVSFLD: # AVS field file
AVSFLD: #
AVSFLD: # Created by AutoDock
AVSFLD: #
AVSFLD: ndim=2           # number of dimensions in the field
AVSFLD: nspace=1         # number of physical coordinates
AVSFLD: veclen=7         # vector size
AVSFLD: dim1=32          # atoms
AVSFLD: dim2=39          # conformations
AVSFLD: data=Real       # data type (byte,integer,Real,double)
AVSFLD: field=uniform    # field coordinate layout
AVSFLD: label= x y z vdW Elec q RMS
AVSFLD: variable 1 file = ligand_dock.biased.dlg.pdb filetype = ascii offset = 5 stride = 12
AVSFLD: variable 2 file = ligand_dock.biased.dlg.pdb filetype = ascii offset = 6 stride = 12
AVSFLD: variable 3 file = ligand_dock.biased.dlg.pdb filetype = ascii offset = 7 stride = 12
AVSFLD: variable 4 file = ligand_dock.biased.dlg.pdb filetype = ascii offset = 8 stride = 12
AVSFLD: variable 5 file = ligand_dock.biased.dlg.pdb filetype = ascii offset = 9 stride = 12
AVSFLD: variable 6 file = ligand_dock.biased.dlg.pdb filetype = ascii offset = 10 stride = 12
AVSFLD: variable 7 file = ligand_dock.biased.dlg.pdb filetype = ascii offset = 11 stride = 12
AVSFLD: # end of file

>>> Closing the docking parameter file (DPF)...
This docking finished at:			5:22 34" p.m., 11/03/2024


________________________________________________________________________________

autodock4: Successful Completion on "ThinkStation-P620"

Real= 16m 12.85s,  CPU= 16m 10.26s,  System= 0.20s
________________________________________________________________________________

