          AutoDock 4.2 Release 4.2.6   
         (C) 1989-2012 The Scripps Research Institute
        AutoDock comes with ABSOLUTELY NO WARRANTY.
        AutoDock is free software, and you are welcome
        to redistribute it under certain conditions;
        for details type 'autodock4 -C'

                     main.cc  $Revision: 1.213 $

                   Compiled on Feb 20 2022 at 09:48:33


This file was created at:			5:31 15" p.m., 11/03/2024
                   on host:		"ThinkStation-P620"
Current Working Directory = "/home/antonio/Documenti/buccheri/IDROSSAMICO HDAC/HDAC 4/P/Ligand_5"

      ________________________________________________________________

                   SETTING UP DEFAULT PARAMETER LIBRARY
      ________________________________________________________________


Random number generator was seeded with values 26995, 1730651475.
Docking parameter file (DPF) used for this docking:		ligand_dock.biased.dpf
DPF> autodock_parameter_version 4.2       # used by autodock to validate parameter set

	Autodock parameter version 4.2.
DPF> outlev 1                             # diagnostic output level

Output Level = 1  ADT-COMPATIBLE OUTPUT DURING DOCKING.
DPF> intelec                              # calculate internal electrostatics

Electrostatic energies will be calculated for all non-bonds between moving atoms.
DPF> seed pid time                        # seeds for random generator

Random number generator was seeded with values 26995, 1730651475.
DPF> ligand_types A C OA HD N             # atoms types in ligand

DPF> fld receptor.maps.fld                # grid_data_file

Opening Grid Map Dimensions file:		receptor.maps.fld
Grid Point Spacing =				0.375 Angstroms

Even Number of User-specified Grid Points =	70 x-points
						70 y-points
						70 z-points

Coordinates of Central Grid Point of Maps =	(19.141, -8.645, -3.505)
Macromolecule file used to create Grid Maps =	receptor.pdbqt
Grid Parameter file used to create Grid Maps =	receptor.gpf
Minimum coordinates in grid = (6.016, -21.770, -16.630)
Maximum coordinates in grid = (32.266, 4.480, 9.620)

DPF> map receptor.A.map                   # atom-specific affinity map

DPF> map receptor.C.map                   # atom-specific affinity map

DPF> map receptor.OA.biased.map

DPF> map receptor.HD.map                  # atom-specific affinity map

DPF> map receptor.N.map                   # atom-specific affinity map

DPF> elecmap receptor.e.map               # electrostatics map

DPF> desolvmap receptor.d.map             # desolvation map

DPF> move ligand.pdbqt                    # small molecule

1,4-interactions will be _ignored_ in the non-bonded internal energy calculation.

Ligand PDBQT file = "ligand.pdbqt"

INPUT LIGAND PDBQT FILE:
________________________

INPUT-LIGAND-PDBQT: REMARK  Name = 
INPUT-LIGAND-PDBQT: REMARK  11 active torsions:
INPUT-LIGAND-PDBQT: REMARK  status: ('A' for Active; 'I' for Inactive)
INPUT-LIGAND-PDBQT: REMARK    1  A    between atoms: C_2  and  C_5
INPUT-LIGAND-PDBQT: REMARK    2  A    between atoms: N_3  and  O_4
INPUT-LIGAND-PDBQT: REMARK    3  A    between atoms: C_6  and  C_7
INPUT-LIGAND-PDBQT: REMARK    4  A    between atoms: C_10  and  C_11
INPUT-LIGAND-PDBQT: REMARK    5  A    between atoms: C_11  and  N_12
INPUT-LIGAND-PDBQT: REMARK    6  A    between atoms: N_12  and  C_13
INPUT-LIGAND-PDBQT: REMARK    7  A    between atoms: N_12  and  C_16
INPUT-LIGAND-PDBQT: REMARK    8  A    between atoms: C_13  and  C_14
INPUT-LIGAND-PDBQT: REMARK    9  A    between atoms: C_14  and  O_15
INPUT-LIGAND-PDBQT: REMARK   10  A    between atoms: C_16  and  C_17
INPUT-LIGAND-PDBQT: REMARK   11  A    between atoms: C_17  and  C_18
INPUT-LIGAND-PDBQT: REMARK                            x       y       z     vdW  Elec       q    Type
INPUT-LIGAND-PDBQT: REMARK                         _______ _______ _______ _____ _____    ______ ____
INPUT-LIGAND-PDBQT: ROOT
INPUT-LIGAND-PDBQT: ATOM      1  N   UNL     1      -0.475  -1.117  -0.016  0.00  0.00    +0.000 N 
INPUT-LIGAND-PDBQT: ATOM      2  H   UNL     1       0.101  -1.016  -0.852  0.00  0.00    +0.000 HD
INPUT-LIGAND-PDBQT: ENDROOT
INPUT-LIGAND-PDBQT: BRANCH   1   3
INPUT-LIGAND-PDBQT: ATOM      3  C   UNL     1      -0.088  -0.059   0.942  0.00  0.00    +0.000 C 
INPUT-LIGAND-PDBQT: BRANCH   3   7
INPUT-LIGAND-PDBQT: ATOM      4  C   UNL     1       4.147   0.756   0.579  0.00  0.00    +0.000 A 
INPUT-LIGAND-PDBQT: ATOM      5  C   UNL     1       3.636   0.139   1.733  0.00  0.00    +0.000 A 
INPUT-LIGAND-PDBQT: ATOM      6  C   UNL     1       2.268  -0.118   1.858  0.00  0.00    +0.000 A 
INPUT-LIGAND-PDBQT: ATOM      7  C   UNL     1       1.385   0.231   0.826  0.00  0.00    +0.000 A 
INPUT-LIGAND-PDBQT: ATOM      8  C   UNL     1       1.891   0.828  -0.337  0.00  0.00    +0.000 A 
INPUT-LIGAND-PDBQT: ATOM      9  C   UNL     1       3.259   1.087  -0.464  0.00  0.00    +0.000 A 
INPUT-LIGAND-PDBQT: BRANCH   4  11
INPUT-LIGAND-PDBQT: ATOM     10  C   UNL     1       6.166   1.904  -0.323  0.00  0.00    +0.000 C 
INPUT-LIGAND-PDBQT: ATOM     11  C   UNL     1       5.609   0.997   0.492  0.00  0.00    +0.000 C 
INPUT-LIGAND-PDBQT: BRANCH  10  13
INPUT-LIGAND-PDBQT: ATOM     12  O   UNL     1       8.076   2.761  -1.401  0.00  0.00    +0.000 OA
INPUT-LIGAND-PDBQT: ATOM     13  C   UNL     1       7.623   2.139  -0.404  0.00  0.00    +0.000 C 
INPUT-LIGAND-PDBQT: ATOM     14  N   UNL     1       8.527   1.709   0.623  0.00  0.00    +0.000 N 
INPUT-LIGAND-PDBQT: ATOM     15  H   UNL     1       8.175   1.315   1.453  0.00  0.00    +0.000 HD
INPUT-LIGAND-PDBQT: BRANCH  14  16
INPUT-LIGAND-PDBQT: ATOM     16  O   UNL     1       9.864   1.845   0.453  0.00  0.00    +0.000 OA
INPUT-LIGAND-PDBQT: ATOM     17  H   UNL     1      10.040   2.247  -0.412  0.00  0.00    +0.000 HD
INPUT-LIGAND-PDBQT: ENDBRANCH  14  16
INPUT-LIGAND-PDBQT: ENDBRANCH  10  13
INPUT-LIGAND-PDBQT: ENDBRANCH   4  11
INPUT-LIGAND-PDBQT: ENDBRANCH   3   7
INPUT-LIGAND-PDBQT: ENDBRANCH   1   3
INPUT-LIGAND-PDBQT: BRANCH   1  18
INPUT-LIGAND-PDBQT: ATOM     18  C   UNL     1      -0.165  -2.467   0.513  0.00  0.00    +0.000 C 
INPUT-LIGAND-PDBQT: BRANCH  18  19
INPUT-LIGAND-PDBQT: ATOM     19  C   UNL     1      -0.208  -3.546  -0.581  0.00  0.00    +0.000 C 
INPUT-LIGAND-PDBQT: BRANCH  19  20
INPUT-LIGAND-PDBQT: ATOM     20  O   UNL     1      -1.516  -4.009  -0.785  0.00  0.00    +0.000 OA
INPUT-LIGAND-PDBQT: ATOM     21  H   UNL     1      -1.852  -4.402   0.035  0.00  0.00    +0.000 HD
INPUT-LIGAND-PDBQT: ENDBRANCH  19  20
INPUT-LIGAND-PDBQT: ENDBRANCH  18  19
INPUT-LIGAND-PDBQT: ENDBRANCH   1  18
INPUT-LIGAND-PDBQT: BRANCH   1  22
INPUT-LIGAND-PDBQT: ATOM     22  C   UNL     1      -1.868  -0.951  -0.496  0.00  0.00    +0.000 C 
INPUT-LIGAND-PDBQT: BRANCH  22  23
INPUT-LIGAND-PDBQT: ATOM     23  C   UNL     1      -2.940  -1.161   0.592  0.00  0.00    +0.000 C 
INPUT-LIGAND-PDBQT: BRANCH  23  24
INPUT-LIGAND-PDBQT: ATOM     24  C   UNL     1      -4.291  -0.776   0.071  0.00  0.00    +0.000 A 
INPUT-LIGAND-PDBQT: ATOM     25  C   UNL     1      -5.222  -1.620  -0.529  0.00  0.00    +0.000 A 
INPUT-LIGAND-PDBQT: ATOM     26  N   UNL     1      -6.297  -0.914  -0.947  0.00  0.00    +0.000 N 
INPUT-LIGAND-PDBQT: ATOM     27  C   UNL     1      -6.047   0.368  -0.630  0.00  0.00    +0.000 A 
INPUT-LIGAND-PDBQT: ATOM     28  C   UNL     1      -4.829   0.493  -0.013  0.00  0.00    +0.000 A 
INPUT-LIGAND-PDBQT: ATOM     29  C   UNL     1      -4.330   1.733   0.388  0.00  0.00    +0.000 A 
INPUT-LIGAND-PDBQT: ATOM     30  C   UNL     1      -5.127   2.868   0.148  0.00  0.00    +0.000 A 
INPUT-LIGAND-PDBQT: ATOM     31  C   UNL     1      -6.384   2.740  -0.483  0.00  0.00    +0.000 A 
INPUT-LIGAND-PDBQT: ATOM     32  C   UNL     1      -6.856   1.475  -0.882  0.00  0.00    +0.000 A 
INPUT-LIGAND-PDBQT: ATOM     33  H   UNL     1      -7.100  -1.268  -1.393  0.00  0.00    +0.000 HD
INPUT-LIGAND-PDBQT: ENDBRANCH  23  24
INPUT-LIGAND-PDBQT: ENDBRANCH  22  23
INPUT-LIGAND-PDBQT: ENDBRANCH   1  22
INPUT-LIGAND-PDBQT: TORSDOF 11
________________________________________________________________________________

Total charge on ligand                               =	+0.000 e
REMARK  Name = 
REMARK  11 active torsions:
REMARK  status: ('A' for Active; 'I' for Inactive)
REMARK    1  A    between atoms: C_2  and  C_5
REMARK    2  A    between atoms: N_3  and  O_4
REMARK    3  A    between atoms: C_6  and  C_7
REMARK    4  A    between atoms: C_10  and  C_11
REMARK    5  A    between atoms: C_11  and  N_12
REMARK    6  A    between atoms: N_12  and  C_13
REMARK    7  A    between atoms: N_12  and  C_16
REMARK    8  A    between atoms: C_13  and  C_14
REMARK    9  A    between atoms: C_14  and  O_15
REMARK   10  A    between atoms: C_16  and  C_17
REMARK   11  A    between atoms: C_17  and  C_18
REMARK                            x       y       z     vdW  Elec       q    Type
REMARK                         _______ _______ _______ _____ _____    ______ ____


Number of Rotatable Bonds in Small Molecule =	11 torsions
Number of atoms in ligand:  33

Number of non-hydrogen atoms in ligand:  28

Number of vibrational degrees of freedom of ligand:  93


Number of torsional degrees of freedom = 11
Estimated loss of torsional free energy upon binding = +3.2813 kcal/mol


DPF> about 0.460 0.128 -0.007            # small molecule center

Small molecule center of rotation =	(+0.460, +0.128, -0.007)

DPF> tran0 random                         # initial coordinates/A or random

Initial translation =			(30.230, -14.854, -7.235) Angstroms
DPF> quaternion0 random                   # initial orientation

Each run will begin with a new, random initial orientation.
Initial quaternion,  (x,y,z,w) =	( -0.315, -0.464, 0.736, 0.380 ),
DPF> dihe0 random                         # initial dihedrals (relative) or random

DPF> torsdof 11                            # torsional degrees of freedom

Number of torsional degrees of freedom = 11
Free energy coefficient for torsional degrees of freedom = 0.2983, the factory default value.

Estimated loss of torsional free energy upon binding = +3.2813 kcal/mol

DPF> rmstol 2.0                           # cluster_tolerance/A

Maximum RMS tolerance for conformational cluster analysis = 2.00 Angstroms
DPF> extnrg 1000.0                        # external grid energy

External grid energy (beyond grid map walls) = 1000.00

DPF> e0max 0.0 10000                      # max initial energy; max number of retries

Using user-specified maximum number of retries for simanneal initialization, 10000 retries.
If the simanneal initial energy is greater than e0max, 0.000,
then a new, random initial state will be created.

DPF> ga_pop_size 150                      # number of individuals in population

A population of 150 individuals will be used
DPF> ga_num_evals 2500000                 # maximum number of energy evaluations

There will be at most 2500000 function evaluations used.
DPF> ga_num_generations 27000             # maximum number of generations

The GA will run for at most 27000 generations.
DPF> ga_elitism 1                         # number of top individuals to survive to next generation

The 1 best will be preserved each GA generation.
DPF> ga_mutation_rate 0.02                # rate of gene mutation

The mutation rate is 0.020000.
DPF> ga_crossover_rate 0.8                # rate of crossover

The crossover rate is 0.800000.
DPF> ga_window_size 10                    # 

The GA's selection window is 10 generations.
DPF> ga_cauchy_alpha 0.0                  # Alpha parameter of Cauchy distribution

The alpha parameter (for the Cauchy distribution) is being set to 0.000000.
DPF> ga_cauchy_beta 1.0                   # Beta parameter Cauchy distribution

The beta parameter (for the Cauchy distribution) is being set to 1.000000.
DPF> set_ga                               # set the above parameters for GA or LGA

DPF> sw_max_its 300                       # iterations of Solis & Wets local search

Solis & Wets algorithms will perform at most 300 iterations.
DPF> sw_max_succ 4                        # consecutive successes before changing rho

Solis & Wets algorithms expand rho every 4 in a row successes.
DPF> sw_max_fail 4                        # consecutive failures before changing rho

Solis & Wets algorithms contract rho every 4 in a row failures.
DPF> sw_rho 1.0                           # size of local search space to sample

rho is set to 1.000000.
DPF> sw_lb_rho 0.01                       # lower bound on rho

rho will never get smaller than 0.010000.
DPF> ls_search_freq 0.06                  # probability of performing local search on individual

Local search will be performed with frequency 0.060000.
DPF> set_psw1                             # set the above pseudo-Solis & Wets parameters

Creating a new Local Search object using the pseudo-Solis-Wets algorithm (pSW1) with the current settings.

DPF> unbound_model bound                  # state of unbound ligand

DPF> ga_run 100

centering ligand on specified point: 0.460 0.128 -0.007
Furthest true ligand atom from "about" center is 9.820 Angstroms (maxrad).
Number of requested GA dockings = 100 runs
Unbound model to be used is 'same as bound' [AutoDock 4.2 default].

	BEGINNING GENETIC ALGORITHM DOCKING 1 of 100
Run: 1 Seed: 2101711591 1017742209 [ Run 1 of 100 GA/GALS ]
Beginning LAMARCKIAN GENETIC ALGORITHM (LGA), with a maximum of 2500000 energy evaluations.

Final-Value: -16.239


	FINAL GENETIC ALGORITHM DOCKED STATE
	_______________________________________________


Detailed state:  trans 21.305 -9.947 -5.419 quatxyzw 0.430675 0.648857 0.618891 0.102361 center 0.460 0.128 -0.007 ntor 11 -4.2617 22.1882 80.6965 38.7409 -2.5876 160.6030 -164.5172 56.5847 92.7843 147.0458 34.3500
State:	 21.305  -9.947  -5.419   0.433  0.652  0.622 168.250     -4.26   22.19   80.70   38.74   -2.59  160.60 -164.52   56.58   92.78  147.05   34.35

DOCKED: MODEL        1
DOCKED: USER    Run = 1
DOCKED: USER    DPF = ligand_dock.biased.dpf
DOCKED: USER  
DOCKED: USER    Estimated Free Energy of Binding    =  -10.10 kcal/mol  [=(1)+(2)+(3)-(4)]
DOCKED: USER    Estimated Inhibition Constant, Ki   =   39.40 nM (nanomolar)  [Temperature = 298.15 K]
DOCKED: USER    
DOCKED: USER    (1) Final Intermolecular Energy     =  -13.38 kcal/mol
DOCKED: USER        vdW + Hbond + desolv Energy     =  -13.38 kcal/mol
DOCKED: USER        Electrostatic Energy            =   +0.00 kcal/mol
DOCKED: USER    (2) Final Total Internal Energy     =   -2.86 kcal/mol
DOCKED: USER    (3) Torsional Free Energy           =   +3.28 kcal/mol
DOCKED: USER    (4) Unbound System's Energy  [=(2)] =   -2.86 kcal/mol
DOCKED: USER    
DOCKED: USER    
DOCKED: USER    NEWDPF move ligand.pdbqt
DOCKED: USER    NEWDPF about 0.460000 0.128000 -0.007000
DOCKED: USER    NEWDPF tran0 21.305047 -9.946923 -5.419139
DOCKED: USER    NEWDPF quaternion0 0.430675 0.648857 0.618891 0.102361
DOCKED: USER    NEWDPF axisangle0 0.432950 0.652283 0.622159 168.249737
DOCKED: USER    NEWDPF quat0 0.432950 0.652283 0.622159 168.249737
DOCKED: USER    NEWDPF dihe0 -4.26 22.19 80.70 38.74 -2.59 160.60 -164.52 56.58 92.78 147.05 34.35 
DOCKED: USER  keepresnum = 1 
DOCKED: USER  
DOCKED: REMARK  Name = 
DOCKED: REMARK  11 active torsions:
DOCKED: REMARK  status: ('A' for Active; 'I' for Inactive)
DOCKED: REMARK    1  A    between atoms: C_2  and  C_5
DOCKED: REMARK    2  A    between atoms: N_3  and  O_4
DOCKED: REMARK    3  A    between atoms: C_6  and  C_7
DOCKED: REMARK    4  A    between atoms: C_10  and  C_11
DOCKED: REMARK    5  A    between atoms: C_11  and  N_12
DOCKED: REMARK    6  A    between atoms: N_12  and  C_13
DOCKED: REMARK    7  A    between atoms: N_12  and  C_16
DOCKED: REMARK    8  A    between atoms: C_13  and  C_14
DOCKED: REMARK    9  A    between atoms: C_14  and  O_15
DOCKED: REMARK   10  A    between atoms: C_16  and  C_17
DOCKED: REMARK   11  A    between atoms: C_17  and  C_18
DOCKED: REMARK                            x       y       z     vdW  Elec       q    Type
DOCKED: REMARK                         _______ _______ _______ _____ _____    ______ ____
DOCKED: USER                              x       y       z     vdW  Elec       q    Type
DOCKED: USER                           _______ _______ _______ _____ _____    ______ ____
DOCKED: ROOT
DOCKED: ATOM      1  N   UNL     1      21.016 -10.188  -6.930 -0.25 -0.00    +0.000 N 
DOCKED: ATOM      2  H   UNL     1      20.401 -10.698  -6.296 -0.02 -0.00    +0.000 HD
DOCKED: ENDROOT
DOCKED: BRANCH   1   3
DOCKED: ATOM      3  C   UNL     1      21.890  -9.312  -6.120 -0.29 -0.00    +0.000 C 
DOCKED: BRANCH   3   7
DOCKED: ATOM      4  C   UNL     1      21.038  -9.797  -1.904 -0.54 -0.00    +0.000 A 
DOCKED: ATOM      5  C   UNL     1      20.970 -10.896  -2.777 -0.34 -0.00    +0.000 A 
DOCKED: ATOM      6  C   UNL     1      21.235 -10.742  -4.140 -0.46 -0.00    +0.000 A 
DOCKED: ATOM      7  C   UNL     1      21.583  -9.485  -4.656 -0.33 -0.00    +0.000 A 
DOCKED: ATOM      8  C   UNL     1      21.673  -8.389  -3.788 -0.27 -0.00    +0.000 A 
DOCKED: ATOM      9  C   UNL     1      21.406  -8.540  -2.424 -0.43 -0.00    +0.000 A 
DOCKED: BRANCH   4  11
DOCKED: ATOM     10  C   UNL     1      20.468 -11.215   0.064 -0.58 -0.00    +0.000 C 
DOCKED: ATOM     11  C   UNL     1      20.757 -10.016  -0.464 -0.67 -0.00    +0.000 C 
DOCKED: BRANCH  10  13
DOCKED: ATOM     12  O   UNL     1      19.579 -12.472   1.845 -1.60 -0.00    +0.000 OA
DOCKED: ATOM     13  C   UNL     1      20.189 -11.426   1.500 -0.75 -0.00    +0.000 C 
DOCKED: ATOM     14  N   UNL     1      20.614 -10.498   2.507 -0.58 -0.00    +0.000 N 
DOCKED: ATOM     15  H   UNL     1      21.180  -9.731   2.262 -0.57 -0.00    +0.000 HD
DOCKED: BRANCH  14  16
DOCKED: ATOM     16  O   UNL     1      20.238 -10.675   3.797 -0.80 -0.00    +0.000 OA
DOCKED: ATOM     17  H   UNL     1      19.633 -11.431   3.856 -0.04 -0.00    +0.000 HD
DOCKED: ENDBRANCH  14  16
DOCKED: ENDBRANCH  10  13
DOCKED: ENDBRANCH   4  11
DOCKED: ENDBRANCH   3   7
DOCKED: ENDBRANCH   1   3
DOCKED: BRANCH   1  18
DOCKED: ATOM     18  C   UNL     1      20.114  -9.398  -7.801 -0.17 -0.00    +0.000 C 
DOCKED: BRANCH  18  19
DOCKED: ATOM     19  C   UNL     1      18.638  -9.782  -7.613 -0.20 -0.00    +0.000 C 
DOCKED: BRANCH  19  20
DOCKED: ATOM     20  O   UNL     1      18.503 -10.853  -6.718 -0.36 -0.00    +0.000 OA
DOCKED: ATOM     21  H   UNL     1      19.220 -11.488  -6.863 -0.09 -0.00    +0.000 HD
DOCKED: ENDBRANCH  19  20
DOCKED: ENDBRANCH  18  19
DOCKED: ENDBRANCH   1  18
DOCKED: BRANCH   1  22
DOCKED: ATOM     22  C   UNL     1      21.785 -11.241  -7.637 -0.17 -0.00    +0.000 C 
DOCKED: BRANCH  22  23
DOCKED: ATOM     23  C   UNL     1      23.114 -11.619  -6.953 -0.50 -0.00    +0.000 C 
DOCKED: BRANCH  23  24
DOCKED: ATOM     24  C   UNL     1      24.227 -11.637  -7.956 -0.42 -0.00    +0.000 A 
DOCKED: ATOM     25  C   UNL     1      24.428 -12.582  -8.958 -0.36 -0.00    +0.000 A 
DOCKED: ATOM     26  N   UNL     1      25.577 -12.325  -9.625 -0.33 -0.00    +0.000 N 
DOCKED: ATOM     27  C   UNL     1      26.110 -11.237  -9.043 -0.34 -0.00    +0.000 A 
DOCKED: ATOM     28  C   UNL     1      25.318 -10.792  -8.016 -0.36 -0.00    +0.000 A 
DOCKED: ATOM     29  C   UNL     1      25.673  -9.689  -7.237 -0.24 -0.00    +0.000 A 
DOCKED: ATOM     30  C   UNL     1      26.878  -9.030  -7.546 -0.32 -0.00    +0.000 A 
DOCKED: ATOM     31  C   UNL     1      27.691  -9.485  -8.606 -0.27 -0.00    +0.000 A 
DOCKED: ATOM     32  C   UNL     1      27.309 -10.605  -9.369 -0.29 -0.00    +0.000 A 
DOCKED: ATOM     33  H   UNL     1      25.947 -12.833 -10.382 -0.45 -0.00    +0.000 HD
DOCKED: ENDBRANCH  23  24
DOCKED: ENDBRANCH  22  23
DOCKED: ENDBRANCH   1  22
DOCKED: TORSDOF 11
DOCKED: TER
DOCKED: ENDMDL
________________________________________________________________________________


	BEGINNING GENETIC ALGORITHM DOCKING 2 of 100
Run: 2 Seed: 1980944199 565749903 [ Run 2 of 100 GA/GALS ]
Beginning LAMARCKIAN GENETIC ALGORITHM (LGA), with a maximum of 2500000 energy evaluations.

Final-Value: -14.625


	FINAL GENETIC ALGORITHM DOCKED STATE
	_______________________________________________


Detailed state:  trans 14.603 -9.331 1.982 quatxyzw -0.478988 -0.180825 0.789318 -0.338894 center 0.460 0.128 -0.007 ntor 11 31.4274 160.7187 169.2617 -166.1437 54.7079 149.0663 -50.2952 -75.1723 137.2308 60.6807 63.9372
State:	 14.603  -9.331   1.982  -0.509 -0.192  0.839 -140.381     31.43  160.72  169.26 -166.14   54.71  149.07  -50.30  -75.17  137.23   60.68   63.94

DOCKED: MODEL        2
DOCKED: USER    Run = 2
DOCKED: USER    DPF = ligand_dock.biased.dpf
DOCKED: USER  
DOCKED: USER    Estimated Free Energy of Binding    =   -8.57 kcal/mol  [=(1)+(2)+(3)-(4)]
DOCKED: USER    Estimated Inhibition Constant, Ki   =  520.76 nM (nanomolar)  [Temperature = 298.15 K]
DOCKED: USER    
DOCKED: USER    (1) Final Intermolecular Energy     =  -11.85 kcal/mol
DOCKED: USER        vdW + Hbond + desolv Energy     =  -11.85 kcal/mol
DOCKED: USER        Electrostatic Energy            =   +0.00 kcal/mol
DOCKED: USER    (2) Final Total Internal Energy     =   -2.77 kcal/mol
DOCKED: USER    (3) Torsional Free Energy           =   +3.28 kcal/mol
DOCKED: USER    (4) Unbound System's Energy  [=(2)] =   -2.77 kcal/mol
DOCKED: USER    
DOCKED: USER    
DOCKED: USER    NEWDPF move ligand.pdbqt
DOCKED: USER    NEWDPF about 0.460000 0.128000 -0.007000
DOCKED: USER    NEWDPF tran0 14.602857 -9.331073 1.981841
DOCKED: USER    NEWDPF quaternion0 -0.478988 -0.180825 0.789318 -0.338894
DOCKED: USER    NEWDPF axisangle0 -0.509115 -0.192198 0.838964 -140.380932
DOCKED: USER    NEWDPF quat0 -0.509115 -0.192198 0.838964 -140.380932
DOCKED: USER    NEWDPF dihe0 31.43 160.72 169.26 -166.14 54.71 149.07 -50.30 -75.17 137.23 60.68 63.94 
DOCKED: USER  keepresnum = 1 
DOCKED: USER  
DOCKED: REMARK  Name = 
DOCKED: REMARK  11 active torsions:
DOCKED: REMARK  status: ('A' for Active; 'I' for Inactive)
DOCKED: REMARK    1  A    between atoms: C_2  and  C_5
DOCKED: REMARK    2  A    between atoms: N_3  and  O_4
DOCKED: REMARK    3  A    between atoms: C_6  and  C_7
DOCKED: REMARK    4  A    between atoms: C_10  and  C_11
DOCKED: REMARK    5  A    between atoms: C_11  and  N_12
DOCKED: REMARK    6  A    between atoms: N_12  and  C_13
DOCKED: REMARK    7  A    between atoms: N_12  and  C_16
DOCKED: REMARK    8  A    between atoms: C_13  and  C_14
DOCKED: REMARK    9  A    between atoms: C_14  and  O_15
DOCKED: REMARK   10  A    between atoms: C_16  and  C_17
DOCKED: REMARK   11  A    between atoms: C_17  and  C_18
DOCKED: REMARK                            x       y       z     vdW  Elec       q    Type
DOCKED: REMARK                         _______ _______ _______ _____ _____    ______ ____
DOCKED: USER                              x       y       z     vdW  Elec       q    Type
DOCKED: USER                           _______ _______ _______ _____ _____    ______ ____
DOCKED: ROOT
DOCKED: ATOM      1  N   UNL     1      15.352  -9.116   3.330 -0.36 +0.00    +0.000 N 
DOCKED: ATOM      2  H   UNL     1      15.871  -8.812   2.505 -0.02 +0.00    +0.000 HD
DOCKED: ENDROOT
DOCKED: BRANCH   1   3
DOCKED: ATOM      3  C   UNL     1      14.007  -9.550   2.895 -0.31 +0.00    +0.000 C 
DOCKED: BRANCH   3   7
DOCKED: ATOM      4  C   UNL     1      14.198 -11.157  -1.120 -0.32 +0.00    +0.000 A 
DOCKED: ATOM      5  C   UNL     1      14.759  -9.903  -0.826 -0.23 -0.00    +0.000 A 
DOCKED: ATOM      6  C   UNL     1      14.692  -9.376   0.467 -0.23 +0.00    +0.000 A 
DOCKED: ATOM      7  C   UNL     1      14.068 -10.099   1.494 -0.23 +0.00    +0.000 A 
DOCKED: ATOM      8  C   UNL     1      13.525 -11.360   1.212 -0.37 +0.00    +0.000 A 
DOCKED: ATOM      9  C   UNL     1      13.590 -11.888  -0.080 -0.36 +0.00    +0.000 A 
DOCKED: BRANCH   4  11
DOCKED: ATOM     10  C   UNL     1      14.735 -10.941  -3.543 -0.29 -0.00    +0.000 C 
DOCKED: ATOM     11  C   UNL     1      14.306 -11.674  -2.506 -0.33 -0.00    +0.000 C 
DOCKED: BRANCH  10  13
DOCKED: ATOM     12  O   UNL     1      15.816 -11.097  -5.629 -0.29 -0.00    +0.000 OA
DOCKED: ATOM     13  C   UNL     1      14.840 -11.463  -4.922 -0.28 -0.00    +0.000 C 
DOCKED: ATOM     14  N   UNL     1      13.890 -12.389  -5.465 -0.29 -0.00    +0.000 N 
DOCKED: ATOM     15  H   UNL     1      13.184 -12.762  -4.890 -0.51 -0.00    +0.000 HD
DOCKED: BRANCH  14  16
DOCKED: ATOM     16  O   UNL     1      13.962 -12.753  -6.768 -0.37 -0.00    +0.000 OA
DOCKED: ATOM     17  H   UNL     1      14.888 -12.740  -7.055 -0.02 -0.00    +0.000 HD
DOCKED: ENDBRANCH  14  16
DOCKED: ENDBRANCH  10  13
DOCKED: ENDBRANCH   4  11
DOCKED: ENDBRANCH   3   7
DOCKED: ENDBRANCH   1   3
DOCKED: BRANCH   1  18
DOCKED: ATOM     18  C   UNL     1      15.279  -7.924   4.208 -0.39 +0.00    +0.000 C 
DOCKED: BRANCH  18  19
DOCKED: ATOM     19  C   UNL     1      13.963  -7.863   5.000 -0.41 +0.00    +0.000 C 
DOCKED: BRANCH  19  20
DOCKED: ATOM     20  O   UNL     1      14.044  -8.623   6.177 -0.60 +0.00    +0.000 OA
DOCKED: ATOM     21  H   UNL     1      14.216  -8.037   6.929 -0.06 +0.00    +0.000 HD
DOCKED: ENDBRANCH  19  20
DOCKED: ENDBRANCH  18  19
DOCKED: ENDBRANCH   1  18
DOCKED: BRANCH   1  22
DOCKED: ATOM     22  C   UNL     1      16.148 -10.238   3.883 -0.41 +0.00    +0.000 C 
DOCKED: BRANCH  22  23
DOCKED: ATOM     23  C   UNL     1      16.599 -11.271   2.830 -0.42 +0.00    +0.000 C 
DOCKED: BRANCH  23  24
DOCKED: ATOM     24  C   UNL     1      17.996 -10.974   2.377 -0.46 -0.00    +0.000 A 
DOCKED: ATOM     25  C   UNL     1      19.070 -10.601   3.183 -0.48 -0.00    +0.000 A 
DOCKED: ATOM     26  N   UNL     1      20.158 -10.337   2.424 -0.53 -0.00    +0.000 N 
DOCKED: ATOM     27  C   UNL     1      19.777 -10.525   1.149 -0.56 -0.00    +0.000 A 
DOCKED: ATOM     28  C   UNL     1      18.463 -10.908   1.079 -0.45 -0.00    +0.000 A 
DOCKED: ATOM     29  C   UNL     1      17.826 -11.137  -0.141 -0.38 -0.00    +0.000 A 
DOCKED: ATOM     30  C   UNL     1      18.583 -10.972  -1.316 -0.37 -0.00    +0.000 A 
DOCKED: ATOM     31  C   UNL     1      19.938 -10.582  -1.245 -0.46 -0.00    +0.000 A 
DOCKED: ATOM     32  C   UNL     1      20.550 -10.352   0.001 -0.59 -0.00    +0.000 A 
DOCKED: ATOM     33  H   UNL     1      21.048 -10.063   2.743 -0.47 -0.00    +0.000 HD
DOCKED: ENDBRANCH  23  24
DOCKED: ENDBRANCH  22  23
DOCKED: ENDBRANCH   1  22
DOCKED: TORSDOF 11
DOCKED: TER
DOCKED: ENDMDL
________________________________________________________________________________


	BEGINNING GENETIC ALGORITHM DOCKING 3 of 100
Run: 3 Seed: 768627993 1277783912 [ Run 3 of 100 GA/GALS ]
Beginning LAMARCKIAN GENETIC ALGORITHM (LGA), with a maximum of 2500000 energy evaluations.

Final-Value: -14.541


	FINAL GENETIC ALGORITHM DOCKED STATE
	_______________________________________________


Detailed state:  trans 17.749 -12.645 2.307 quatxyzw 0.839468 -0.449816 0.295413 0.075427 center 0.460 0.128 -0.007 ntor 11 10.0120 164.4176 179.3288 124.7696 -145.9384 -87.3951 15.9922 80.3174 -180.0000 -170.6100 158.0534
State:	 17.749 -12.645   2.307   0.842 -0.451  0.296 171.348     10.01  164.42  179.33  124.77 -145.94  -87.40   15.99   80.32 -180.00 -170.61  158.05

DOCKED: MODEL        3
DOCKED: USER    Run = 3
DOCKED: USER    DPF = ligand_dock.biased.dpf
DOCKED: USER  
DOCKED: USER    Estimated Free Energy of Binding    =   -7.87 kcal/mol  [=(1)+(2)+(3)-(4)]
DOCKED: USER    Estimated Inhibition Constant, Ki   =    1.70 uM (micromolar)  [Temperature = 298.15 K]
DOCKED: USER    
DOCKED: USER    (1) Final Intermolecular Energy     =  -11.15 kcal/mol
DOCKED: USER        vdW + Hbond + desolv Energy     =  -11.15 kcal/mol
DOCKED: USER        Electrostatic Energy            =   +0.00 kcal/mol
DOCKED: USER    (2) Final Total Internal Energy     =   -3.39 kcal/mol
DOCKED: USER    (3) Torsional Free Energy           =   +3.28 kcal/mol
DOCKED: USER    (4) Unbound System's Energy  [=(2)] =   -3.39 kcal/mol
DOCKED: USER    
DOCKED: USER    
DOCKED: USER    NEWDPF move ligand.pdbqt
DOCKED: USER    NEWDPF about 0.460000 0.128000 -0.007000
DOCKED: USER    NEWDPF tran0 17.749358 -12.644600 2.306711
DOCKED: USER    NEWDPF quaternion0 0.839468 -0.449816 0.295413 0.075427
DOCKED: USER    NEWDPF axisangle0 0.841866 -0.451101 0.296257 171.348459
DOCKED: USER    NEWDPF quat0 0.841866 -0.451101 0.296257 171.348459
DOCKED: USER    NEWDPF dihe0 10.01 164.42 179.33 124.77 -145.94 -87.40 15.99 80.32 -180.00 -170.61 158.05 
DOCKED: USER  keepresnum = 1 
DOCKED: USER  
DOCKED: REMARK  Name = 
DOCKED: REMARK  11 active torsions:
DOCKED: REMARK  status: ('A' for Active; 'I' for Inactive)
DOCKED: REMARK    1  A    between atoms: C_2  and  C_5
DOCKED: REMARK    2  A    between atoms: N_3  and  O_4
DOCKED: REMARK    3  A    between atoms: C_6  and  C_7
DOCKED: REMARK    4  A    between atoms: C_10  and  C_11
DOCKED: REMARK    5  A    between atoms: C_11  and  N_12
DOCKED: REMARK    6  A    between atoms: N_12  and  C_13
DOCKED: REMARK    7  A    between atoms: N_12  and  C_16
DOCKED: REMARK    8  A    between atoms: C_13  and  C_14
DOCKED: REMARK    9  A    between atoms: C_14  and  O_15
DOCKED: REMARK   10  A    between atoms: C_16  and  C_17
DOCKED: REMARK   11  A    between atoms: C_17  and  C_18
DOCKED: REMARK                            x       y       z     vdW  Elec       q    Type
DOCKED: REMARK                         _______ _______ _______ _____ _____    ______ ____
DOCKED: USER                              x       y       z     vdW  Elec       q    Type
DOCKED: USER                           _______ _______ _______ _____ _____    ______ ____
DOCKED: ROOT
DOCKED: ATOM      1  N   UNL     1      18.236 -11.169   2.402 -0.49 -0.00    +0.000 N 
DOCKED: ATOM      2  H   UNL     1      17.935 -11.572   3.290 -0.02 +0.00    +0.000 HD
DOCKED: ENDROOT
DOCKED: BRANCH   1   3
DOCKED: ATOM      3  C   UNL     1      18.187 -12.229   1.373 -0.52 -0.00    +0.000 C 
DOCKED: BRANCH   3   7
DOCKED: ATOM      4  C   UNL     1      15.692 -11.010  -1.947 -0.20 -0.00    +0.000 A 
DOCKED: ATOM      5  C   UNL     1      17.004 -10.521  -1.823 -0.23 -0.00    +0.000 A 
DOCKED: ATOM      6  C   UNL     1      17.809 -10.905  -0.748 -0.34 -0.00    +0.000 A 
DOCKED: ATOM      7  C   UNL     1      17.320 -11.793   0.221 -0.43 +0.00    +0.000 A 
DOCKED: ATOM      8  C   UNL     1      16.020 -12.301   0.092 -0.46 +0.00    +0.000 A 
DOCKED: ATOM      9  C   UNL     1      15.212 -11.918  -0.982 -0.36 +0.00    +0.000 A 
DOCKED: BRANCH   4  11
DOCKED: ATOM     10  C   UNL     1      14.483 -11.407  -4.089 -0.27 -0.00    +0.000 C 
DOCKED: ATOM     11  C   UNL     1      14.882 -10.578  -3.114 -0.29 -0.00    +0.000 C 
DOCKED: BRANCH  10  13
DOCKED: ATOM     12  O   UNL     1      13.619  -9.740  -5.510 -0.13 -0.00    +0.000 OA
DOCKED: ATOM     13  C   UNL     1      13.676 -10.970  -5.248 -0.23 -0.00    +0.000 C 
DOCKED: ATOM     14  N   UNL     1      12.984 -11.899  -6.093 -0.18 -0.00    +0.000 N 
DOCKED: ATOM     15  H   UNL     1      13.104 -12.867  -5.961 -0.13 -0.00    +0.000 HD
DOCKED: BRANCH  14  16
DOCKED: ATOM     16  O   UNL     1      12.165 -11.447  -7.073 -0.16 -0.00    +0.000 OA
DOCKED: ATOM     17  H   UNL     1      12.279 -10.489  -7.172 -0.00 -0.00    +0.000 HD
DOCKED: ENDBRANCH  14  16
DOCKED: ENDBRANCH  10  13
DOCKED: ENDBRANCH   4  11
DOCKED: ENDBRANCH   3   7
DOCKED: ENDBRANCH   1   3
DOCKED: BRANCH   1  18
DOCKED: ATOM     18  C   UNL     1      19.624 -10.702   2.634 -0.70 -0.00    +0.000 C 
DOCKED: BRANCH  18  19
DOCKED: ATOM     19  C   UNL     1      20.636 -11.859   2.632 -0.67 -0.00    +0.000 C 
DOCKED: BRANCH  19  20
DOCKED: ATOM     20  O   UNL     1      21.217 -12.021   1.366 -1.09 -0.00    +0.000 OA
DOCKED: ATOM     21  H   UNL     1      22.116 -11.657   1.373 -0.58 -0.00    +0.000 HD
DOCKED: ENDBRANCH  19  20
DOCKED: ENDBRANCH  18  19
DOCKED: ENDBRANCH   1  18
DOCKED: BRANCH   1  22
DOCKED: ATOM     22  C   UNL     1      17.261 -10.085   2.132 -0.44 +0.00    +0.000 C 
DOCKED: BRANCH  22  23
DOCKED: ATOM     23  C   UNL     1      16.119  -9.990   3.163 -0.47 +0.00    +0.000 C 
DOCKED: BRANCH  23  24
DOCKED: ATOM     24  C   UNL     1      14.832 -10.463   2.558 -0.35 +0.00    +0.000 A 
DOCKED: ATOM     25  C   UNL     1      14.159 -11.645   2.856 -0.28 +0.00    +0.000 A 
DOCKED: ATOM     26  N   UNL     1      13.073 -11.781   2.061 -0.40 +0.00    +0.000 N 
DOCKED: ATOM     27  C   UNL     1      13.064 -10.705   1.256 -0.28 +0.00    +0.000 A 
DOCKED: ATOM     28  C   UNL     1      14.126  -9.880   1.525 -0.22 +0.00    +0.000 A 
DOCKED: ATOM     29  C   UNL     1      14.351  -8.709   0.801 -0.22 +0.00    +0.000 A 
DOCKED: ATOM     30  C   UNL     1      13.439  -8.386  -0.222 -0.16 -0.00    +0.000 A 
DOCKED: ATOM     31  C   UNL     1      12.342  -9.232  -0.497 -0.14 +0.00    +0.000 A 
DOCKED: ATOM     32  C   UNL     1      12.147 -10.411   0.248 -0.24 +0.00    +0.000 A 
DOCKED: ATOM     33  H   UNL     1      12.422 -12.519   2.070 -0.49 +0.00    +0.000 HD
DOCKED: ENDBRANCH  23  24
DOCKED: ENDBRANCH  22  23
DOCKED: ENDBRANCH   1  22
DOCKED: TORSDOF 11
DOCKED: TER
DOCKED: ENDMDL
________________________________________________________________________________


	BEGINNING GENETIC ALGORITHM DOCKING 4 of 100
Run: 4 Seed: 1471600997 373988193 [ Run 4 of 100 GA/GALS ]
Beginning LAMARCKIAN GENETIC ALGORITHM (LGA), with a maximum of 2500000 energy evaluations.

Final-Value: -15.147


	FINAL GENETIC ALGORITHM DOCKED STATE
	_______________________________________________


Detailed state:  trans 16.496 -9.797 3.765 quatxyzw 0.355334 -0.342498 0.481672 -0.724171 center 0.460 0.128 -0.007 ntor 11 4.4027 -180.0000 -102.0277 -50.7775 -119.1114 132.4219 2.8809 -31.8663 20.8515 -72.3589 64.5903
State:	 16.496  -9.797   3.765   0.515 -0.497  0.698 -87.200      4.40 -180.00 -102.03  -50.78 -119.11  132.42    2.88  -31.87   20.85  -72.36   64.59

DOCKED: MODEL        4
DOCKED: USER    Run = 4
DOCKED: USER    DPF = ligand_dock.biased.dpf
DOCKED: USER  
DOCKED: USER    Estimated Free Energy of Binding    =   -9.24 kcal/mol  [=(1)+(2)+(3)-(4)]
DOCKED: USER    Estimated Inhibition Constant, Ki   =  169.67 nM (nanomolar)  [Temperature = 298.15 K]
DOCKED: USER    
DOCKED: USER    (1) Final Intermolecular Energy     =  -12.52 kcal/mol
DOCKED: USER        vdW + Hbond + desolv Energy     =  -12.52 kcal/mol
DOCKED: USER        Electrostatic Energy            =   +0.00 kcal/mol
DOCKED: USER    (2) Final Total Internal Energy     =   -2.63 kcal/mol
DOCKED: USER    (3) Torsional Free Energy           =   +3.28 kcal/mol
DOCKED: USER    (4) Unbound System's Energy  [=(2)] =   -2.63 kcal/mol
DOCKED: USER    
DOCKED: USER    
DOCKED: USER    NEWDPF move ligand.pdbqt
DOCKED: USER    NEWDPF about 0.460000 0.128000 -0.007000
DOCKED: USER    NEWDPF tran0 16.495837 -9.796601 3.765489
DOCKED: USER    NEWDPF quaternion0 0.355334 -0.342498 0.481672 -0.724171
DOCKED: USER    NEWDPF axisangle0 0.515261 -0.496648 0.698461 -87.200067
DOCKED: USER    NEWDPF quat0 0.515261 -0.496648 0.698461 -87.200067
DOCKED: USER    NEWDPF dihe0 4.40 -180.00 -102.03 -50.78 -119.11 132.42 2.88 -31.87 20.85 -72.36 64.59 
DOCKED: USER  keepresnum = 1 
DOCKED: USER  
DOCKED: REMARK  Name = 
DOCKED: REMARK  11 active torsions:
DOCKED: REMARK  status: ('A' for Active; 'I' for Inactive)
DOCKED: REMARK    1  A    between atoms: C_2  and  C_5
DOCKED: REMARK    2  A    between atoms: N_3  and  O_4
DOCKED: REMARK    3  A    between atoms: C_6  and  C_7
DOCKED: REMARK    4  A    between atoms: C_10  and  C_11
DOCKED: REMARK    5  A    between atoms: C_11  and  N_12
DOCKED: REMARK    6  A    between atoms: N_12  and  C_13
DOCKED: REMARK    7  A    between atoms: N_12  and  C_16
DOCKED: REMARK    8  A    between atoms: C_13  and  C_14
DOCKED: REMARK    9  A    between atoms: C_14  and  O_15
DOCKED: REMARK   10  A    between atoms: C_16  and  C_17
DOCKED: REMARK   11  A    between atoms: C_17  and  C_18
DOCKED: REMARK                            x       y       z     vdW  Elec       q    Type
DOCKED: REMARK                         _______ _______ _______ _____ _____    ______ ____
DOCKED: USER                              x       y       z     vdW  Elec       q    Type
DOCKED: USER                           _______ _______ _______ _____ _____    ______ ____
DOCKED: ROOT
DOCKED: ATOM      1  N   UNL     1      17.387 -10.567   2.747 -0.47 +0.00    +0.000 N 
DOCKED: ATOM      2  H   UNL     1      17.594  -9.570   2.820 -0.03 -0.00    +0.000 HD
DOCKED: ENDROOT
DOCKED: BRANCH   1   3
DOCKED: ATOM      3  C   UNL     1      16.361 -10.900   3.758 -0.51 +0.00    +0.000 C 
DOCKED: BRANCH   3   7
DOCKED: ATOM      4  C   UNL     1      13.805  -7.476   4.446 -0.28 +0.00    +0.000 A 
DOCKED: ATOM      5  C   UNL     1      13.548  -8.698   5.090 -0.39 +0.00    +0.000 A 
DOCKED: ATOM      6  C   UNL     1      14.366  -9.808   4.864 -0.37 +0.00    +0.000 A 
DOCKED: ATOM      7  C   UNL     1      15.462  -9.715   3.994 -0.38 +0.00    +0.000 A 
DOCKED: ATOM      8  C   UNL     1      15.736  -8.493   3.364 -0.31 +0.00    +0.000 A 
DOCKED: ATOM      9  C   UNL     1      14.918  -7.381   3.588 -0.31 +0.00    +0.000 A 
DOCKED: BRANCH   4  11
DOCKED: ATOM     10  C   UNL     1      11.635  -6.451   5.115 -0.25 +0.00    +0.000 C 
DOCKED: ATOM     11  C   UNL     1      12.912  -6.324   4.729 -0.27 +0.00    +0.000 C 
DOCKED: BRANCH  10  13
DOCKED: ATOM     12  O   UNL     1      10.763  -4.326   4.597 -0.29 +0.00    +0.000 OA
DOCKED: ATOM     13  C   UNL     1      10.751  -5.299   5.396 -0.29 +0.00    +0.000 C 
DOCKED: ATOM     14  N   UNL     1       9.867  -5.269   6.525 -0.34 +0.00    +0.000 N 
DOCKED: ATOM     15  H   UNL     1       9.773  -6.064   7.096 -0.03 +0.00    +0.000 HD
DOCKED: BRANCH  14  16
DOCKED: ATOM     16  O   UNL     1       9.161  -4.147   6.805 -0.99 +0.00    +0.000 OA
DOCKED: ATOM     17  H   UNL     1       9.315  -3.487   6.111 -0.04 +0.00    +0.000 HD
DOCKED: ENDBRANCH  14  16
DOCKED: ENDBRANCH  10  13
DOCKED: ENDBRANCH   4  11
DOCKED: ENDBRANCH   3   7
DOCKED: ENDBRANCH   1   3
DOCKED: BRANCH   1  18
DOCKED: ATOM     18  C   UNL     1      18.670 -11.255   3.029 -0.55 -0.00    +0.000 C 
DOCKED: BRANCH  18  19
DOCKED: ATOM     19  C   UNL     1      19.397 -11.682   1.744 -0.70 -0.00    +0.000 C 
DOCKED: BRANCH  19  20
DOCKED: ATOM     20  O   UNL     1      20.670 -12.198   2.029 -1.44 -0.00    +0.000 OA
DOCKED: ATOM     21  H   UNL     1      20.722 -13.117   1.727 -0.62 -0.00    +0.000 HD
DOCKED: ENDBRANCH  19  20
DOCKED: ENDBRANCH  18  19
DOCKED: ENDBRANCH   1  18
DOCKED: BRANCH   1  22
DOCKED: ATOM     22  C   UNL     1      16.885 -10.747   1.364 -0.41 +0.00    +0.000 C 
DOCKED: BRANCH  22  23
DOCKED: ATOM     23  C   UNL     1      16.127 -12.070   1.134 -0.47 +0.00    +0.000 C 
DOCKED: BRANCH  23  24
DOCKED: ATOM     24  C   UNL     1      14.931 -11.839   0.262 -0.40 +0.00    +0.000 A 
DOCKED: ATOM     25  C   UNL     1      14.861 -12.016  -1.117 -0.38 +0.00    +0.000 A 
DOCKED: ATOM     26  N   UNL     1      13.649 -11.636  -1.580 -0.35 +0.00    +0.000 N 
DOCKED: ATOM     27  C   UNL     1      12.959 -11.208  -0.510 -0.31 +0.00    +0.000 A 
DOCKED: ATOM     28  C   UNL     1      13.710 -11.310   0.633 -0.34 +0.00    +0.000 A 
DOCKED: ATOM     29  C   UNL     1      13.223 -10.900   1.874 -0.32 +0.00    +0.000 A 
DOCKED: ATOM     30  C   UNL     1      11.916 -10.381   1.926 -0.19 +0.00    +0.000 A 
DOCKED: ATOM     31  C   UNL     1      11.139 -10.280   0.751 -0.22 +0.00    +0.000 A 
DOCKED: ATOM     32  C   UNL     1      11.662 -10.695  -0.488 -0.23 +0.00    +0.000 A 
DOCKED: ATOM     33  H   UNL     1      13.336 -11.668  -2.513 -0.05 -0.00    +0.000 HD
DOCKED: ENDBRANCH  23  24
DOCKED: ENDBRANCH  22  23
DOCKED: ENDBRANCH   1  22
DOCKED: TORSDOF 11
DOCKED: TER
DOCKED: ENDMDL
________________________________________________________________________________


	BEGINNING GENETIC ALGORITHM DOCKING 5 of 100
Run: 5 Seed: 565919207 303836438 [ Run 5 of 100 GA/GALS ]
Beginning LAMARCKIAN GENETIC ALGORITHM (LGA), with a maximum of 2500000 energy evaluations.

Final-Value: -15.953


	FINAL GENETIC ALGORITHM DOCKED STATE
	_______________________________________________


Detailed state:  trans 18.475 -10.976 0.073 quatxyzw 0.358431 -0.581217 0.721311 -0.115863 center 0.460 0.128 -0.007 ntor 11 87.2540 179.8774 10.5259 178.7287 160.1081 62.5529 -135.6395 -72.1526 39.4917 118.9338 31.5127
State:	 18.475 -10.976   0.073   0.361 -0.585  0.726 -166.693     87.25  179.88   10.53  178.73  160.11   62.55 -135.64  -72.15   39.49  118.93   31.51

DOCKED: MODEL        5
DOCKED: USER    Run = 5
DOCKED: USER    DPF = ligand_dock.biased.dpf
DOCKED: USER  
DOCKED: USER    Estimated Free Energy of Binding    =  -11.02 kcal/mol  [=(1)+(2)+(3)-(4)]
DOCKED: USER    Estimated Inhibition Constant, Ki   =    8.43 nM (nanomolar)  [Temperature = 298.15 K]
DOCKED: USER    
DOCKED: USER    (1) Final Intermolecular Energy     =  -14.30 kcal/mol
DOCKED: USER        vdW + Hbond + desolv Energy     =  -14.30 kcal/mol
DOCKED: USER        Electrostatic Energy            =   +0.00 kcal/mol
DOCKED: USER    (2) Final Total Internal Energy     =   -1.66 kcal/mol
DOCKED: USER    (3) Torsional Free Energy           =   +3.28 kcal/mol
DOCKED: USER    (4) Unbound System's Energy  [=(2)] =   -1.66 kcal/mol
DOCKED: USER    
DOCKED: USER    
DOCKED: USER    NEWDPF move ligand.pdbqt
DOCKED: USER    NEWDPF about 0.460000 0.128000 -0.007000
DOCKED: USER    NEWDPF tran0 18.475221 -10.975754 0.072775
DOCKED: USER    NEWDPF quaternion0 0.358431 -0.581217 0.721311 -0.115863
DOCKED: USER    NEWDPF axisangle0 0.360861 -0.585158 0.726202 -166.693167
DOCKED: USER    NEWDPF quat0 0.360861 -0.585158 0.726202 -166.693167
DOCKED: USER    NEWDPF dihe0 87.25 179.88 10.53 178.73 160.11 62.55 -135.64 -72.15 39.49 118.93 31.51 
DOCKED: USER  keepresnum = 1 
DOCKED: USER  
DOCKED: REMARK  Name = 
DOCKED: REMARK  11 active torsions:
DOCKED: REMARK  status: ('A' for Active; 'I' for Inactive)
DOCKED: REMARK    1  A    between atoms: C_2  and  C_5
DOCKED: REMARK    2  A    between atoms: N_3  and  O_4
DOCKED: REMARK    3  A    between atoms: C_6  and  C_7
DOCKED: REMARK    4  A    between atoms: C_10  and  C_11
DOCKED: REMARK    5  A    between atoms: C_11  and  N_12
DOCKED: REMARK    6  A    between atoms: N_12  and  C_13
DOCKED: REMARK    7  A    between atoms: N_12  and  C_16
DOCKED: REMARK    8  A    between atoms: C_13  and  C_14
DOCKED: REMARK    9  A    between atoms: C_14  and  O_15
DOCKED: REMARK   10  A    between atoms: C_16  and  C_17
DOCKED: REMARK   11  A    between atoms: C_17  and  C_18
DOCKED: REMARK                            x       y       z     vdW  Elec       q    Type
DOCKED: REMARK                         _______ _______ _______ _____ _____    ______ ____
DOCKED: USER                              x       y       z     vdW  Elec       q    Type
DOCKED: USER                           _______ _______ _______ _____ _____    ______ ____
DOCKED: ROOT
DOCKED: ATOM      1  N   UNL     1      19.868 -10.364   0.403 -0.53 -0.00    +0.000 N 
DOCKED: ATOM      2  H   UNL     1      19.077  -9.767   0.646 -0.02 -0.00    +0.000 HD
DOCKED: ENDROOT
DOCKED: BRANCH   1   3
DOCKED: ATOM      3  C   UNL     1      19.340 -11.658  -0.079 -0.54 -0.00    +0.000 C 
DOCKED: BRANCH   3   7
DOCKED: ATOM      4  C   UNL     1      15.017 -11.696   0.131 -0.38 +0.00    +0.000 A 
DOCKED: ATOM      5  C   UNL     1      15.733 -10.515   0.386 -0.28 +0.00    +0.000 A 
DOCKED: ATOM      6  C   UNL     1      17.129 -10.500   0.328 -0.26 -0.00    +0.000 A 
DOCKED: ATOM      7  C   UNL     1      17.836 -11.667   0.005 -0.44 -0.00    +0.000 A 
DOCKED: ATOM      8  C   UNL     1      17.127 -12.845  -0.271 -0.36 +0.00    +0.000 A 
DOCKED: ATOM      9  C   UNL     1      15.731 -12.862  -0.212 -0.50 +0.00    +0.000 A 
DOCKED: BRANCH   4  11
DOCKED: ATOM     10  C   UNL     1      12.827 -12.015   1.276 -0.38 +0.00    +0.000 C 
DOCKED: ATOM     11  C   UNL     1      13.535 -11.655   0.196 -0.42 +0.00    +0.000 C 
DOCKED: BRANCH  10  13
DOCKED: ATOM     12  O   UNL     1      10.755 -11.029   0.748 -0.34 +0.00    +0.000 OA
DOCKED: ATOM     13  C   UNL     1      11.351 -11.971   1.334 -0.43 +0.00    +0.000 C 
DOCKED: ATOM     14  N   UNL     1      10.580 -12.975   2.007 -0.33 +0.00    +0.000 N 
DOCKED: ATOM     15  H   UNL     1      11.027 -13.769   2.379 -0.59 +0.00    +0.000 HD
DOCKED: BRANCH  14  16
DOCKED: ATOM     16  O   UNL     1       9.239 -12.834   2.131 -0.49 +0.00    +0.000 OA
DOCKED: ATOM     17  H   UNL     1       8.802 -13.201   1.347 -0.62 -0.00    +0.000 HD
DOCKED: ENDBRANCH  14  16
DOCKED: ENDBRANCH  10  13
DOCKED: ENDBRANCH   4  11
DOCKED: ENDBRANCH   3   7
DOCKED: ENDBRANCH   1   3
DOCKED: BRANCH   1  18
DOCKED: ATOM     18  C   UNL     1      20.637 -10.527   1.661 -0.59 -0.00    +0.000 C 
DOCKED: BRANCH  18  19
DOCKED: ATOM     19  C   UNL     1      20.972 -11.998   1.953 -0.61 -0.00    +0.000 C 
DOCKED: BRANCH  19  20
DOCKED: ATOM     20  O   UNL     1      19.837 -12.700   2.386 -1.39 -0.00    +0.000 OA
DOCKED: ATOM     21  H   UNL     1      19.646 -13.421   1.767 -0.52 -0.00    +0.000 HD
DOCKED: ENDBRANCH  19  20
DOCKED: ENDBRANCH  18  19
DOCKED: ENDBRANCH   1  18
DOCKED: BRANCH   1  22
DOCKED: ATOM     22  C   UNL     1      20.585  -9.623  -0.662 -0.58 -0.00    +0.000 C 
DOCKED: BRANCH  22  23
DOCKED: ATOM     23  C   UNL     1      21.208 -10.524  -1.748 -0.60 -0.00    +0.000 C 
DOCKED: BRANCH  23  24
DOCKED: ATOM     24  C   UNL     1      20.325 -10.564  -2.958 -0.44 -0.00    +0.000 A 
DOCKED: ATOM     25  C   UNL     1      18.938 -10.684  -2.972 -0.33 -0.00    +0.000 A 
DOCKED: ATOM     26  N   UNL     1      18.485 -10.766  -4.243 -0.30 -0.00    +0.000 N 
DOCKED: ATOM     27  C   UNL     1      19.573 -10.713  -5.031 -0.36 -0.00    +0.000 A 
DOCKED: ATOM     28  C   UNL     1      20.715 -10.596  -4.282 -0.43 -0.00    +0.000 A 
DOCKED: ATOM     29  C   UNL     1      21.980 -10.551  -4.871 -0.30 -0.00    +0.000 A 
DOCKED: ATOM     30  C   UNL     1      22.051 -10.619  -6.275 -0.37 -0.00    +0.000 A 
DOCKED: ATOM     31  C   UNL     1      20.875 -10.734  -7.047 -0.24 -0.00    +0.000 A 
DOCKED: ATOM     32  C   UNL     1      19.614 -10.785  -6.422 -0.31 -0.00    +0.000 A 
DOCKED: ATOM     33  H   UNL     1      17.547 -10.848  -4.533 -0.01 -0.00    +0.000 HD
DOCKED: ENDBRANCH  23  24
DOCKED: ENDBRANCH  22  23
DOCKED: ENDBRANCH   1  22
DOCKED: TORSDOF 11
DOCKED: TER
DOCKED: ENDMDL
________________________________________________________________________________


	BEGINNING GENETIC ALGORITHM DOCKING 6 of 100
Run: 6 Seed: 1592909022 1022999165 [ Run 6 of 100 GA/GALS ]
Beginning LAMARCKIAN GENETIC ALGORITHM (LGA), with a maximum of 2500000 energy evaluations.

Final-Value: -15.086


	FINAL GENETIC ALGORITHM DOCKED STATE
	_______________________________________________


Detailed state:  trans 20.906 -6.496 -3.447 quatxyzw 0.439501 0.802999 0.347513 -0.203142 center 0.460 0.128 -0.007 ntor 11 14.7470 128.4595 85.6612 32.5547 -128.1278 26.8709 -89.9552 84.1675 -149.9750 -6.0716 35.8383
State:	 20.906  -6.496  -3.447   0.449  0.820  0.355 -156.559     14.75  128.46   85.66   32.55 -128.13   26.87  -89.96   84.17 -149.97   -6.07   35.84

DOCKED: MODEL        6
DOCKED: USER    Run = 6
DOCKED: USER    DPF = ligand_dock.biased.dpf
DOCKED: USER  
DOCKED: USER    Estimated Free Energy of Binding    =   -8.72 kcal/mol  [=(1)+(2)+(3)-(4)]
DOCKED: USER    Estimated Inhibition Constant, Ki   =  408.87 nM (nanomolar)  [Temperature = 298.15 K]
DOCKED: USER    
DOCKED: USER    (1) Final Intermolecular Energy     =  -12.00 kcal/mol
DOCKED: USER        vdW + Hbond + desolv Energy     =  -12.00 kcal/mol
DOCKED: USER        Electrostatic Energy            =   +0.00 kcal/mol
DOCKED: USER    (2) Final Total Internal Energy     =   -3.09 kcal/mol
DOCKED: USER    (3) Torsional Free Energy           =   +3.28 kcal/mol
DOCKED: USER    (4) Unbound System's Energy  [=(2)] =   -3.09 kcal/mol
DOCKED: USER    
DOCKED: USER    
DOCKED: USER    NEWDPF move ligand.pdbqt
DOCKED: USER    NEWDPF about 0.460000 0.128000 -0.007000
DOCKED: USER    NEWDPF tran0 20.905584 -6.495586 -3.446876
DOCKED: USER    NEWDPF quaternion0 0.439501 0.802999 0.347513 -0.203142
DOCKED: USER    NEWDPF axisangle0 0.448860 0.820098 0.354913 -156.558522
DOCKED: USER    NEWDPF quat0 0.448860 0.820098 0.354913 -156.558522
DOCKED: USER    NEWDPF dihe0 14.75 128.46 85.66 32.55 -128.13 26.87 -89.96 84.17 -149.97 -6.07 35.84 
DOCKED: USER  keepresnum = 1 
DOCKED: USER  
DOCKED: REMARK  Name = 
DOCKED: REMARK  11 active torsions:
DOCKED: REMARK  status: ('A' for Active; 'I' for Inactive)
DOCKED: REMARK    1  A    between atoms: C_2  and  C_5
DOCKED: REMARK    2  A    between atoms: N_3  and  O_4
DOCKED: REMARK    3  A    between atoms: C_6  and  C_7
DOCKED: REMARK    4  A    between atoms: C_10  and  C_11
DOCKED: REMARK    5  A    between atoms: C_11  and  N_12
DOCKED: REMARK    6  A    between atoms: N_12  and  C_13
DOCKED: REMARK    7  A    between atoms: N_12  and  C_16
DOCKED: REMARK    8  A    between atoms: C_13  and  C_14
DOCKED: REMARK    9  A    between atoms: C_14  and  O_15
DOCKED: REMARK   10  A    between atoms: C_16  and  C_17
DOCKED: REMARK   11  A    between atoms: C_17  and  C_18
DOCKED: REMARK                            x       y       z     vdW  Elec       q    Type
DOCKED: REMARK                         _______ _______ _______ _____ _____    ______ ____
DOCKED: USER                              x       y       z     vdW  Elec       q    Type
DOCKED: USER                           _______ _______ _______ _____ _____    ______ ____
DOCKED: ROOT
DOCKED: ATOM      1  N   UNL     1      20.694  -7.754  -4.339 -0.24 -0.00    +0.000 N 
DOCKED: ATOM      2  H   UNL     1      19.917  -7.546  -3.711 -0.01 -0.00    +0.000 HD
DOCKED: ENDROOT
DOCKED: BRANCH   1   3
DOCKED: ATOM      3  C   UNL     1      21.691  -6.669  -4.215 -0.27 -0.00    +0.000 C 
DOCKED: BRANCH   3   7
DOCKED: ATOM      4  C   UNL     1      20.379  -3.821  -1.231 -0.36 -0.00    +0.000 A 
DOCKED: ATOM      5  C   UNL     1      20.537  -3.429  -2.571 -0.19 -0.00    +0.000 A 
DOCKED: ATOM      6  C   UNL     1      20.969  -4.343  -3.536 -0.17 -0.00    +0.000 A 
DOCKED: ATOM      7  C   UNL     1      21.244  -5.671  -3.180 -0.30 -0.00    +0.000 A 
DOCKED: ATOM      8  C   UNL     1      21.068  -6.075  -1.849 -0.40 -0.00    +0.000 A 
DOCKED: ATOM      9  C   UNL     1      20.638  -5.162  -0.881 -0.24 +0.00    +0.000 A 
DOCKED: BRANCH   4  11
DOCKED: ATOM     10  C   UNL     1      20.489  -2.609   0.943 -0.48 -0.00    +0.000 C 
DOCKED: ATOM     11  C   UNL     1      19.908  -2.814  -0.248 -0.38 -0.00    +0.000 C 
DOCKED: BRANCH  10  13
DOCKED: ATOM     12  O   UNL     1      18.777  -1.389   2.003 -0.36 -0.00    +0.000 OA
DOCKED: ATOM     13  C   UNL     1      20.015  -1.604   1.917 -0.48 -0.00    +0.000 C 
DOCKED: ATOM     14  N   UNL     1      20.911  -0.891   2.780 -0.52 -0.00    +0.000 N 
DOCKED: ATOM     15  H   UNL     1      21.867  -1.123   2.795 -0.10 -0.00    +0.000 HD
DOCKED: BRANCH  14  16
DOCKED: ATOM     16  O   UNL     1      20.444   0.101   3.576 -0.56 -0.00    +0.000 OA
DOCKED: ATOM     17  H   UNL     1      19.476   0.051   3.620 -0.37 -0.00    +0.000 HD
DOCKED: ENDBRANCH  14  16
DOCKED: ENDBRANCH  10  13
DOCKED: ENDBRANCH   4  11
DOCKED: ENDBRANCH   3   7
DOCKED: ENDBRANCH   1   3
DOCKED: BRANCH   1  18
DOCKED: ATOM     18  C   UNL     1      20.101  -7.793  -5.697 -0.15 -0.00    +0.000 C 
DOCKED: BRANCH  18  19
DOCKED: ATOM     19  C   UNL     1      18.567  -7.897  -5.661 -0.14 -0.00    +0.000 C 
DOCKED: BRANCH  19  20
DOCKED: ATOM     20  O   UNL     1      18.090  -7.902  -4.343 -0.18 -0.00    +0.000 OA
DOCKED: ATOM     21  H   UNL     1      18.249  -7.036  -3.937 -0.01 -0.00    +0.000 HD
DOCKED: ENDBRANCH  19  20
DOCKED: ENDBRANCH  18  19
DOCKED: ENDBRANCH   1  18
DOCKED: BRANCH   1  22
DOCKED: ATOM     22  C   UNL     1      21.224  -9.055  -3.863 -0.41 -0.00    +0.000 C 
DOCKED: BRANCH  22  23
DOCKED: ATOM     23  C   UNL     1      20.187  -9.930  -3.130 -0.45 -0.00    +0.000 C 
DOCKED: BRANCH  23  24
DOCKED: ATOM     24  C   UNL     1      20.428  -9.893  -1.652 -0.49 -0.00    +0.000 A 
DOCKED: ATOM     25  C   UNL     1      21.395  -9.143  -0.986 -0.53 -0.00    +0.000 A 
DOCKED: ATOM     26  N   UNL     1      21.374  -9.419   0.338 -0.56 -0.00    +0.000 N 
DOCKED: ATOM     27  C   UNL     1      20.415 -10.344   0.511 -0.58 -0.00    +0.000 A 
DOCKED: ATOM     28  C   UNL     1      19.819 -10.664  -0.682 -0.49 -0.00    +0.000 A 
DOCKED: ATOM     29  C   UNL     1      18.810 -11.624  -0.768 -0.41 -0.00    +0.000 A 
DOCKED: ATOM     30  C   UNL     1      18.407 -12.258   0.423 -0.47 -0.00    +0.000 A 
DOCKED: ATOM     31  C   UNL     1      19.016 -11.926   1.653 -0.57 -0.00    +0.000 A 
DOCKED: ATOM     32  C   UNL     1      20.037 -10.958   1.705 -0.63 -0.00    +0.000 A 
DOCKED: ATOM     33  H   UNL     1      21.946  -9.021   1.034 -0.48 -0.00    +0.000 HD
DOCKED: ENDBRANCH  23  24
DOCKED: ENDBRANCH  22  23
DOCKED: ENDBRANCH   1  22
DOCKED: TORSDOF 11
DOCKED: TER
DOCKED: ENDMDL
________________________________________________________________________________


	BEGINNING GENETIC ALGORITHM DOCKING 7 of 100
Run: 7 Seed: 2110964284 732318617 [ Run 7 of 100 GA/GALS ]
Beginning LAMARCKIAN GENETIC ALGORITHM (LGA), with a maximum of 2500000 energy evaluations.

Final-Value: -15.841


	FINAL GENETIC ALGORITHM DOCKED STATE
	_______________________________________________


Detailed state:  trans 18.385 -11.590 0.393 quatxyzw 0.237061 -0.599003 0.755860 -0.116929 center 0.460 0.128 -0.007 ntor 11 4.2099 -78.7778 111.6568 27.7438 63.0952 139.1705 110.7551 46.1281 -159.4369 91.6998 19.0886
State:	 18.385 -11.590   0.393   0.239 -0.603  0.761 -166.570      4.21  -78.78  111.66   27.74   63.10  139.17  110.76   46.13 -159.44   91.70   19.09

DOCKED: MODEL        7
DOCKED: USER    Run = 7
DOCKED: USER    DPF = ligand_dock.biased.dpf
DOCKED: USER  
DOCKED: USER    Estimated Free Energy of Binding    =   -9.85 kcal/mol  [=(1)+(2)+(3)-(4)]
DOCKED: USER    Estimated Inhibition Constant, Ki   =   60.27 nM (nanomolar)  [Temperature = 298.15 K]
DOCKED: USER    
DOCKED: USER    (1) Final Intermolecular Energy     =  -13.13 kcal/mol
DOCKED: USER        vdW + Hbond + desolv Energy     =  -13.13 kcal/mol
DOCKED: USER        Electrostatic Energy            =   +0.00 kcal/mol
DOCKED: USER    (2) Final Total Internal Energy     =   -2.71 kcal/mol
DOCKED: USER    (3) Torsional Free Energy           =   +3.28 kcal/mol
DOCKED: USER    (4) Unbound System's Energy  [=(2)] =   -2.71 kcal/mol
DOCKED: USER    
DOCKED: USER    
DOCKED: USER    NEWDPF move ligand.pdbqt
DOCKED: USER    NEWDPF about 0.460000 0.128000 -0.007000
DOCKED: USER    NEWDPF tran0 18.384813 -11.589746 0.392513
DOCKED: USER    NEWDPF quaternion0 0.237061 -0.599003 0.755860 -0.116929
DOCKED: USER    NEWDPF axisangle0 0.238699 -0.603141 0.761081 -166.570145
DOCKED: USER    NEWDPF quat0 0.238699 -0.603141 0.761081 -166.570145
DOCKED: USER    NEWDPF dihe0 4.21 -78.78 111.66 27.74 63.10 139.17 110.76 46.13 -159.44 91.70 19.09 
DOCKED: USER  keepresnum = 1 
DOCKED: USER  
DOCKED: REMARK  Name = 
DOCKED: REMARK  11 active torsions:
DOCKED: REMARK  status: ('A' for Active; 'I' for Inactive)
DOCKED: REMARK    1  A    between atoms: C_2  and  C_5
DOCKED: REMARK    2  A    between atoms: N_3  and  O_4
DOCKED: REMARK    3  A    between atoms: C_6  and  C_7
DOCKED: REMARK    4  A    between atoms: C_10  and  C_11
DOCKED: REMARK    5  A    between atoms: C_11  and  N_12
DOCKED: REMARK    6  A    between atoms: N_12  and  C_13
DOCKED: REMARK    7  A    between atoms: N_12  and  C_16
DOCKED: REMARK    8  A    between atoms: C_13  and  C_14
DOCKED: REMARK    9  A    between atoms: C_14  and  O_15
DOCKED: REMARK   10  A    between atoms: C_16  and  C_17
DOCKED: REMARK   11  A    between atoms: C_17  and  C_18
DOCKED: REMARK                            x       y       z     vdW  Elec       q    Type
DOCKED: REMARK                         _______ _______ _______ _____ _____    ______ ____
DOCKED: USER                              x       y       z     vdW  Elec       q    Type
DOCKED: USER                           _______ _______ _______ _____ _____    ______ ____
DOCKED: ROOT
DOCKED: ATOM      1  N   UNL     1      19.761 -11.163   0.983 -0.58 -0.00    +0.000 N 
DOCKED: ATOM      2  H   UNL     1      19.036 -10.447   1.042 -0.01 -0.00    +0.000 HD
DOCKED: ENDROOT
DOCKED: BRANCH   1   3
DOCKED: ATOM      3  C   UNL     1      19.150 -12.395   0.440 -0.40 -0.00    +0.000 C 
DOCKED: BRANCH   3   7
DOCKED: ATOM      4  C   UNL     1      14.833 -12.110   0.576 -0.43 +0.00    +0.000 A 
DOCKED: ATOM      5  C   UNL     1      15.629 -11.282   1.386 -0.36 +0.00    +0.000 A 
DOCKED: ATOM      6  C   UNL     1      17.022 -11.377   1.351 -0.40 +0.00    +0.000 A 
DOCKED: ATOM      7  C   UNL     1      17.648 -12.298   0.499 -0.49 +0.00    +0.000 A 
DOCKED: ATOM      8  C   UNL     1      16.861 -13.113  -0.326 -0.32 +0.00    +0.000 A 
DOCKED: ATOM      9  C   UNL     1      15.466 -13.020  -0.293 -0.50 +0.00    +0.000 A 
DOCKED: BRANCH   4  11
DOCKED: ATOM     10  C   UNL     1      12.714 -11.385   1.668 -0.41 +0.00    +0.000 C 
DOCKED: ATOM     11  C   UNL     1      13.358 -11.961   0.644 -0.44 +0.00    +0.000 C 
DOCKED: BRANCH  10  13
DOCKED: ATOM     12  O   UNL     1      10.765 -10.126   2.068 -0.23 +0.00    +0.000 OA
DOCKED: ATOM     13  C   UNL     1      11.245 -11.240   1.728 -0.28 +0.00    +0.000 C 
DOCKED: ATOM     14  N   UNL     1      10.354 -12.311   1.387 -0.47 +0.00    +0.000 N 
DOCKED: ATOM     15  H   UNL     1      10.714 -13.151   1.022 -0.50 +0.00    +0.000 HD
DOCKED: BRANCH  14  16
DOCKED: ATOM     16  O   UNL     1       9.019 -12.169   1.565 -0.46 +0.00    +0.000 OA
DOCKED: ATOM     17  H   UNL     1       8.828 -11.267   1.867 -0.01 +0.00    +0.000 HD
DOCKED: ENDBRANCH  14  16
DOCKED: ENDBRANCH  10  13
DOCKED: ENDBRANCH   4  11
DOCKED: ENDBRANCH   3   7
DOCKED: ENDBRANCH   1   3
DOCKED: BRANCH   1  18
DOCKED: ATOM     18  C   UNL     1      20.232 -11.361   2.375 -0.77 -0.00    +0.000 C 
DOCKED: BRANCH  18  19
DOCKED: ATOM     19  C   UNL     1      19.889 -10.167   3.282 -0.44 -0.00    +0.000 C 
DOCKED: BRANCH  19  20
DOCKED: ATOM     20  O   UNL     1      18.748  -9.493   2.821 -0.64 -0.00    +0.000 OA
DOCKED: ATOM     21  H   UNL     1      18.880  -8.536   2.911 -0.49 -0.00    +0.000 HD
DOCKED: ENDBRANCH  19  20
DOCKED: ENDBRANCH  18  19
DOCKED: ENDBRANCH   1  18
DOCKED: BRANCH   1  22
DOCKED: ATOM     22  C   UNL     1      20.778 -10.595   0.066 -0.69 -0.00    +0.000 C 
DOCKED: BRANCH  22  23
DOCKED: ATOM     23  C   UNL     1      20.654  -9.073  -0.150 -0.28 -0.00    +0.000 C 
DOCKED: BRANCH  23  24
DOCKED: ATOM     24  C   UNL     1      20.963  -8.724  -1.573 -0.46 -0.00    +0.000 A 
DOCKED: ATOM     25  C   UNL     1      21.399  -7.490  -2.050 -0.42 -0.00    +0.000 A 
DOCKED: ATOM     26  N   UNL     1      21.501  -7.516  -3.399 -0.36 -0.00    +0.000 N 
DOCKED: ATOM     27  C   UNL     1      21.120  -8.748  -3.777 -0.35 -0.00    +0.000 A 
DOCKED: ATOM     28  C   UNL     1      20.778  -9.512  -2.692 -0.45 -0.00    +0.000 A 
DOCKED: ATOM     29  C   UNL     1      20.321 -10.824  -2.828 -0.40 -0.00    +0.000 A 
DOCKED: ATOM     30  C   UNL     1      20.229 -11.353  -4.129 -0.40 -0.00    +0.000 A 
DOCKED: ATOM     31  C   UNL     1      20.585 -10.569  -5.248 -0.38 -0.00    +0.000 A 
DOCKED: ATOM     32  C   UNL     1      21.036  -9.246  -5.077 -0.28 -0.00    +0.000 A 
DOCKED: ATOM     33  H   UNL     1      21.795  -6.781  -3.984 -0.02 -0.00    +0.000 HD
DOCKED: ENDBRANCH  23  24
DOCKED: ENDBRANCH  22  23
DOCKED: ENDBRANCH   1  22
DOCKED: TORSDOF 11
DOCKED: TER
DOCKED: ENDMDL
________________________________________________________________________________


	BEGINNING GENETIC ALGORITHM DOCKING 8 of 100
Run: 8 Seed: 1767533292 1652208320 [ Run 8 of 100 GA/GALS ]
Beginning LAMARCKIAN GENETIC ALGORITHM (LGA), with a maximum of 2500000 energy evaluations.

Final-Value: -14.392


	FINAL GENETIC ALGORITHM DOCKED STATE
	_______________________________________________


Detailed state:  trans 21.065 -10.079 -4.810 quatxyzw 0.658899 0.225979 -0.700553 -0.154954 center 0.460 0.128 -0.007 ntor 11 41.8842 90.2345 104.7253 32.5815 -136.7311 -177.2391 -179.2144 66.2723 63.4263 -143.8510 33.1109
State:	 21.065 -10.079  -4.810   0.667  0.229 -0.709 -162.172     41.88   90.23  104.73   32.58 -136.73 -177.24 -179.21   66.27   63.43 -143.85   33.11

DOCKED: MODEL        8
DOCKED: USER    Run = 8
DOCKED: USER    DPF = ligand_dock.biased.dpf
DOCKED: USER  
DOCKED: USER    Estimated Free Energy of Binding    =   -8.42 kcal/mol  [=(1)+(2)+(3)-(4)]
DOCKED: USER    Estimated Inhibition Constant, Ki   =  671.72 nM (nanomolar)  [Temperature = 298.15 K]
DOCKED: USER    
DOCKED: USER    (1) Final Intermolecular Energy     =  -11.70 kcal/mol
DOCKED: USER        vdW + Hbond + desolv Energy     =  -11.70 kcal/mol
DOCKED: USER        Electrostatic Energy            =   +0.00 kcal/mol
DOCKED: USER    (2) Final Total Internal Energy     =   -2.69 kcal/mol
DOCKED: USER    (3) Torsional Free Energy           =   +3.28 kcal/mol
DOCKED: USER    (4) Unbound System's Energy  [=(2)] =   -2.69 kcal/mol
DOCKED: USER    
DOCKED: USER    
DOCKED: USER    NEWDPF move ligand.pdbqt
DOCKED: USER    NEWDPF about 0.460000 0.128000 -0.007000
DOCKED: USER    NEWDPF tran0 21.065483 -10.078671 -4.810044
DOCKED: USER    NEWDPF quaternion0 0.658899 0.225979 -0.700553 -0.154954
DOCKED: USER    NEWDPF axisangle0 0.666955 0.228742 -0.709118 -162.171772
DOCKED: USER    NEWDPF quat0 0.666955 0.228742 -0.709118 -162.171772
DOCKED: USER    NEWDPF dihe0 41.88 90.23 104.73 32.58 -136.73 -177.24 -179.21 66.27 63.43 -143.85 33.11 
DOCKED: USER  keepresnum = 1 
DOCKED: USER  
DOCKED: REMARK  Name = 
DOCKED: REMARK  11 active torsions:
DOCKED: REMARK  status: ('A' for Active; 'I' for Inactive)
DOCKED: REMARK    1  A    between atoms: C_2  and  C_5
DOCKED: REMARK    2  A    between atoms: N_3  and  O_4
DOCKED: REMARK    3  A    between atoms: C_6  and  C_7
DOCKED: REMARK    4  A    between atoms: C_10  and  C_11
DOCKED: REMARK    5  A    between atoms: C_11  and  N_12
DOCKED: REMARK    6  A    between atoms: N_12  and  C_13
DOCKED: REMARK    7  A    between atoms: N_12  and  C_16
DOCKED: REMARK    8  A    between atoms: C_13  and  C_14
DOCKED: REMARK    9  A    between atoms: C_14  and  O_15
DOCKED: REMARK   10  A    between atoms: C_16  and  C_17
DOCKED: REMARK   11  A    between atoms: C_17  and  C_18
DOCKED: REMARK                            x       y       z     vdW  Elec       q    Type
DOCKED: REMARK                         _______ _______ _______ _____ _____    ______ ____
DOCKED: USER                              x       y       z     vdW  Elec       q    Type
DOCKED: USER                           _______ _______ _______ _____ _____    ______ ____
DOCKED: ROOT
DOCKED: ATOM      1  N   UNL     1      20.510  -9.091  -3.742 -0.33 -0.00    +0.000 N 
DOCKED: ATOM      2  H   UNL     1      21.227  -8.695  -4.350 -0.01 -0.00    +0.000 HD
DOCKED: ENDROOT
DOCKED: BRANCH   1   3
DOCKED: ATOM      3  C   UNL     1      20.205 -10.458  -4.217 -0.44 -0.00    +0.000 C 
DOCKED: BRANCH   3   7
DOCKED: ATOM      4  C   UNL     1      22.570 -11.403  -7.717 -0.33 -0.00    +0.000 A 
DOCKED: ATOM      5  C   UNL     1      22.891 -11.960  -6.467 -0.47 -0.00    +0.000 A 
DOCKED: ATOM      6  C   UNL     1      22.136 -11.650  -5.333 -0.49 -0.00    +0.000 A 
DOCKED: ATOM      7  C   UNL     1      21.038 -10.783  -5.429 -0.42 -0.00    +0.000 A 
DOCKED: ATOM      8  C   UNL     1      20.699 -10.241  -6.676 -0.26 -0.00    +0.000 A 
DOCKED: ATOM      9  C   UNL     1      21.454 -10.548  -7.812 -0.25 -0.00    +0.000 A 
DOCKED: BRANCH   4  11
DOCKED: ATOM     10  C   UNL     1      24.115 -12.902  -8.970 -0.30 -0.00    +0.000 C 
DOCKED: ATOM     11  C   UNL     1      23.398 -11.773  -8.892 -0.37 -0.00    +0.000 C 
DOCKED: BRANCH  10  13
DOCKED: ATOM     12  O   UNL     1      25.386 -12.338 -10.871 -0.25 -0.00    +0.000 OA
DOCKED: ATOM     13  C   UNL     1      24.937 -13.264 -10.144 -0.34 -0.00    +0.000 C 
DOCKED: ATOM     14  N   UNL     1      25.262 -14.624 -10.463 -0.37 -0.00    +0.000 N 
DOCKED: ATOM     15  H   UNL     1      25.005 -15.347  -9.847 -0.07 +0.00    +0.000 HD
DOCKED: BRANCH  14  16
DOCKED: ATOM     16  O   UNL     1      25.921 -14.915 -11.610 -0.34 -0.00    +0.000 OA
DOCKED: ATOM     17  H   UNL     1      26.625 -14.263 -11.751 -0.57 -0.00    +0.000 HD
DOCKED: ENDBRANCH  14  16
DOCKED: ENDBRANCH  10  13
DOCKED: ENDBRANCH   4  11
DOCKED: ENDBRANCH   3   7
DOCKED: ENDBRANCH   1   3
DOCKED: BRANCH   1  18
DOCKED: ATOM     18  C   UNL     1      19.338  -8.195  -3.882 -0.16 -0.00    +0.000 C 
DOCKED: BRANCH  18  19
DOCKED: ATOM     19  C   UNL     1      19.705  -6.853  -4.536 -0.18 -0.00    +0.000 C 
DOCKED: BRANCH  19  20
DOCKED: ATOM     20  O   UNL     1      20.910  -6.949  -5.248 -0.16 -0.00    +0.000 OA
DOCKED: ATOM     21  H   UNL     1      21.021  -7.855  -5.575 +0.00 -0.00    +0.000 HD
DOCKED: ENDBRANCH  19  20
DOCKED: ENDBRANCH  18  19
DOCKED: ENDBRANCH   1  18
DOCKED: BRANCH   1  22
DOCKED: ATOM     22  C   UNL     1      21.122  -9.095  -2.391 -0.52 -0.00    +0.000 C 
DOCKED: BRANCH  22  23
DOCKED: ATOM     23  C   UNL     1      21.227 -10.493  -1.749 -0.60 -0.00    +0.000 C 
DOCKED: BRANCH  23  24
DOCKED: ATOM     24  C   UNL     1      20.501 -10.518  -0.438 -0.58 -0.00    +0.000 A 
DOCKED: ATOM     25  C   UNL     1      21.016 -10.155   0.804 -0.50 -0.00    +0.000 A 
DOCKED: ATOM     26  N   UNL     1      20.103 -10.380   1.776 -0.56 -0.00    +0.000 N 
DOCKED: ATOM     27  C   UNL     1      19.024 -10.895   1.161 -0.51 -0.00    +0.000 A 
DOCKED: ATOM     28  C   UNL     1      19.231 -11.000  -0.190 -0.47 -0.00    +0.000 A 
DOCKED: ATOM     29  C   UNL     1      18.266 -11.534  -1.044 -0.34 -0.00    +0.000 A 
DOCKED: ATOM     30  C   UNL     1      17.051 -11.958  -0.475 -0.37 +0.00    +0.000 A 
DOCKED: ATOM     31  C   UNL     1      16.833 -11.846   0.916 -0.43 +0.00    +0.000 A 
DOCKED: ATOM     32  C   UNL     1      17.831 -11.309   1.752 -0.44 -0.00    +0.000 A 
DOCKED: ATOM     33  H   UNL     1      20.207 -10.202   2.738 -0.28 -0.00    +0.000 HD
DOCKED: ENDBRANCH  23  24
DOCKED: ENDBRANCH  22  23
DOCKED: ENDBRANCH   1  22
DOCKED: TORSDOF 11
DOCKED: TER
DOCKED: ENDMDL
________________________________________________________________________________


	BEGINNING GENETIC ALGORITHM DOCKING 9 of 100
Run: 9 Seed: 395481426 1602559831 [ Run 9 of 100 GA/GALS ]
Beginning LAMARCKIAN GENETIC ALGORITHM (LGA), with a maximum of 2500000 energy evaluations.

Final-Value: -15.329


	FINAL GENETIC ALGORITHM DOCKED STATE
	_______________________________________________


Detailed state:  trans 21.972 -9.294 -5.046 quatxyzw -0.235159 0.793867 0.165639 0.535760 center 0.460 0.128 -0.007 ntor 11 27.5519 73.2922 -3.9194 61.4514 -121.9587 139.8749 -83.9102 -38.5493 -158.0945 -168.7526 3.9391
State:	 21.972  -9.294  -5.046  -0.279  0.940  0.196 115.209     27.55   73.29   -3.92   61.45 -121.96  139.87  -83.91  -38.55 -158.09 -168.75    3.94

DOCKED: MODEL        9
DOCKED: USER    Run = 9
DOCKED: USER    DPF = ligand_dock.biased.dpf
DOCKED: USER  
DOCKED: USER    Estimated Free Energy of Binding    =   -9.94 kcal/mol  [=(1)+(2)+(3)-(4)]
DOCKED: USER    Estimated Inhibition Constant, Ki   =   51.51 nM (nanomolar)  [Temperature = 298.15 K]
DOCKED: USER    
DOCKED: USER    (1) Final Intermolecular Energy     =  -13.22 kcal/mol
DOCKED: USER        vdW + Hbond + desolv Energy     =  -13.22 kcal/mol
DOCKED: USER        Electrostatic Energy            =   +0.00 kcal/mol
DOCKED: USER    (2) Final Total Internal Energy     =   -2.10 kcal/mol
DOCKED: USER    (3) Torsional Free Energy           =   +3.28 kcal/mol
DOCKED: USER    (4) Unbound System's Energy  [=(2)] =   -2.10 kcal/mol
DOCKED: USER    
DOCKED: USER    
DOCKED: USER    NEWDPF move ligand.pdbqt
DOCKED: USER    NEWDPF about 0.460000 0.128000 -0.007000
DOCKED: USER    NEWDPF tran0 21.971879 -9.293990 -5.046352
DOCKED: USER    NEWDPF quaternion0 -0.235159 0.793867 0.165639 0.535760
DOCKED: USER    NEWDPF axisangle0 -0.278502 0.940188 0.196169 115.209000
DOCKED: USER    NEWDPF quat0 -0.278502 0.940188 0.196169 115.209000
DOCKED: USER    NEWDPF dihe0 27.55 73.29 -3.92 61.45 -121.96 139.87 -83.91 -38.55 -158.09 -168.75 3.94 
DOCKED: USER  keepresnum = 1 
DOCKED: USER  
DOCKED: REMARK  Name = 
DOCKED: REMARK  11 active torsions:
DOCKED: REMARK  status: ('A' for Active; 'I' for Inactive)
DOCKED: REMARK    1  A    between atoms: C_2  and  C_5
DOCKED: REMARK    2  A    between atoms: N_3  and  O_4
DOCKED: REMARK    3  A    between atoms: C_6  and  C_7
DOCKED: REMARK    4  A    between atoms: C_10  and  C_11
DOCKED: REMARK    5  A    between atoms: C_11  and  N_12
DOCKED: REMARK    6  A    between atoms: N_12  and  C_13
DOCKED: REMARK    7  A    between atoms: N_12  and  C_16
DOCKED: REMARK    8  A    between atoms: C_13  and  C_14
DOCKED: REMARK    9  A    between atoms: C_14  and  O_15
DOCKED: REMARK   10  A    between atoms: C_16  and  C_17
DOCKED: REMARK   11  A    between atoms: C_17  and  C_18
DOCKED: REMARK                            x       y       z     vdW  Elec       q    Type
DOCKED: REMARK                         _______ _______ _______ _____ _____    ______ ____
DOCKED: USER                              x       y       z     vdW  Elec       q    Type
DOCKED: USER                           _______ _______ _______ _____ _____    ______ ____
DOCKED: ROOT
DOCKED: ATOM      1  N   UNL     1      22.519  -9.818  -6.407 -0.29 -0.00    +0.000 N 
DOCKED: ATOM      2  H   UNL     1      23.094 -10.060  -5.599 -0.01 -0.00    +0.000 HD
DOCKED: ENDROOT
DOCKED: BRANCH   1   3
DOCKED: ATOM      3  C   UNL     1      21.300  -9.138  -5.918 -0.26 -0.00    +0.000 C 
DOCKED: BRANCH   3   7
DOCKED: ATOM      4  C   UNL     1      20.236 -10.573  -1.976 -0.45 -0.00    +0.000 A 
DOCKED: ATOM      5  C   UNL     1      21.248  -9.612  -2.136 -0.50 -0.00    +0.000 A 
DOCKED: ATOM      6  C   UNL     1      21.601  -9.152  -3.408 -0.33 -0.00    +0.000 A 
DOCKED: ATOM      7  C   UNL     1      20.942  -9.641  -4.545 -0.34 -0.00    +0.000 A 
DOCKED: ATOM      8  C   UNL     1      19.917 -10.585  -4.391 -0.38 -0.00    +0.000 A 
DOCKED: ATOM      9  C   UNL     1      19.563 -11.047  -3.120 -0.38 -0.00    +0.000 A 
DOCKED: BRANCH   4  11
DOCKED: ATOM     10  C   UNL     1      20.702 -10.863   0.454 -0.70 -0.00    +0.000 C 
DOCKED: ATOM     11  C   UNL     1      19.893 -11.020  -0.603 -0.53 -0.00    +0.000 C 
DOCKED: BRANCH  10  13
DOCKED: ATOM     12  O   UNL     1      19.783 -12.424   1.958 -1.67 -0.00    +0.000 OA
DOCKED: ATOM     13  C   UNL     1      20.353 -11.310   1.819 -0.76 -0.00    +0.000 C 
DOCKED: ATOM     14  N   UNL     1      20.667 -10.533   2.983 -0.60 -0.00    +0.000 N 
DOCKED: ATOM     15  H   UNL     1      21.202  -9.712   2.896 -0.58 -0.00    +0.000 HD
DOCKED: BRANCH  14  16
DOCKED: ATOM     16  O   UNL     1      20.228 -10.928   4.203 -0.74 -0.00    +0.000 OA
DOCKED: ATOM     17  H   UNL     1      20.119 -11.892   4.210 -0.17 -0.00    +0.000 HD
DOCKED: ENDBRANCH  14  16
DOCKED: ENDBRANCH  10  13
DOCKED: ENDBRANCH   4  11
DOCKED: ENDBRANCH   3   7
DOCKED: ENDBRANCH   1   3
DOCKED: BRANCH   1  18
DOCKED: ATOM     18  C   UNL     1      22.194 -11.110  -7.059 -0.39 -0.00    +0.000 C 
DOCKED: BRANCH  18  19
DOCKED: ATOM     19  C   UNL     1      22.517 -12.314  -6.160 -0.37 -0.00    +0.000 C 
DOCKED: BRANCH  19  20
DOCKED: ATOM     20  O   UNL     1      23.842 -12.738  -6.338 -1.12 +0.00    +0.000 OA
DOCKED: ATOM     21  H   UNL     1      24.332 -12.069  -6.839 -0.06 +0.00    +0.000 HD
DOCKED: ENDBRANCH  19  20
DOCKED: ENDBRANCH  18  19
DOCKED: ENDBRANCH   1  18
DOCKED: BRANCH   1  22
DOCKED: ATOM     22  C   UNL     1      23.371  -8.917  -7.220 -0.23 -0.00    +0.000 C 
DOCKED: BRANCH  22  23
DOCKED: ATOM     23  C   UNL     1      24.873  -8.991  -6.878 -0.12 -0.00    +0.000 C 
DOCKED: BRANCH  23  24
DOCKED: ATOM     24  C   UNL     1      25.686  -9.101  -8.132 -0.23 -0.00    +0.000 A 
DOCKED: ATOM     25  C   UNL     1      25.222  -8.964  -9.438 -0.09 -0.00    +0.000 A 
DOCKED: ATOM     26  N   UNL     1      26.219  -9.206 -10.319 -0.08 -0.00    +0.000 N 
DOCKED: ATOM     27  C   UNL     1      27.302  -9.508  -9.583 -0.17 -0.00    +0.000 A 
DOCKED: ATOM     28  C   UNL     1      27.015  -9.461  -8.243 -0.29 -0.00    +0.000 A 
DOCKED: ATOM     29  C   UNL     1      27.971  -9.763  -7.273 -0.46 -0.00    +0.000 A 
DOCKED: ATOM     30  C   UNL     1      29.261 -10.113  -7.713 -0.44 -0.00    +0.000 A 
DOCKED: ATOM     31  C   UNL     1      29.560 -10.157  -9.092 -0.28 -0.00    +0.000 A 
DOCKED: ATOM     32  C   UNL     1      28.571  -9.853 -10.046 -0.21 -0.00    +0.000 A 
DOCKED: ATOM     33  H   UNL     1      26.162  -9.168 -11.301 +0.00 -0.00    +0.000 HD
DOCKED: ENDBRANCH  23  24
DOCKED: ENDBRANCH  22  23
DOCKED: ENDBRANCH   1  22
DOCKED: TORSDOF 11
DOCKED: TER
DOCKED: ENDMDL
________________________________________________________________________________


	BEGINNING GENETIC ALGORITHM DOCKING 10 of 100
Run: 10 Seed: 1083969382 535172881 [ Run 10 of 100 GA/GALS ]
Beginning LAMARCKIAN GENETIC ALGORITHM (LGA), with a maximum of 2500000 energy evaluations.

Final-Value: -15.832


	FINAL GENETIC ALGORITHM DOCKED STATE
	_______________________________________________


Detailed state:  trans 21.694 -9.460 -5.692 quatxyzw -0.353551 0.728404 0.064419 0.583334 center 0.460 0.128 -0.007 ntor 11 30.5251 94.2854 -179.8199 31.3742 33.8979 -27.0477 124.7358 -100.1424 179.9355 173.5327 16.9218
State:	 21.694  -9.460  -5.692  -0.435  0.897  0.079 108.629     30.53   94.29 -179.82   31.37   33.90  -27.05  124.74 -100.14  179.94  173.53   16.92

DOCKED: MODEL       10
DOCKED: USER    Run = 10
DOCKED: USER    DPF = ligand_dock.biased.dpf
DOCKED: USER  
DOCKED: USER    Estimated Free Energy of Binding    =   -9.97 kcal/mol  [=(1)+(2)+(3)-(4)]
DOCKED: USER    Estimated Inhibition Constant, Ki   =   49.29 nM (nanomolar)  [Temperature = 298.15 K]
DOCKED: USER    
DOCKED: USER    (1) Final Intermolecular Energy     =  -13.25 kcal/mol
DOCKED: USER        vdW + Hbond + desolv Energy     =  -13.25 kcal/mol
DOCKED: USER        Electrostatic Energy            =   +0.00 kcal/mol
DOCKED: USER    (2) Final Total Internal Energy     =   -2.58 kcal/mol
DOCKED: USER    (3) Torsional Free Energy           =   +3.28 kcal/mol
DOCKED: USER    (4) Unbound System's Energy  [=(2)] =   -2.58 kcal/mol
DOCKED: USER    
DOCKED: USER    
DOCKED: USER    NEWDPF move ligand.pdbqt
DOCKED: USER    NEWDPF about 0.460000 0.128000 -0.007000
DOCKED: USER    NEWDPF tran0 21.693637 -9.460498 -5.691968
DOCKED: USER    NEWDPF quaternion0 -0.353551 0.728404 0.064419 0.583334
DOCKED: USER    NEWDPF axisangle0 -0.435283 0.896794 0.079311 108.629177
DOCKED: USER    NEWDPF quat0 -0.435283 0.896794 0.079311 108.629177
DOCKED: USER    NEWDPF dihe0 30.53 94.29 -179.82 31.37 33.90 -27.05 124.74 -100.14 179.94 173.53 16.92 
DOCKED: USER  keepresnum = 1 
DOCKED: USER  
DOCKED: REMARK  Name = 
DOCKED: REMARK  11 active torsions:
DOCKED: REMARK  status: ('A' for Active; 'I' for Inactive)
DOCKED: REMARK    1  A    between atoms: C_2  and  C_5
DOCKED: REMARK    2  A    between atoms: N_3  and  O_4
DOCKED: REMARK    3  A    between atoms: C_6  and  C_7
DOCKED: REMARK    4  A    between atoms: C_10  and  C_11
DOCKED: REMARK    5  A    between atoms: C_11  and  N_12
DOCKED: REMARK    6  A    between atoms: N_12  and  C_13
DOCKED: REMARK    7  A    between atoms: N_12  and  C_16
DOCKED: REMARK    8  A    between atoms: C_13  and  C_14
DOCKED: REMARK    9  A    between atoms: C_14  and  O_15
DOCKED: REMARK   10  A    between atoms: C_16  and  C_17
DOCKED: REMARK   11  A    between atoms: C_17  and  C_18
DOCKED: REMARK                            x       y       z     vdW  Elec       q    Type
DOCKED: REMARK                         _______ _______ _______ _____ _____    ______ ____
DOCKED: USER                              x       y       z     vdW  Elec       q    Type
DOCKED: USER                           _______ _______ _______ _____ _____    ______ ____
DOCKED: ROOT
DOCKED: ATOM      1  N   UNL     1      22.314  -9.829  -7.072 -0.25 -0.00    +0.000 N 
DOCKED: ATOM      2  H   UNL     1      22.978  -9.828  -6.297 -0.02 -0.00    +0.000 HD
DOCKED: ENDROOT
DOCKED: BRANCH   1   3
DOCKED: ATOM      3  C   UNL     1      20.964  -9.578  -6.523 -0.24 -0.00    +0.000 C 
DOCKED: BRANCH   3   7
DOCKED: ATOM      4  C   UNL     1      20.910 -10.254  -2.248 -0.51 -0.00    +0.000 A 
DOCKED: ATOM      5  C   UNL     1      21.722  -9.250  -2.801 -0.28 -0.00    +0.000 A 
DOCKED: ATOM      6  C   UNL     1      21.749  -9.034  -4.181 -0.28 -0.00    +0.000 A 
DOCKED: ATOM      7  C   UNL     1      20.958  -9.815  -5.036 -0.32 -0.00    +0.000 A 
DOCKED: ATOM      8  C   UNL     1      20.129 -10.805  -4.489 -0.42 -0.00    +0.000 A 
DOCKED: ATOM      9  C   UNL     1      20.101 -11.024  -3.108 -0.34 -0.00    +0.000 A 
DOCKED: BRANCH   4  11
DOCKED: ATOM     10  C   UNL     1      20.091 -11.278  -0.129 -0.55 -0.00    +0.000 C 
DOCKED: ATOM     11  C   UNL     1      20.910 -10.435  -0.775 -0.67 -0.00    +0.000 C 
DOCKED: BRANCH  10  13
DOCKED: ATOM     12  O   UNL     1      19.543 -12.475   1.823 -1.59 -0.00    +0.000 OA
DOCKED: ATOM     13  C   UNL     1      20.097 -11.453   1.338 -0.74 -0.00    +0.000 C 
DOCKED: ATOM     14  N   UNL     1      20.734 -10.518   2.220 -0.51 -0.00    +0.000 N 
DOCKED: ATOM     15  H   UNL     1      21.258  -9.772   1.848 -0.56 -0.00    +0.000 HD
DOCKED: BRANCH  14  16
DOCKED: ATOM     16  O   UNL     1      20.617 -10.660   3.562 -0.82 -0.00    +0.000 OA
DOCKED: ATOM     17  H   UNL     1      20.525 -11.600   3.780 -0.30 -0.00    +0.000 HD
DOCKED: ENDBRANCH  14  16
DOCKED: ENDBRANCH  10  13
DOCKED: ENDBRANCH   4  11
DOCKED: ENDBRANCH   3   7
DOCKED: ENDBRANCH   1   3
DOCKED: BRANCH   1  18
DOCKED: ATOM     18  C   UNL     1      22.413 -11.182  -7.670 -0.37 -0.00    +0.000 C 
DOCKED: BRANCH  18  19
DOCKED: ATOM     19  C   UNL     1      23.687 -11.922  -7.233 -0.52 -0.00    +0.000 C 
DOCKED: BRANCH  19  20
DOCKED: ATOM     20  O   UNL     1      23.434 -12.766  -6.142 -1.05 -0.00    +0.000 OA
DOCKED: ATOM     21  H   UNL     1      22.535 -13.122  -6.210 -0.47 -0.00    +0.000 HD
DOCKED: ENDBRANCH  19  20
DOCKED: ENDBRANCH  18  19
DOCKED: ENDBRANCH   1  18
DOCKED: BRANCH   1  22
DOCKED: ATOM     22  C   UNL     1      22.768  -8.731  -7.958 -0.15 -0.00    +0.000 C 
DOCKED: BRANCH  22  23
DOCKED: ATOM     23  C   UNL     1      23.960  -7.925  -7.406 -0.18 -0.00    +0.000 C 
DOCKED: BRANCH  23  24
DOCKED: ATOM     24  C   UNL     1      25.212  -8.747  -7.458 -0.23 -0.00    +0.000 A 
DOCKED: ATOM     25  C   UNL     1      26.234  -8.766  -6.513 -0.07 -0.00    +0.000 A 
DOCKED: ATOM     26  N   UNL     1      27.243  -9.566  -6.926 -0.45 -0.00    +0.000 N 
DOCKED: ATOM     27  C   UNL     1      26.874 -10.039  -8.129 -0.36 -0.00    +0.000 A 
DOCKED: ATOM     28  C   UNL     1      25.643  -9.557  -8.491 -0.23 -0.00    +0.000 A 
DOCKED: ATOM     29  C   UNL     1      25.054  -9.882  -9.713 -0.12 -0.00    +0.000 A 
DOCKED: ATOM     30  C   UNL     1      25.764 -10.740 -10.574 -0.15 -0.00    +0.000 A 
DOCKED: ATOM     31  C   UNL     1      27.030 -11.242 -10.200 -0.14 -0.00    +0.000 A 
DOCKED: ATOM     32  C   UNL     1      27.600 -10.889  -8.963 -0.33 -0.00    +0.000 A 
DOCKED: ATOM     33  H   UNL     1      28.078  -9.761  -6.444 -0.05 -0.00    +0.000 HD
DOCKED: ENDBRANCH  23  24
DOCKED: ENDBRANCH  22  23
DOCKED: ENDBRANCH   1  22
DOCKED: TORSDOF 11
DOCKED: TER
DOCKED: ENDMDL
________________________________________________________________________________


	BEGINNING GENETIC ALGORITHM DOCKING 11 of 100
Run: 11 Seed: 481004621 1797906689 [ Run 11 of 100 GA/GALS ]
Beginning LAMARCKIAN GENETIC ALGORITHM (LGA), with a maximum of 2500000 energy evaluations.

Final-Value: -15.976


	FINAL GENETIC ALGORITHM DOCKED STATE
	_______________________________________________


Detailed state:  trans 21.006 -9.348 -5.236 quatxyzw 0.188533 0.700228 0.668634 0.164513 center 0.460 0.128 -0.007 ntor 11 65.2499 -21.5352 90.8137 25.5575 -94.1687 124.5549 -35.3538 -8.8785 -169.6903 -107.1149 41.5601
State:	 21.006  -9.348  -5.236   0.191  0.710  0.678 161.062     65.25  -21.54   90.81   25.56  -94.17  124.55  -35.35   -8.88 -169.69 -107.11   41.56

DOCKED: MODEL       11
DOCKED: USER    Run = 11
DOCKED: USER    DPF = ligand_dock.biased.dpf
DOCKED: USER  
DOCKED: USER    Estimated Free Energy of Binding    =  -10.31 kcal/mol  [=(1)+(2)+(3)-(4)]
DOCKED: USER    Estimated Inhibition Constant, Ki   =   27.73 nM (nanomolar)  [Temperature = 298.15 K]
DOCKED: USER    
DOCKED: USER    (1) Final Intermolecular Energy     =  -13.59 kcal/mol
DOCKED: USER        vdW + Hbond + desolv Energy     =  -13.59 kcal/mol
DOCKED: USER        Electrostatic Energy            =   +0.00 kcal/mol
DOCKED: USER    (2) Final Total Internal Energy     =   -2.39 kcal/mol
DOCKED: USER    (3) Torsional Free Energy           =   +3.28 kcal/mol
DOCKED: USER    (4) Unbound System's Energy  [=(2)] =   -2.39 kcal/mol
DOCKED: USER    
DOCKED: USER    
DOCKED: USER    NEWDPF move ligand.pdbqt
DOCKED: USER    NEWDPF about 0.460000 0.128000 -0.007000
DOCKED: USER    NEWDPF tran0 21.006042 -9.347882 -5.236270
DOCKED: USER    NEWDPF quaternion0 0.188533 0.700228 0.668634 0.164513
DOCKED: USER    NEWDPF axisangle0 0.191137 0.709901 0.677870 161.062110
DOCKED: USER    NEWDPF quat0 0.191137 0.709901 0.677870 161.062110
DOCKED: USER    NEWDPF dihe0 65.25 -21.54 90.81 25.56 -94.17 124.55 -35.35 -8.88 -169.69 -107.11 41.56 
DOCKED: USER  keepresnum = 1 
DOCKED: USER  
DOCKED: REMARK  Name = 
DOCKED: REMARK  11 active torsions:
DOCKED: REMARK  status: ('A' for Active; 'I' for Inactive)
DOCKED: REMARK    1  A    between atoms: C_2  and  C_5
DOCKED: REMARK    2  A    between atoms: N_3  and  O_4
DOCKED: REMARK    3  A    between atoms: C_6  and  C_7
DOCKED: REMARK    4  A    between atoms: C_10  and  C_11
DOCKED: REMARK    5  A    between atoms: C_11  and  N_12
DOCKED: REMARK    6  A    between atoms: N_12  and  C_13
DOCKED: REMARK    7  A    between atoms: N_12  and  C_16
DOCKED: REMARK    8  A    between atoms: C_13  and  C_14
DOCKED: REMARK    9  A    between atoms: C_14  and  O_15
DOCKED: REMARK   10  A    between atoms: C_16  and  C_17
DOCKED: REMARK   11  A    between atoms: C_17  and  C_18
DOCKED: REMARK                            x       y       z     vdW  Elec       q    Type
DOCKED: REMARK                         _______ _______ _______ _____ _____    ______ ____
DOCKED: USER                              x       y       z     vdW  Elec       q    Type
DOCKED: USER                           _______ _______ _______ _____ _____    ______ ____
DOCKED: ROOT
DOCKED: ATOM      1  N   UNL     1      21.221  -9.441  -6.776 -0.19 -0.00    +0.000 N 
DOCKED: ATOM      2  H   UNL     1      20.748 -10.247  -6.366 -0.00 -0.00    +0.000 HD
DOCKED: ENDROOT
DOCKED: BRANCH   1   3
DOCKED: ATOM      3  C   UNL     1      21.416  -8.431  -5.713 -0.24 -0.00    +0.000 C 
DOCKED: BRANCH   3   7
DOCKED: ATOM      4  C   UNL     1      20.278 -10.068  -1.872 -0.47 -0.00    +0.000 A 
DOCKED: ATOM      5  C   UNL     1      21.390  -9.216  -1.983 -0.48 -0.00    +0.000 A 
DOCKED: ATOM      6  C   UNL     1      21.766  -8.693  -3.223 -0.28 -0.00    +0.000 A 
DOCKED: ATOM      7  C   UNL     1      21.031  -9.005  -4.376 -0.31 -0.00    +0.000 A 
DOCKED: ATOM      8  C   UNL     1      19.908  -9.838  -4.269 -0.31 -0.00    +0.000 A 
DOCKED: ATOM      9  C   UNL     1      19.531 -10.364  -3.029 -0.37 -0.00    +0.000 A 
DOCKED: BRANCH   4  11
DOCKED: ATOM     10  C   UNL     1      20.813 -10.892   0.418 -0.70 -0.00    +0.000 C 
DOCKED: ATOM     11  C   UNL     1      19.915 -10.589  -0.530 -0.57 -0.00    +0.000 C 
DOCKED: BRANCH  10  13
DOCKED: ATOM     12  O   UNL     1      19.966 -12.572   1.834 -1.63 -0.00    +0.000 OA
DOCKED: ATOM     13  C   UNL     1      20.444 -11.409   1.752 -0.76 -0.00    +0.000 C 
DOCKED: ATOM     14  N   UNL     1      20.639 -10.647   2.951 -0.64 -0.00    +0.000 N 
DOCKED: ATOM     15  H   UNL     1      21.106  -9.782   2.912 -0.59 -0.00    +0.000 HD
DOCKED: BRANCH  14  16
DOCKED: ATOM     16  O   UNL     1      20.182 -11.115   4.137 -0.77 -0.00    +0.000 OA
DOCKED: ATOM     17  H   UNL     1      20.663 -11.925   4.371 -0.46 -0.00    +0.000 HD
DOCKED: ENDBRANCH  14  16
DOCKED: ENDBRANCH  10  13
DOCKED: ENDBRANCH   4  11
DOCKED: ENDBRANCH   3   7
DOCKED: ENDBRANCH   1   3
DOCKED: BRANCH   1  18
DOCKED: ATOM     18  C   UNL     1      20.308  -8.946  -7.834 -0.13 -0.00    +0.000 C 
DOCKED: BRANCH  18  19
DOCKED: ATOM     19  C   UNL     1      19.335 -10.033  -8.319 -0.22 -0.00    +0.000 C 
DOCKED: BRANCH  19  20
DOCKED: ATOM     20  O   UNL     1      19.447 -11.196  -7.544 -0.34 -0.00    +0.000 OA
DOCKED: ATOM     21  H   UNL     1      20.193 -11.727  -7.862 -0.22 -0.00    +0.000 HD
DOCKED: ENDBRANCH  19  20
DOCKED: ENDBRANCH  18  19
DOCKED: ENDBRANCH   1  18
DOCKED: BRANCH   1  22
DOCKED: ATOM     22  C   UNL     1      22.510  -9.976  -7.278 -0.29 -0.00    +0.000 C 
DOCKED: BRANCH  22  23
DOCKED: ATOM     23  C   UNL     1      22.641 -11.509  -7.173 -0.43 -0.00    +0.000 C 
DOCKED: BRANCH  23  24
DOCKED: ATOM     24  C   UNL     1      23.747 -11.997  -8.058 -0.44 -0.00    +0.000 A 
DOCKED: ATOM     25  C   UNL     1      25.081 -11.602  -8.016 -0.36 -0.00    +0.000 A 
DOCKED: ATOM     26  N   UNL     1      25.779 -12.190  -9.014 -0.38 -0.00    +0.000 N 
DOCKED: ATOM     27  C   UNL     1      24.895 -12.940  -9.695 -0.33 -0.00    +0.000 A 
DOCKED: ATOM     28  C   UNL     1      23.642 -12.842  -9.145 -0.37 -0.00    +0.000 A 
DOCKED: ATOM     29  C   UNL     1      22.544 -13.508  -9.691 -0.08 -0.00    +0.000 A 
DOCKED: ATOM     30  C   UNL     1      22.762 -14.303 -10.832 -0.36 +0.00    +0.000 A 
DOCKED: ATOM     31  C   UNL     1      24.052 -14.408 -11.397 -0.30 -0.00    +0.000 A 
DOCKED: ATOM     32  C   UNL     1      25.138 -13.717 -10.826 -0.24 -0.00    +0.000 A 
DOCKED: ATOM     33  H   UNL     1      26.739 -12.089  -9.204 -0.30 -0.00    +0.000 HD
DOCKED: ENDBRANCH  23  24
DOCKED: ENDBRANCH  22  23
DOCKED: ENDBRANCH   1  22
DOCKED: TORSDOF 11
DOCKED: TER
DOCKED: ENDMDL
________________________________________________________________________________


	BEGINNING GENETIC ALGORITHM DOCKING 12 of 100
Run: 12 Seed: 233716165 1640441662 [ Run 12 of 100 GA/GALS ]
Beginning LAMARCKIAN GENETIC ALGORITHM (LGA), with a maximum of 2500000 energy evaluations.

Final-Value: -14.972


	FINAL GENETIC ALGORITHM DOCKED STATE
	_______________________________________________


Detailed state:  trans 21.496 -10.322 -6.654 quatxyzw 0.340137 -0.790355 -0.497748 -0.109057 center 0.460 0.128 -0.007 ntor 11 -156.6604 -180.0000 64.5537 51.3156 162.9097 91.3919 -147.7080 50.8224 -45.7168 -127.6776 69.6076
State:	 21.496 -10.322  -6.654   0.342 -0.795 -0.501 -167.478   -156.66 -180.00   64.55   51.32  162.91   91.39 -147.71   50.82  -45.72 -127.68   69.61

DOCKED: MODEL       12
DOCKED: USER    Run = 12
DOCKED: USER    DPF = ligand_dock.biased.dpf
DOCKED: USER  
DOCKED: USER    Estimated Free Energy of Binding    =   -9.50 kcal/mol  [=(1)+(2)+(3)-(4)]
DOCKED: USER    Estimated Inhibition Constant, Ki   =  109.55 nM (nanomolar)  [Temperature = 298.15 K]
DOCKED: USER    
DOCKED: USER    (1) Final Intermolecular Energy     =  -12.78 kcal/mol
DOCKED: USER        vdW + Hbond + desolv Energy     =  -12.78 kcal/mol
DOCKED: USER        Electrostatic Energy            =   +0.00 kcal/mol
DOCKED: USER    (2) Final Total Internal Energy     =   -2.20 kcal/mol
DOCKED: USER    (3) Torsional Free Energy           =   +3.28 kcal/mol
DOCKED: USER    (4) Unbound System's Energy  [=(2)] =   -2.20 kcal/mol
DOCKED: USER    
DOCKED: USER    
DOCKED: USER    NEWDPF move ligand.pdbqt
DOCKED: USER    NEWDPF about 0.460000 0.128000 -0.007000
DOCKED: USER    NEWDPF tran0 21.496161 -10.321599 -6.653923
DOCKED: USER    NEWDPF quaternion0 0.340137 -0.790355 -0.497748 -0.109057
DOCKED: USER    NEWDPF axisangle0 0.342178 -0.795097 -0.500735 -167.478132
DOCKED: USER    NEWDPF quat0 0.342178 -0.795097 -0.500735 -167.478132
DOCKED: USER    NEWDPF dihe0 -156.66 -180.00 64.55 51.32 162.91 91.39 -147.71 50.82 -45.72 -127.68 69.61 
DOCKED: USER  keepresnum = 1 
DOCKED: USER  
DOCKED: REMARK  Name = 
DOCKED: REMARK  11 active torsions:
DOCKED: REMARK  status: ('A' for Active; 'I' for Inactive)
DOCKED: REMARK    1  A    between atoms: C_2  and  C_5
DOCKED: REMARK    2  A    between atoms: N_3  and  O_4
DOCKED: REMARK    3  A    between atoms: C_6  and  C_7
DOCKED: REMARK    4  A    between atoms: C_10  and  C_11
DOCKED: REMARK    5  A    between atoms: C_11  and  N_12
DOCKED: REMARK    6  A    between atoms: N_12  and  C_13
DOCKED: REMARK    7  A    between atoms: N_12  and  C_16
DOCKED: REMARK    8  A    between atoms: C_13  and  C_14
DOCKED: REMARK    9  A    between atoms: C_14  and  O_15
DOCKED: REMARK   10  A    between atoms: C_16  and  C_17
DOCKED: REMARK   11  A    between atoms: C_17  and  C_18
DOCKED: REMARK                            x       y       z     vdW  Elec       q    Type
DOCKED: REMARK                         _______ _______ _______ _____ _____    ______ ____
DOCKED: USER                              x       y       z     vdW  Elec       q    Type
DOCKED: USER                           _______ _______ _______ _____ _____    ______ ____
DOCKED: ROOT
DOCKED: ATOM      1  N   UNL     1      22.731 -10.064  -7.566 -0.24 -0.00    +0.000 N 
DOCKED: ATOM      2  H   UNL     1      22.686 -11.004  -7.173 -0.02 -0.00    +0.000 HD
DOCKED: ENDROOT
DOCKED: BRANCH   1   3
DOCKED: ATOM      3  C   UNL     1      21.500  -9.342  -7.180 -0.21 -0.00    +0.000 C 
DOCKED: BRANCH   3   7
DOCKED: ATOM      4  C   UNL     1      20.250 -10.521  -3.208 -0.43 -0.00    +0.000 A 
DOCKED: ATOM      5  C   UNL     1      20.537  -9.176  -3.495 -0.37 -0.00    +0.000 A 
DOCKED: ATOM      6  C   UNL     1      20.949  -8.793  -4.774 -0.27 -0.00    +0.000 A 
DOCKED: ATOM      7  C   UNL     1      21.075  -9.748  -5.793 -0.27 -0.00    +0.000 A 
DOCKED: ATOM      8  C   UNL     1      20.770 -11.088  -5.519 -0.42 -0.00    +0.000 A 
DOCKED: ATOM      9  C   UNL     1      20.359 -11.475  -4.240 -0.37 -0.00    +0.000 A 
DOCKED: BRANCH   4  11
DOCKED: ATOM     10  C   UNL     1      20.595 -10.794  -0.755 -0.58 -0.00    +0.000 C 
DOCKED: ATOM     11  C   UNL     1      19.806 -10.874  -1.836 -0.45 -0.00    +0.000 C 
DOCKED: BRANCH  10  13
DOCKED: ATOM     12  O   UNL     1      18.948 -10.917   0.923 -0.63 -0.00    +0.000 OA
DOCKED: ATOM     13  C   UNL     1      20.146 -11.146   0.608 -0.68 -0.00    +0.000 C 
DOCKED: ATOM     14  N   UNL     1      21.017 -11.762   1.567 -0.71 -0.00    +0.000 N 
DOCKED: ATOM     15  H   UNL     1      21.922 -12.040   1.300 -0.55 -0.00    +0.000 HD
DOCKED: BRANCH  14  16
DOCKED: ATOM     16  O   UNL     1      20.595 -11.964   2.838 -1.12 -0.00    +0.000 OA
DOCKED: ATOM     17  H   UNL     1      21.364 -12.031   3.426 -0.62 -0.00    +0.000 HD
DOCKED: ENDBRANCH  14  16
DOCKED: ENDBRANCH  10  13
DOCKED: ENDBRANCH   4  11
DOCKED: ENDBRANCH   3   7
DOCKED: ENDBRANCH   1   3
DOCKED: BRANCH   1  18
DOCKED: ATOM     18  C   UNL     1      22.809 -10.256  -9.034 -0.19 -0.00    +0.000 C 
DOCKED: BRANCH  18  19
DOCKED: ATOM     19  C   UNL     1      22.711 -11.737  -9.435 -0.30 -0.00    +0.000 C 
DOCKED: BRANCH  19  20
DOCKED: ATOM     20  O   UNL     1      23.019 -12.576  -8.354 -0.50 -0.00    +0.000 OA
DOCKED: ATOM     21  H   UNL     1      22.253 -13.133  -8.148 -0.62 -0.00    +0.000 HD
DOCKED: ENDBRANCH  19  20
DOCKED: ENDBRANCH  18  19
DOCKED: ENDBRANCH   1  18
DOCKED: BRANCH   1  22
DOCKED: ATOM     22  C   UNL     1      23.943  -9.460  -6.961 -0.20 -0.00    +0.000 C 
DOCKED: BRANCH  22  23
DOCKED: ATOM     23  C   UNL     1      24.896  -8.802  -7.978 -0.22 -0.00    +0.000 C 
DOCKED: BRANCH  23  24
DOCKED: ATOM     24  C   UNL     1      26.319  -9.139  -7.650 -0.29 -0.00    +0.000 A 
DOCKED: ATOM     25  C   UNL     1      26.964  -8.929  -6.434 -0.31 -0.00    +0.000 A 
DOCKED: ATOM     26  N   UNL     1      28.266  -9.281  -6.524 -0.51 -0.00    +0.000 N 
DOCKED: ATOM     27  C   UNL     1      28.453  -9.698  -7.789 -0.42 -0.00    +0.000 A 
DOCKED: ATOM     28  C   UNL     1      27.288  -9.620  -8.508 -0.29 -0.00    +0.000 A 
DOCKED: ATOM     29  C   UNL     1      27.231  -9.971  -9.858 -0.19 -0.00    +0.000 A 
DOCKED: ATOM     30  C   UNL     1      28.417 -10.424 -10.467 -0.23 -0.00    +0.000 A 
DOCKED: ATOM     31  C   UNL     1      29.615 -10.509  -9.725 -0.25 -0.00    +0.000 A 
DOCKED: ATOM     32  C   UNL     1      29.641 -10.141  -8.367 -0.26 -0.00    +0.000 A 
DOCKED: ATOM     33  H   UNL     1      28.941  -9.241  -5.809 -0.04 -0.00    +0.000 HD
DOCKED: ENDBRANCH  23  24
DOCKED: ENDBRANCH  22  23
DOCKED: ENDBRANCH   1  22
DOCKED: TORSDOF 11
DOCKED: TER
DOCKED: ENDMDL
________________________________________________________________________________


	BEGINNING GENETIC ALGORITHM DOCKING 13 of 100
Run: 13 Seed: 84280864 719415111 [ Run 13 of 100 GA/GALS ]
Beginning LAMARCKIAN GENETIC ALGORITHM (LGA), with a maximum of 2500000 energy evaluations.

Final-Value: -16.654


	FINAL GENETIC ALGORITHM DOCKED STATE
	_______________________________________________


Detailed state:  trans 14.835 -13.439 1.072 quatxyzw 0.188686 -0.460453 -0.816347 -0.293186 center 0.460 0.128 -0.007 ntor 11 4.5393 178.1972 4.9010 -67.2873 17.3518 -159.5915 36.2765 16.1389 138.7297 -165.7226 -160.9373
State:	 14.835 -13.439   1.072   0.197 -0.482 -0.854 -145.902      4.54  178.20    4.90  -67.29   17.35 -159.59   36.28   16.14  138.73 -165.72 -160.94

DOCKED: MODEL       13
DOCKED: USER    Run = 13
DOCKED: USER    DPF = ligand_dock.biased.dpf
DOCKED: USER  
DOCKED: USER    Estimated Free Energy of Binding    =  -10.76 kcal/mol  [=(1)+(2)+(3)-(4)]
DOCKED: USER    Estimated Inhibition Constant, Ki   =   12.95 nM (nanomolar)  [Temperature = 298.15 K]
DOCKED: USER    
DOCKED: USER    (1) Final Intermolecular Energy     =  -14.04 kcal/mol
DOCKED: USER        vdW + Hbond + desolv Energy     =  -14.04 kcal/mol
DOCKED: USER        Electrostatic Energy            =   +0.00 kcal/mol
DOCKED: USER    (2) Final Total Internal Energy     =   -2.61 kcal/mol
DOCKED: USER    (3) Torsional Free Energy           =   +3.28 kcal/mol
DOCKED: USER    (4) Unbound System's Energy  [=(2)] =   -2.61 kcal/mol
DOCKED: USER    
DOCKED: USER    
DOCKED: USER    NEWDPF move ligand.pdbqt
DOCKED: USER    NEWDPF about 0.460000 0.128000 -0.007000
DOCKED: USER    NEWDPF tran0 14.834519 -13.439367 1.071677
DOCKED: USER    NEWDPF quaternion0 0.188686 -0.460453 -0.816347 -0.293186
DOCKED: USER    NEWDPF axisangle0 0.197359 -0.481617 -0.853870 -145.902378
DOCKED: USER    NEWDPF quat0 0.197359 -0.481617 -0.853870 -145.902378
DOCKED: USER    NEWDPF dihe0 4.54 178.20 4.90 -67.29 17.35 -159.59 36.28 16.14 138.73 -165.72 -160.94 
DOCKED: USER  keepresnum = 1 
DOCKED: USER  
DOCKED: REMARK  Name = 
DOCKED: REMARK  11 active torsions:
DOCKED: REMARK  status: ('A' for Active; 'I' for Inactive)
DOCKED: REMARK    1  A    between atoms: C_2  and  C_5
DOCKED: REMARK    2  A    between atoms: N_3  and  O_4
DOCKED: REMARK    3  A    between atoms: C_6  and  C_7
DOCKED: REMARK    4  A    between atoms: C_10  and  C_11
DOCKED: REMARK    5  A    between atoms: C_11  and  N_12
DOCKED: REMARK    6  A    between atoms: N_12  and  C_13
DOCKED: REMARK    7  A    between atoms: N_12  and  C_16
DOCKED: REMARK    8  A    between atoms: C_13  and  C_14
DOCKED: REMARK    9  A    between atoms: C_14  and  O_15
DOCKED: REMARK   10  A    between atoms: C_16  and  C_17
DOCKED: REMARK   11  A    between atoms: C_17  and  C_18
DOCKED: REMARK                            x       y       z     vdW  Elec       q    Type
DOCKED: REMARK                         _______ _______ _______ _____ _____    ______ ____
DOCKED: USER                              x       y       z     vdW  Elec       q    Type
DOCKED: USER                           _______ _______ _______ _____ _____    ______ ____
DOCKED: ROOT
DOCKED: ATOM      1  N   UNL     1      15.168 -12.332   0.029 -0.47 +0.00    +0.000 N 
DOCKED: ATOM      2  H   UNL     1      15.246 -13.285  -0.328 -0.04 +0.00    +0.000 HD
DOCKED: ENDROOT
DOCKED: BRANCH   1   3
DOCKED: ATOM      3  C   UNL     1      14.644 -12.398   1.410 -0.43 +0.00    +0.000 C 
DOCKED: BRANCH   3   7
DOCKED: ATOM      4  C   UNL     1      15.220  -8.616   3.434 -0.33 +0.00    +0.000 A 
DOCKED: ATOM      5  C   UNL     1      14.112  -8.813   2.592 -0.23 +0.00    +0.000 A 
DOCKED: ATOM      6  C   UNL     1      13.927 -10.029   1.930 -0.24 +0.00    +0.000 A 
DOCKED: ATOM      7  C   UNL     1      14.844 -11.076   2.104 -0.39 +0.00    +0.000 A 
DOCKED: ATOM      8  C   UNL     1      15.940 -10.893   2.958 -0.45 +0.00    +0.000 A 
DOCKED: ATOM      9  C   UNL     1      16.128  -9.677   3.621 -0.36 +0.00    +0.000 A 
DOCKED: BRANCH   4  11
DOCKED: ATOM     10  C   UNL     1      14.341  -6.644   4.677 -0.39 +0.00    +0.000 C 
DOCKED: ATOM     11  C   UNL     1      15.364  -7.308   4.122 -0.40 +0.00    +0.000 C 
DOCKED: BRANCH  10  13
DOCKED: ATOM     12  O   UNL     1      13.469  -4.804   5.860 -0.81 +0.00    +0.000 OA
DOCKED: ATOM     13  C   UNL     1      14.492  -5.342   5.361 -0.47 +0.00    +0.000 C 
DOCKED: ATOM     14  N   UNL     1      15.763  -4.691   5.499 -0.51 +0.00    +0.000 N 
DOCKED: ATOM     15  H   UNL     1      16.583  -5.149   5.205 -0.62 -0.00    +0.000 HD
DOCKED: BRANCH  14  16
DOCKED: ATOM     16  O   UNL     1      15.836  -3.448   6.032 -0.64 +0.00    +0.000 OA
DOCKED: ATOM     17  H   UNL     1      14.956  -3.173   6.332 -0.25 +0.00    +0.000 HD
DOCKED: ENDBRANCH  14  16
DOCKED: ENDBRANCH  10  13
DOCKED: ENDBRANCH   4  11
DOCKED: ENDBRANCH   3   7
DOCKED: ENDBRANCH   1   3
DOCKED: BRANCH   1  18
DOCKED: ATOM     18  C   UNL     1      14.216 -11.650  -0.880 -0.41 +0.00    +0.000 C 
DOCKED: BRANCH  18  19
DOCKED: ATOM     19  C   UNL     1      14.879 -10.509  -1.669 -0.30 -0.00    +0.000 C 
DOCKED: BRANCH  19  20
DOCKED: ATOM     20  O   UNL     1      15.000  -9.353  -0.884 -0.27 -0.00    +0.000 OA
DOCKED: ATOM     21  H   UNL     1      15.938  -9.135  -0.772 -0.02 -0.00    +0.000 HD
DOCKED: ENDBRANCH  19  20
DOCKED: ENDBRANCH  18  19
DOCKED: ENDBRANCH   1  18
DOCKED: BRANCH   1  22
DOCKED: ATOM     22  C   UNL     1      16.550 -11.798  -0.017 -0.45 +0.00    +0.000 C 
DOCKED: BRANCH  22  23
DOCKED: ATOM     23  C   UNL     1      17.620 -12.767   0.524 -0.48 +0.00    +0.000 C 
DOCKED: BRANCH  23  24
DOCKED: ATOM     24  C   UNL     1      18.948 -12.079   0.613 -0.52 -0.00    +0.000 A 
DOCKED: ATOM     25  C   UNL     1      19.791 -12.038   1.721 -0.67 -0.00    +0.000 A 
DOCKED: ATOM     26  N   UNL     1      20.867 -11.259   1.465 -0.66 -0.00    +0.000 N 
DOCKED: ATOM     27  C   UNL     1      20.703 -10.797   0.214 -0.62 -0.00    +0.000 A 
DOCKED: ATOM     28  C   UNL     1      19.540 -11.270  -0.337 -0.48 -0.00    +0.000 A 
DOCKED: ATOM     29  C   UNL     1      19.133 -10.909  -1.622 -0.40 -0.00    +0.000 A 
DOCKED: ATOM     30  C   UNL     1      19.965 -10.041  -2.353 -0.41 -0.00    +0.000 A 
DOCKED: ATOM     31  C   UNL     1      21.166  -9.557  -1.788 -0.53 -0.00    +0.000 A 
DOCKED: ATOM     32  C   UNL     1      21.546  -9.935  -0.486 -0.59 -0.00    +0.000 A 
DOCKED: ATOM     33  H   UNL     1      21.617 -11.070   2.073 -0.22 -0.00    +0.000 HD
DOCKED: ENDBRANCH  23  24
DOCKED: ENDBRANCH  22  23
DOCKED: ENDBRANCH   1  22
DOCKED: TORSDOF 11
DOCKED: TER
DOCKED: ENDMDL
________________________________________________________________________________


	BEGINNING GENETIC ALGORITHM DOCKING 14 of 100
Run: 14 Seed: 1927640260 888109533 [ Run 14 of 100 GA/GALS ]
Beginning LAMARCKIAN GENETIC ALGORITHM (LGA), with a maximum of 2500000 energy evaluations.

Final-Value: -14.986


	FINAL GENETIC ALGORITHM DOCKED STATE
	_______________________________________________


Detailed state:  trans 19.623 -8.582 -5.707 quatxyzw 0.552310 0.330860 0.631202 0.432515 center 0.460 0.128 -0.007 ntor 11 33.9230 -61.6873 129.9429 22.7109 115.1974 143.3605 -8.8345 174.3541 165.5078 88.6374 10.3501
State:	 19.623  -8.582  -5.707   0.613  0.367  0.700 128.745     33.92  -61.69  129.94   22.71  115.20  143.36   -8.83  174.35  165.51   88.64   10.35

DOCKED: MODEL       14
DOCKED: USER    Run = 14
DOCKED: USER    DPF = ligand_dock.biased.dpf
DOCKED: USER  
DOCKED: USER    Estimated Free Energy of Binding    =   -7.48 kcal/mol  [=(1)+(2)+(3)-(4)]
DOCKED: USER    Estimated Inhibition Constant, Ki   =    3.27 uM (micromolar)  [Temperature = 298.15 K]
DOCKED: USER    
DOCKED: USER    (1) Final Intermolecular Energy     =  -10.77 kcal/mol
DOCKED: USER        vdW + Hbond + desolv Energy     =  -10.77 kcal/mol
DOCKED: USER        Electrostatic Energy            =   +0.00 kcal/mol
DOCKED: USER    (2) Final Total Internal Energy     =   -4.22 kcal/mol
DOCKED: USER    (3) Torsional Free Energy           =   +3.28 kcal/mol
DOCKED: USER    (4) Unbound System's Energy  [=(2)] =   -4.22 kcal/mol
DOCKED: USER    
DOCKED: USER    
DOCKED: USER    NEWDPF move ligand.pdbqt
DOCKED: USER    NEWDPF about 0.460000 0.128000 -0.007000
DOCKED: USER    NEWDPF tran0 19.623167 -8.582076 -5.707077
DOCKED: USER    NEWDPF quaternion0 0.552310 0.330860 0.631202 0.432515
DOCKED: USER    NEWDPF axisangle0 0.612571 0.366958 0.700070 128.745469
DOCKED: USER    NEWDPF quat0 0.612571 0.366958 0.700070 128.745469
DOCKED: USER    NEWDPF dihe0 33.92 -61.69 129.94 22.71 115.20 143.36 -8.83 174.35 165.51 88.64 10.35 
DOCKED: USER  keepresnum = 1 
DOCKED: USER  
DOCKED: REMARK  Name = 
DOCKED: REMARK  11 active torsions:
DOCKED: REMARK  status: ('A' for Active; 'I' for Inactive)
DOCKED: REMARK    1  A    between atoms: C_2  and  C_5
DOCKED: REMARK    2  A    between atoms: N_3  and  O_4
DOCKED: REMARK    3  A    between atoms: C_6  and  C_7
DOCKED: REMARK    4  A    between atoms: C_10  and  C_11
DOCKED: REMARK    5  A    between atoms: C_11  and  N_12
DOCKED: REMARK    6  A    between atoms: N_12  and  C_13
DOCKED: REMARK    7  A    between atoms: N_12  and  C_16
DOCKED: REMARK    8  A    between atoms: C_13  and  C_14
DOCKED: REMARK    9  A    between atoms: C_14  and  O_15
DOCKED: REMARK   10  A    between atoms: C_16  and  C_17
DOCKED: REMARK   11  A    between atoms: C_17  and  C_18
DOCKED: REMARK                            x       y       z     vdW  Elec       q    Type
DOCKED: REMARK                         _______ _______ _______ _____ _____    ______ ____
DOCKED: USER                              x       y       z     vdW  Elec       q    Type
DOCKED: USER                           _______ _______ _______ _____ _____    ______ ____
DOCKED: ROOT
DOCKED: ATOM      1  N   UNL     1      18.499  -7.915  -6.553 -0.07 -0.00    +0.000 N 
DOCKED: ATOM      2  H   UNL     1      18.239  -8.808  -6.136 +0.00 -0.00    +0.000 HD
DOCKED: ENDROOT
DOCKED: BRANCH   1   3
DOCKED: ATOM      3  C   UNL     1      19.851  -7.557  -6.073 -0.11 -0.00    +0.000 C 
DOCKED: BRANCH   3   7
DOCKED: ATOM      4  C   UNL     1      20.698  -9.588  -2.346 -0.47 -0.00    +0.000 A 
DOCKED: ATOM      5  C   UNL     1      19.371  -9.374  -2.756 +0.02 -0.00    +0.000 A 
DOCKED: ATOM      6  C   UNL     1      19.093  -8.711  -3.954 -0.18 -0.00    +0.000 A 
DOCKED: ATOM      7  C   UNL     1      20.139  -8.256  -4.770 -0.20 -0.00    +0.000 A 
DOCKED: ATOM      8  C   UNL     1      21.465  -8.485  -4.377 -0.29 -0.00    +0.000 A 
DOCKED: ATOM      9  C   UNL     1      21.745  -9.147  -3.178 -0.29 -0.00    +0.000 A 
DOCKED: BRANCH   4  11
DOCKED: ATOM     10  C   UNL     1      19.995 -10.501  -0.136 -0.60 -0.00    +0.000 C 
DOCKED: ATOM     11  C   UNL     1      20.938 -10.307  -1.069 -0.65 -0.00    +0.000 C 
DOCKED: BRANCH  10  13
DOCKED: ATOM     12  O   UNL     1      20.215 -12.477   1.125 -1.35 -0.00    +0.000 OA
DOCKED: ATOM     13  C   UNL     1      20.242 -11.218   1.133 -0.73 -0.00    +0.000 C 
DOCKED: ATOM     14  N   UNL     1      20.536 -10.531   2.357 -0.61 -0.00    +0.000 N 
DOCKED: ATOM     15  H   UNL     1      20.662  -9.556   2.354 -0.52 -0.00    +0.000 HD
DOCKED: BRANCH  14  16
DOCKED: ATOM     16  O   UNL     1      20.643 -11.224   3.516 -0.81 -0.00    +0.000 OA
DOCKED: ATOM     17  H   UNL     1      21.021 -12.098   3.336 -0.61 -0.00    +0.000 HD
DOCKED: ENDBRANCH  14  16
DOCKED: ENDBRANCH  10  13
DOCKED: ENDBRANCH   4  11
DOCKED: ENDBRANCH   3   7
DOCKED: ENDBRANCH   1   3
DOCKED: BRANCH   1  18
DOCKED: ATOM     18  C   UNL     1      17.481  -6.948  -6.077 -0.09 -0.00    +0.000 C 
DOCKED: BRANCH  18  19
DOCKED: ATOM     19  C   UNL     1      16.154  -7.631  -5.712 -0.10 -0.00    +0.000 C 
DOCKED: BRANCH  19  20
DOCKED: ATOM     20  O   UNL     1      16.371  -8.785  -4.946 -0.15 -0.00    +0.000 OA
DOCKED: ATOM     21  H   UNL     1      15.977  -9.550  -5.392 +0.00 -0.00    +0.000 HD
DOCKED: ENDBRANCH  19  20
DOCKED: ENDBRANCH  18  19
DOCKED: ENDBRANCH   1  18
DOCKED: BRANCH   1  22
DOCKED: ATOM     22  C   UNL     1      18.475  -8.161  -8.015 -0.06 -0.00    +0.000 C 
DOCKED: BRANCH  22  23
DOCKED: ATOM     23  C   UNL     1      18.536  -9.651  -8.406 -0.17 -0.00    +0.000 C 
DOCKED: BRANCH  23  24
DOCKED: ATOM     24  C   UNL     1      18.945 -10.480  -7.228 -0.27 -0.00    +0.000 A 
DOCKED: ATOM     25  C   UNL     1      18.113 -10.962  -6.220 -0.32 -0.00    +0.000 A 
DOCKED: ATOM     26  N   UNL     1      18.838 -11.605  -5.277 -0.40 -0.00    +0.000 N 
DOCKED: ATOM     27  C   UNL     1      20.120 -11.521  -5.672 -0.28 -0.00    +0.000 A 
DOCKED: ATOM     28  C   UNL     1      20.227 -10.836  -6.855 -0.24 -0.00    +0.000 A 
DOCKED: ATOM     29  C   UNL     1      21.462 -10.592  -7.456 -0.26 -0.00    +0.000 A 
DOCKED: ATOM     30  C   UNL     1      22.612 -11.084  -6.812 -0.40 -0.00    +0.000 A 
DOCKED: ATOM     31  C   UNL     1      22.504 -11.794  -5.596 -0.36 -0.00    +0.000 A 
DOCKED: ATOM     32  C   UNL     1      21.243 -12.018  -5.011 -0.22 -0.00    +0.000 A 
DOCKED: ATOM     33  H   UNL     1      18.496 -12.046  -4.466 +0.01 -0.00    +0.000 HD
DOCKED: ENDBRANCH  23  24
DOCKED: ENDBRANCH  22  23
DOCKED: ENDBRANCH   1  22
DOCKED: TORSDOF 11
DOCKED: TER
DOCKED: ENDMDL
________________________________________________________________________________


	BEGINNING GENETIC ALGORITHM DOCKING 15 of 100
Run: 15 Seed: 682531754 1688269340 [ Run 15 of 100 GA/GALS ]
Beginning LAMARCKIAN GENETIC ALGORITHM (LGA), with a maximum of 2500000 energy evaluations.

Final-Value: -14.601


	FINAL GENETIC ALGORITHM DOCKED STATE
	_______________________________________________


Detailed state:  trans 21.442 -10.260 -5.372 quatxyzw 0.837199 -0.183482 0.085545 -0.508049 center 0.460 0.128 -0.007 ntor 11 1.1772 4.1140 106.5300 41.5382 -37.0429 66.7614 122.0214 -69.2036 -0.1144 47.0030 73.7286
State:	 21.442 -10.260  -5.372   0.972 -0.213  0.099 -118.932      1.18    4.11  106.53   41.54  -37.04   66.76  122.02  -69.20   -0.11   47.00   73.73

DOCKED: MODEL       15
DOCKED: USER    Run = 15
DOCKED: USER    DPF = ligand_dock.biased.dpf
DOCKED: USER  
DOCKED: USER    Estimated Free Energy of Binding    =   -7.76 kcal/mol  [=(1)+(2)+(3)-(4)]
DOCKED: USER    Estimated Inhibition Constant, Ki   =    2.07 uM (micromolar)  [Temperature = 298.15 K]
DOCKED: USER    
DOCKED: USER    (1) Final Intermolecular Energy     =  -11.04 kcal/mol
DOCKED: USER        vdW + Hbond + desolv Energy     =  -11.04 kcal/mol
DOCKED: USER        Electrostatic Energy            =   +0.00 kcal/mol
DOCKED: USER    (2) Final Total Internal Energy     =   -3.56 kcal/mol
DOCKED: USER    (3) Torsional Free Energy           =   +3.28 kcal/mol
DOCKED: USER    (4) Unbound System's Energy  [=(2)] =   -3.56 kcal/mol
DOCKED: USER    
DOCKED: USER    
DOCKED: USER    NEWDPF move ligand.pdbqt
DOCKED: USER    NEWDPF about 0.460000 0.128000 -0.007000
DOCKED: USER    NEWDPF tran0 21.442352 -10.260263 -5.372239
DOCKED: USER    NEWDPF quaternion0 0.837199 -0.183482 0.085545 -0.508049
DOCKED: USER    NEWDPF axisangle0 0.971986 -0.213022 0.099317 -118.932048
DOCKED: USER    NEWDPF quat0 0.971986 -0.213022 0.099317 -118.932048
DOCKED: USER    NEWDPF dihe0 1.18 4.11 106.53 41.54 -37.04 66.76 122.02 -69.20 -0.11 47.00 73.73 
DOCKED: USER  keepresnum = 1 
DOCKED: USER  
DOCKED: REMARK  Name = 
DOCKED: REMARK  11 active torsions:
DOCKED: REMARK  status: ('A' for Active; 'I' for Inactive)
DOCKED: REMARK    1  A    between atoms: C_2  and  C_5
DOCKED: REMARK    2  A    between atoms: N_3  and  O_4
DOCKED: REMARK    3  A    between atoms: C_6  and  C_7
DOCKED: REMARK    4  A    between atoms: C_10  and  C_11
DOCKED: REMARK    5  A    between atoms: C_11  and  N_12
DOCKED: REMARK    6  A    between atoms: N_12  and  C_13
DOCKED: REMARK    7  A    between atoms: N_12  and  C_16
DOCKED: REMARK    8  A    between atoms: C_13  and  C_14
DOCKED: REMARK    9  A    between atoms: C_14  and  O_15
DOCKED: REMARK   10  A    between atoms: C_16  and  C_17
DOCKED: REMARK   11  A    between atoms: C_17  and  C_18
DOCKED: REMARK                            x       y       z     vdW  Elec       q    Type
DOCKED: REMARK                         _______ _______ _______ _____ _____    ______ ____
DOCKED: USER                              x       y       z     vdW  Elec       q    Type
DOCKED: USER                           _______ _______ _______ _____ _____    ______ ____
DOCKED: ROOT
DOCKED: ATOM      1  N   UNL     1      21.075  -9.528  -6.696 -0.19 -0.00    +0.000 N 
DOCKED: ATOM      2  H   UNL     1      21.600  -8.959  -6.031 -0.00 -0.00    +0.000 HD
DOCKED: ENDROOT
DOCKED: BRANCH   1   3
DOCKED: ATOM      3  C   UNL     1      20.972 -10.899  -6.151 -0.40 -0.00    +0.000 C 
DOCKED: BRANCH   3   7
DOCKED: ATOM      4  C   UNL     1      20.229 -10.736  -1.891 -0.40 -0.00    +0.000 A 
DOCKED: ATOM      5  C   UNL     1      21.432 -10.245  -2.424 -0.47 -0.00    +0.000 A 
DOCKED: ATOM      6  C   UNL     1      21.680 -10.304  -3.798 -0.40 -0.00    +0.000 A 
DOCKED: ATOM      7  C   UNL     1      20.724 -10.849  -4.667 -0.45 -0.00    +0.000 A 
DOCKED: ATOM      8  C   UNL     1      19.512 -11.322  -4.144 -0.41 -0.00    +0.000 A 
DOCKED: ATOM      9  C   UNL     1      19.262 -11.265  -2.770 -0.27 -0.00    +0.000 A 
DOCKED: BRANCH   4  11
DOCKED: ATOM     10  C   UNL     1      20.331 -11.614   0.439 -0.49 -0.00    +0.000 C 
DOCKED: ATOM     11  C   UNL     1      20.011 -10.641  -0.426 -0.59 -0.00    +0.000 C 
DOCKED: BRANCH  10  13
DOCKED: ATOM     12  O   UNL     1      19.458 -12.423   2.471 -1.30 -0.00    +0.000 OA
DOCKED: ATOM     13  C   UNL     1      20.111 -11.512   1.897 -0.76 -0.00    +0.000 C 
DOCKED: ATOM     14  N   UNL     1      20.640 -10.431   2.677 -0.51 -0.00    +0.000 N 
DOCKED: ATOM     15  H   UNL     1      21.237  -9.771   2.260 -0.57 -0.00    +0.000 HD
DOCKED: BRANCH  14  16
DOCKED: ATOM     16  O   UNL     1      20.318 -10.318   3.989 -0.74 -0.00    +0.000 OA
DOCKED: ATOM     17  H   UNL     1      19.740 -11.054   4.244 -0.04 -0.00    +0.000 HD
DOCKED: ENDBRANCH  14  16
DOCKED: ENDBRANCH  10  13
DOCKED: ENDBRANCH   4  11
DOCKED: ENDBRANCH   3   7
DOCKED: ENDBRANCH   1   3
DOCKED: BRANCH   1  18
DOCKED: ATOM     18  C   UNL     1      21.869  -9.501  -7.948 -0.19 -0.00    +0.000 C 
DOCKED: BRANCH  18  19
DOCKED: ATOM     19  C   UNL     1      23.064  -8.538  -7.860 -0.16 -0.00    +0.000 C 
DOCKED: BRANCH  19  20
DOCKED: ATOM     20  O   UNL     1      23.425  -8.299  -6.526 -0.25 -0.00    +0.000 OA
DOCKED: ATOM     21  H   UNL     1      22.660  -7.953  -6.041 -0.01 -0.00    +0.000 HD
DOCKED: ENDBRANCH  19  20
DOCKED: ENDBRANCH  18  19
DOCKED: ENDBRANCH   1  18
DOCKED: BRANCH   1  22
DOCKED: ATOM     22  C   UNL     1      19.752  -8.867  -6.794 -0.14 -0.00    +0.000 C 
DOCKED: BRANCH  22  23
DOCKED: ATOM     23  C   UNL     1      18.804  -9.501  -7.832 -0.17 -0.00    +0.000 C 
DOCKED: BRANCH  23  24
DOCKED: ATOM     24  C   UNL     1      17.781 -10.355  -7.148 -0.24 -0.00    +0.000 A 
DOCKED: ATOM     25  C   UNL     1      17.232 -11.541  -7.628 -0.32 -0.00    +0.000 A 
DOCKED: ATOM     26  N   UNL     1      16.281 -11.997  -6.781 -0.34 -0.00    +0.000 N 
DOCKED: ATOM     27  C   UNL     1      16.215 -11.103  -5.780 -0.25 -0.00    +0.000 A 
DOCKED: ATOM     28  C   UNL     1      17.110 -10.083  -5.971 -0.19 -0.00    +0.000 A 
DOCKED: ATOM     29  C   UNL     1      17.212  -9.014  -5.080 -0.15 -0.00    +0.000 A 
DOCKED: ATOM     30  C   UNL     1      16.365  -9.017  -3.955 -0.17 -0.00    +0.000 A 
DOCKED: ATOM     31  C   UNL     1      15.445 -10.070  -3.754 -0.21 -0.00    +0.000 A 
DOCKED: ATOM     32  C   UNL     1      15.362 -11.130  -4.677 -0.20 -0.00    +0.000 A 
DOCKED: ATOM     33  H   UNL     1      15.746 -12.818  -6.879 -0.03 +0.00    +0.000 HD
DOCKED: ENDBRANCH  23  24
DOCKED: ENDBRANCH  22  23
DOCKED: ENDBRANCH   1  22
DOCKED: TORSDOF 11
DOCKED: TER
DOCKED: ENDMDL
________________________________________________________________________________


	BEGINNING GENETIC ALGORITHM DOCKING 16 of 100
Run: 16 Seed: 850659423 1089399957 [ Run 16 of 100 GA/GALS ]
Beginning LAMARCKIAN GENETIC ALGORITHM (LGA), with a maximum of 2500000 energy evaluations.

Final-Value: -14.084


	FINAL GENETIC ALGORITHM DOCKED STATE
	_______________________________________________


Detailed state:  trans 23.214 -10.947 -7.659 quatxyzw 0.238589 -0.860956 0.007169 -0.449198 center 0.460 0.128 -0.007 ntor 11 -18.7585 -172.7734 -95.4752 178.3444 147.8342 -116.9134 -86.1137 -48.9954 149.2110 74.7990 17.6956
State:	 23.214 -10.947  -7.659   0.267 -0.964  0.008 -126.616    -18.76 -172.77  -95.48  178.34  147.83 -116.91  -86.11  -49.00  149.21   74.80   17.70

DOCKED: MODEL       16
DOCKED: USER    Run = 16
DOCKED: USER    DPF = ligand_dock.biased.dpf
DOCKED: USER  
DOCKED: USER    Estimated Free Energy of Binding    =   -8.94 kcal/mol  [=(1)+(2)+(3)-(4)]
DOCKED: USER    Estimated Inhibition Constant, Ki   =  277.65 nM (nanomolar)  [Temperature = 298.15 K]
DOCKED: USER    
DOCKED: USER    (1) Final Intermolecular Energy     =  -12.23 kcal/mol
DOCKED: USER        vdW + Hbond + desolv Energy     =  -12.23 kcal/mol
DOCKED: USER        Electrostatic Energy            =   +0.00 kcal/mol
DOCKED: USER    (2) Final Total Internal Energy     =   -1.86 kcal/mol
DOCKED: USER    (3) Torsional Free Energy           =   +3.28 kcal/mol
DOCKED: USER    (4) Unbound System's Energy  [=(2)] =   -1.86 kcal/mol
DOCKED: USER    
DOCKED: USER    
DOCKED: USER    NEWDPF move ligand.pdbqt
DOCKED: USER    NEWDPF about 0.460000 0.128000 -0.007000
DOCKED: USER    NEWDPF tran0 23.213931 -10.947338 -7.658526
DOCKED: USER    NEWDPF quaternion0 0.238589 -0.860956 0.007169 -0.449198
DOCKED: USER    NEWDPF axisangle0 0.267048 -0.963650 0.008025 -126.615531
DOCKED: USER    NEWDPF quat0 0.267048 -0.963650 0.008025 -126.615531
DOCKED: USER    NEWDPF dihe0 -18.76 -172.77 -95.48 178.34 147.83 -116.91 -86.11 -49.00 149.21 74.80 17.70 
DOCKED: USER  keepresnum = 1 
DOCKED: USER  
DOCKED: REMARK  Name = 
DOCKED: REMARK  11 active torsions:
DOCKED: REMARK  status: ('A' for Active; 'I' for Inactive)
DOCKED: REMARK    1  A    between atoms: C_2  and  C_5
DOCKED: REMARK    2  A    between atoms: N_3  and  O_4
DOCKED: REMARK    3  A    between atoms: C_6  and  C_7
DOCKED: REMARK    4  A    between atoms: C_10  and  C_11
DOCKED: REMARK    5  A    between atoms: C_11  and  N_12
DOCKED: REMARK    6  A    between atoms: N_12  and  C_13
DOCKED: REMARK    7  A    between atoms: N_12  and  C_16
DOCKED: REMARK    8  A    between atoms: C_13  and  C_14
DOCKED: REMARK    9  A    between atoms: C_14  and  O_15
DOCKED: REMARK   10  A    between atoms: C_16  and  C_17
DOCKED: REMARK   11  A    between atoms: C_17  and  C_18
DOCKED: REMARK                            x       y       z     vdW  Elec       q    Type
DOCKED: REMARK                         _______ _______ _______ _____ _____    ______ ____
DOCKED: USER                              x       y       z     vdW  Elec       q    Type
DOCKED: USER                           _______ _______ _______ _____ _____    ______ ____
DOCKED: ROOT
DOCKED: ATOM      1  N   UNL     1      24.192 -11.670  -8.631 -0.36 -0.00    +0.000 N 
DOCKED: ATOM      2  H   UNL     1      24.515 -11.624  -7.665 -0.03 -0.00    +0.000 HD
DOCKED: ENDROOT
DOCKED: BRANCH   1   3
DOCKED: ATOM      3  C   UNL     1      22.826 -11.107  -8.688 -0.30 -0.00    +0.000 C 
DOCKED: BRANCH   3   7
DOCKED: ATOM      4  C   UNL     1      21.155 -10.852  -4.703 -0.46 -0.00    +0.000 A 
DOCKED: ATOM      5  C   UNL     1      21.979 -11.932  -5.064 -0.29 -0.00    +0.000 A 
DOCKED: ATOM      6  C   UNL     1      22.513 -12.022  -6.352 -0.37 -0.00    +0.000 A 
DOCKED: ATOM      7  C   UNL     1      22.239 -11.029  -7.303 -0.33 -0.00    +0.000 A 
DOCKED: ATOM      8  C   UNL     1      21.436  -9.938  -6.944 -0.24 -0.00    +0.000 A 
DOCKED: ATOM      9  C   UNL     1      20.899  -9.846  -5.656 -0.28 -0.00    +0.000 A 
DOCKED: BRANCH   4  11
DOCKED: ATOM     10  C   UNL     1      21.303 -10.297  -2.279 -0.57 -0.00    +0.000 C 
DOCKED: ATOM     11  C   UNL     1      20.622 -10.798  -3.319 -0.49 -0.00    +0.000 C 
DOCKED: BRANCH  10  13
DOCKED: ATOM     12  O   UNL     1      19.609  -9.779  -0.728 -0.37 -0.00    +0.000 OA
DOCKED: ATOM     13  C   UNL     1      20.765 -10.246  -0.903 -0.65 -0.00    +0.000 C 
DOCKED: ATOM     14  N   UNL     1      21.502 -10.734   0.226 -0.62 -0.00    +0.000 N 
DOCKED: ATOM     15  H   UNL     1      22.361 -11.194   0.090 -0.36 -0.00    +0.000 HD
DOCKED: BRANCH  14  16
DOCKED: ATOM     16  O   UNL     1      21.017 -10.563   1.480 -0.75 -0.00    +0.000 OA
DOCKED: ATOM     17  H   UNL     1      20.349  -9.860   1.474 -0.31 -0.00    +0.000 HD
DOCKED: ENDBRANCH  14  16
DOCKED: ENDBRANCH  10  13
DOCKED: ENDBRANCH   4  11
DOCKED: ENDBRANCH   3   7
DOCKED: ENDBRANCH   1   3
DOCKED: BRANCH   1  18
DOCKED: ATOM     18  C   UNL     1      24.198 -13.112  -8.978 -0.11 -0.00    +0.000 C 
DOCKED: BRANCH  18  19
DOCKED: ATOM     19  C   UNL     1      22.874 -13.564  -9.616 -0.38 -0.00    +0.000 C 
DOCKED: BRANCH  19  20
DOCKED: ATOM     20  O   UNL     1      22.905 -14.930  -9.933 -0.64 +0.00    +0.000 OA
DOCKED: ATOM     21  H   UNL     1      22.141 -15.372  -9.533 -0.61 +0.00    +0.000 HD
DOCKED: ENDBRANCH  19  20
DOCKED: ENDBRANCH  18  19
DOCKED: ENDBRANCH   1  18
DOCKED: BRANCH   1  22
DOCKED: ATOM     22  C   UNL     1      25.164 -10.851  -9.394 -0.27 -0.00    +0.000 C 
DOCKED: BRANCH  22  23
DOCKED: ATOM     23  C   UNL     1      25.703  -9.630  -8.622 -0.26 -0.00    +0.000 C 
DOCKED: BRANCH  23  24
DOCKED: ATOM     24  C   UNL     1      27.198  -9.689  -8.535 -0.29 -0.00    +0.000 A 
DOCKED: ATOM     25  C   UNL     1      28.032 -10.609  -9.167 -0.31 -0.00    +0.000 A 
DOCKED: ATOM     26  N   UNL     1      29.317 -10.409  -8.799 -0.38 -0.00    +0.000 N 
DOCKED: ATOM     27  C   UNL     1      29.301  -9.383  -7.930 -0.35 -0.00    +0.000 A 
DOCKED: ATOM     28  C   UNL     1      28.025  -8.921  -7.739 -0.30 -0.00    +0.000 A 
DOCKED: ATOM     29  C   UNL     1      27.744  -7.876  -6.858 -0.29 -0.00    +0.000 A 
DOCKED: ATOM     30  C   UNL     1      28.823  -7.293  -6.169 -0.26 -0.00    +0.000 A 
DOCKED: ATOM     31  C   UNL     1      30.139  -7.764  -6.369 -0.18 -0.00    +0.000 A 
DOCKED: ATOM     32  C   UNL     1      30.389  -8.826  -7.259 -0.18 -0.00    +0.000 A 
DOCKED: ATOM     33  H   UNL     1      30.105 -10.914  -9.105 -0.62 -0.00    +0.000 HD
DOCKED: ENDBRANCH  23  24
DOCKED: ENDBRANCH  22  23
DOCKED: ENDBRANCH   1  22
DOCKED: TORSDOF 11
DOCKED: TER
DOCKED: ENDMDL
________________________________________________________________________________


	BEGINNING GENETIC ALGORITHM DOCKING 17 of 100
Run: 17 Seed: 830994671 113298090 [ Run 17 of 100 GA/GALS ]
Beginning LAMARCKIAN GENETIC ALGORITHM (LGA), with a maximum of 2500000 energy evaluations.

Final-Value: -14.876


	FINAL GENETIC ALGORITHM DOCKED STATE
	_______________________________________________


Detailed state:  trans 18.765 -11.040 -6.201 quatxyzw 0.540702 -0.467095 -0.475933 0.512788 center 0.460 0.128 -0.007 ntor 11 -21.6148 -129.2328 39.4192 43.1466 1.0245 132.7921 -27.7758 53.8178 15.4855 -139.5593 71.0904
State:	 18.765 -11.040  -6.201   0.630 -0.544 -0.554 118.301    -21.61 -129.23   39.42   43.15    1.02  132.79  -27.78   53.82   15.49 -139.56   71.09

DOCKED: MODEL       17
DOCKED: USER    Run = 17
DOCKED: USER    DPF = ligand_dock.biased.dpf
DOCKED: USER  
DOCKED: USER    Estimated Free Energy of Binding    =   -9.14 kcal/mol  [=(1)+(2)+(3)-(4)]
DOCKED: USER    Estimated Inhibition Constant, Ki   =  199.55 nM (nanomolar)  [Temperature = 298.15 K]
DOCKED: USER    
DOCKED: USER    (1) Final Intermolecular Energy     =  -12.42 kcal/mol
DOCKED: USER        vdW + Hbond + desolv Energy     =  -12.42 kcal/mol
DOCKED: USER        Electrostatic Energy            =   +0.00 kcal/mol
DOCKED: USER    (2) Final Total Internal Energy     =   -2.45 kcal/mol
DOCKED: USER    (3) Torsional Free Energy           =   +3.28 kcal/mol
DOCKED: USER    (4) Unbound System's Energy  [=(2)] =   -2.45 kcal/mol
DOCKED: USER    
DOCKED: USER    
DOCKED: USER    NEWDPF move ligand.pdbqt
DOCKED: USER    NEWDPF about 0.460000 0.128000 -0.007000
DOCKED: USER    NEWDPF tran0 18.765026 -11.040367 -6.200511
DOCKED: USER    NEWDPF quaternion0 0.540702 -0.467095 -0.475933 0.512788
DOCKED: USER    NEWDPF axisangle0 0.629811 -0.544073 -0.554367 118.300602
DOCKED: USER    NEWDPF quat0 0.629811 -0.544073 -0.554367 118.300602
DOCKED: USER    NEWDPF dihe0 -21.61 -129.23 39.42 43.15 1.02 132.79 -27.78 53.82 15.49 -139.56 71.09 
DOCKED: USER  keepresnum = 1 
DOCKED: USER  
DOCKED: REMARK  Name = 
DOCKED: REMARK  11 active torsions:
DOCKED: REMARK  status: ('A' for Active; 'I' for Inactive)
DOCKED: REMARK    1  A    between atoms: C_2  and  C_5
DOCKED: REMARK    2  A    between atoms: N_3  and  O_4
DOCKED: REMARK    3  A    between atoms: C_6  and  C_7
DOCKED: REMARK    4  A    between atoms: C_10  and  C_11
DOCKED: REMARK    5  A    between atoms: C_11  and  N_12
DOCKED: REMARK    6  A    between atoms: N_12  and  C_13
DOCKED: REMARK    7  A    between atoms: N_12  and  C_16
DOCKED: REMARK    8  A    between atoms: C_13  and  C_14
DOCKED: REMARK    9  A    between atoms: C_14  and  O_15
DOCKED: REMARK   10  A    between atoms: C_16  and  C_17
DOCKED: REMARK   11  A    between atoms: C_17  and  C_18
DOCKED: REMARK                            x       y       z     vdW  Elec       q    Type
DOCKED: REMARK                         _______ _______ _______ _____ _____    ______ ____
DOCKED: USER                              x       y       z     vdW  Elec       q    Type
DOCKED: USER                           _______ _______ _______ _____ _____    ______ ____
DOCKED: ROOT
DOCKED: ATOM      1  N   UNL     1      19.898 -10.986  -5.134 -0.40 -0.00    +0.000 N 
DOCKED: ATOM      2  H   UNL     1      19.892 -11.835  -5.700 -0.21 -0.00    +0.000 HD
DOCKED: ENDROOT
DOCKED: BRANCH   1   3
DOCKED: ATOM      3  C   UNL     1      18.856 -10.076  -5.655 -0.27 -0.00    +0.000 C 
DOCKED: BRANCH   3   7
DOCKED: ATOM      4  C   UNL     1      15.390 -12.327  -6.938 -0.29 -0.00    +0.000 A 
DOCKED: ATOM      5  C   UNL     1      15.333 -11.525  -5.786 -0.26 -0.00    +0.000 A 
DOCKED: ATOM      6  C   UNL     1      16.452 -10.803  -5.364 -0.23 -0.00    +0.000 A 
DOCKED: ATOM      7  C   UNL     1      17.650 -10.865  -6.091 -0.30 -0.00    +0.000 A 
DOCKED: ATOM      8  C   UNL     1      17.708 -11.647  -7.253 -0.31 -0.00    +0.000 A 
DOCKED: ATOM      9  C   UNL     1      16.589 -12.371  -7.677 -0.21 -0.00    +0.000 A 
DOCKED: BRANCH   4  11
DOCKED: ATOM     10  C   UNL     1      13.205 -13.441  -6.498 -0.38 -0.00    +0.000 C 
DOCKED: ATOM     11  C   UNL     1      14.170 -13.065  -7.350 -0.41 -0.00    +0.000 C 
DOCKED: BRANCH  10  13
DOCKED: ATOM     12  O   UNL     1      11.300 -14.743  -6.029 -0.34 -0.00    +0.000 OA
DOCKED: ATOM     13  C   UNL     1      11.992 -14.175  -6.915 -0.31 -0.00    +0.000 C 
DOCKED: ATOM     14  N   UNL     1      11.566 -14.237  -8.283 -0.18 -0.00    +0.000 N 
DOCKED: ATOM     15  H   UNL     1      12.039 -13.713  -8.968 -0.01 -0.00    +0.000 HD
DOCKED: BRANCH  14  16
DOCKED: ATOM     16  O   UNL     1      10.513 -15.015  -8.633 -0.17 -0.00    +0.000 OA
DOCKED: ATOM     17  H   UNL     1      10.381 -15.700  -7.960 -0.01 -0.00    +0.000 HD
DOCKED: ENDBRANCH  14  16
DOCKED: ENDBRANCH  10  13
DOCKED: ENDBRANCH   4  11
DOCKED: ENDBRANCH   3   7
DOCKED: ENDBRANCH   1   3
DOCKED: BRANCH   1  18
DOCKED: ATOM     18  C   UNL     1      21.255 -10.412  -5.305 -0.44 -0.00    +0.000 C 
DOCKED: BRANCH  18  19
DOCKED: ATOM     19  C   UNL     1      22.172 -11.321  -6.140 -0.50 -0.00    +0.000 C 
DOCKED: BRANCH  19  20
DOCKED: ATOM     20  O   UNL     1      22.065 -12.659  -5.733 -0.69 -0.00    +0.000 OA
DOCKED: ATOM     21  H   UNL     1      22.525 -13.228  -6.369 -0.52 -0.00    +0.000 HD
DOCKED: ENDBRANCH  19  20
DOCKED: ENDBRANCH  18  19
DOCKED: ENDBRANCH   1  18
DOCKED: BRANCH   1  22
DOCKED: ATOM     22  C   UNL     1      19.597 -11.449  -3.758 -0.39 -0.00    +0.000 C 
DOCKED: BRANCH  22  23
DOCKED: ATOM     23  C   UNL     1      19.277 -10.312  -2.766 -0.40 -0.00    +0.000 C 
DOCKED: BRANCH  23  24
DOCKED: ATOM     24  C   UNL     1      20.011 -10.526  -1.478 -0.47 -0.00    +0.000 A 
DOCKED: ATOM     25  C   UNL     1      21.391 -10.507  -1.295 -0.57 -0.00    +0.000 A 
DOCKED: ATOM     26  N   UNL     1      21.701 -10.817  -0.016 -0.61 -0.00    +0.000 N 
DOCKED: ATOM     27  C   UNL     1      20.532 -11.046   0.606 -0.62 -0.00    +0.000 A 
DOCKED: ATOM     28  C   UNL     1      19.477 -10.884  -0.256 -0.49 -0.00    +0.000 A 
DOCKED: ATOM     29  C   UNL     1      18.158 -11.094   0.147 -0.41 -0.00    +0.000 A 
DOCKED: ATOM     30  C   UNL     1      17.934 -11.471   1.484 -0.45 -0.00    +0.000 A 
DOCKED: ATOM     31  C   UNL     1      19.018 -11.633   2.374 -0.54 -0.00    +0.000 A 
DOCKED: ATOM     32  C   UNL     1      20.339 -11.421   1.935 -0.68 -0.00    +0.000 A 
DOCKED: ATOM     33  H   UNL     1      22.601 -10.865   0.380 -0.35 -0.00    +0.000 HD
DOCKED: ENDBRANCH  23  24
DOCKED: ENDBRANCH  22  23
DOCKED: ENDBRANCH   1  22
DOCKED: TORSDOF 11
DOCKED: TER
DOCKED: ENDMDL
________________________________________________________________________________


	BEGINNING GENETIC ALGORITHM DOCKING 18 of 100
Run: 18 Seed: 974129966 1963028692 [ Run 18 of 100 GA/GALS ]
Beginning LAMARCKIAN GENETIC ALGORITHM (LGA), with a maximum of 2500000 energy evaluations.

Final-Value: -16.075


	FINAL GENETIC ALGORITHM DOCKED STATE
	_______________________________________________


Detailed state:  trans 20.890 -9.722 -5.238 quatxyzw -0.053838 -0.742371 -0.611072 -0.269403 center 0.460 0.128 -0.007 ntor 11 30.3331 36.0882 39.1177 93.4271 -146.5478 127.5182 151.2810 -17.7123 -171.3062 -86.3294 39.0319
State:	 20.890  -9.722  -5.238  -0.056 -0.771 -0.635 -148.742     30.33   36.09   39.12   93.43 -146.55  127.52  151.28  -17.71 -171.31  -86.33   39.03

DOCKED: MODEL       18
DOCKED: USER    Run = 18
DOCKED: USER    DPF = ligand_dock.biased.dpf
DOCKED: USER  
DOCKED: USER    Estimated Free Energy of Binding    =  -10.44 kcal/mol  [=(1)+(2)+(3)-(4)]
DOCKED: USER    Estimated Inhibition Constant, Ki   =   22.44 nM (nanomolar)  [Temperature = 298.15 K]
DOCKED: USER    
DOCKED: USER    (1) Final Intermolecular Energy     =  -13.72 kcal/mol
DOCKED: USER        vdW + Hbond + desolv Energy     =  -13.72 kcal/mol
DOCKED: USER        Electrostatic Energy            =   +0.00 kcal/mol
DOCKED: USER    (2) Final Total Internal Energy     =   -2.36 kcal/mol
DOCKED: USER    (3) Torsional Free Energy           =   +3.28 kcal/mol
DOCKED: USER    (4) Unbound System's Energy  [=(2)] =   -2.36 kcal/mol
DOCKED: USER    
DOCKED: USER    
DOCKED: USER    NEWDPF move ligand.pdbqt
DOCKED: USER    NEWDPF about 0.460000 0.128000 -0.007000
DOCKED: USER    NEWDPF tran0 20.889795 -9.722478 -5.237813
DOCKED: USER    NEWDPF quaternion0 -0.053838 -0.742371 -0.611072 -0.269403
DOCKED: USER    NEWDPF axisangle0 -0.055905 -0.770872 -0.634533 -148.742476
DOCKED: USER    NEWDPF quat0 -0.055905 -0.770872 -0.634533 -148.742476
DOCKED: USER    NEWDPF dihe0 30.33 36.09 39.12 93.43 -146.55 127.52 151.28 -17.71 -171.31 -86.33 39.03 
DOCKED: USER  keepresnum = 1 
DOCKED: USER  
DOCKED: REMARK  Name = 
DOCKED: REMARK  11 active torsions:
DOCKED: REMARK  status: ('A' for Active; 'I' for Inactive)
DOCKED: REMARK    1  A    between atoms: C_2  and  C_5
DOCKED: REMARK    2  A    between atoms: N_3  and  O_4
DOCKED: REMARK    3  A    between atoms: C_6  and  C_7
DOCKED: REMARK    4  A    between atoms: C_10  and  C_11
DOCKED: REMARK    5  A    between atoms: C_11  and  N_12
DOCKED: REMARK    6  A    between atoms: N_12  and  C_13
DOCKED: REMARK    7  A    between atoms: N_12  and  C_16
DOCKED: REMARK    8  A    between atoms: C_13  and  C_14
DOCKED: REMARK    9  A    between atoms: C_14  and  O_15
DOCKED: REMARK   10  A    between atoms: C_16  and  C_17
DOCKED: REMARK   11  A    between atoms: C_17  and  C_18
DOCKED: REMARK                            x       y       z     vdW  Elec       q    Type
DOCKED: REMARK                         _______ _______ _______ _____ _____    ______ ____
DOCKED: USER                              x       y       z     vdW  Elec       q    Type
DOCKED: USER                           _______ _______ _______ _____ _____    ______ ____
DOCKED: ROOT
DOCKED: ATOM      1  N   UNL     1      21.177  -9.806  -6.766 -0.22 -0.00    +0.000 N 
DOCKED: ATOM      2  H   UNL     1      21.009 -10.707  -6.318 -0.03 -0.00    +0.000 HD
DOCKED: ENDROOT
DOCKED: BRANCH   1   3
DOCKED: ATOM      3  C   UNL     1      20.961  -8.744  -5.760 -0.22 -0.00    +0.000 C 
DOCKED: BRANCH   3   7
DOCKED: ATOM      4  C   UNL     1      20.177 -10.511  -1.888 -0.46 -0.00    +0.000 A 
DOCKED: ATOM      5  C   UNL     1      20.556  -9.162  -1.992 -0.39 -0.00    +0.000 A 
DOCKED: ATOM      6  C   UNL     1      20.819  -8.590  -3.240 -0.37 -0.00    +0.000 A 
DOCKED: ATOM      7  C   UNL     1      20.700  -9.355  -4.409 -0.32 -0.00    +0.000 A 
DOCKED: ATOM      8  C   UNL     1      20.301 -10.696  -4.313 -0.42 -0.00    +0.000 A 
DOCKED: ATOM      9  C   UNL     1      20.039 -11.271  -3.066 -0.22 -0.00    +0.000 A 
DOCKED: BRANCH   4  11
DOCKED: ATOM     10  C   UNL     1      20.516 -10.654   0.577 -0.69 -0.00    +0.000 C 
DOCKED: ATOM     11  C   UNL     1      19.899 -11.067  -0.540 -0.52 -0.00    +0.000 C 
DOCKED: BRANCH  10  13
DOCKED: ATOM     12  O   UNL     1      19.627 -12.312   1.992 -1.62 -0.00    +0.000 OA
DOCKED: ATOM     13  C   UNL     1      20.234 -11.211   1.916 -0.75 -0.00    +0.000 C 
DOCKED: ATOM     14  N   UNL     1      20.652 -10.558   3.122 -0.64 -0.00    +0.000 N 
DOCKED: ATOM     15  H   UNL     1      21.216  -9.753   3.074 -0.58 -0.00    +0.000 HD
DOCKED: BRANCH  14  16
DOCKED: ATOM     16  O   UNL     1      20.273 -11.047   4.327 -0.74 -0.00    +0.000 OA
DOCKED: ATOM     17  H   UNL     1      20.167 -12.009   4.266 -0.21 -0.00    +0.000 HD
DOCKED: ENDBRANCH  14  16
DOCKED: ENDBRANCH  10  13
DOCKED: ENDBRANCH   4  11
DOCKED: ENDBRANCH   3   7
DOCKED: ENDBRANCH   1   3
DOCKED: BRANCH   1  18
DOCKED: ATOM     18  C   UNL     1      20.185  -9.722  -7.864 -0.20 -0.00    +0.000 C 
DOCKED: BRANCH  18  19
DOCKED: ATOM     19  C   UNL     1      18.779 -10.149  -7.414 -0.25 -0.00    +0.000 C 
DOCKED: BRANCH  19  20
DOCKED: ATOM     20  O   UNL     1      18.825 -11.329  -6.657 -0.42 -0.00    +0.000 OA
DOCKED: ATOM     21  H   UNL     1      19.621 -11.831  -6.890 -0.20 -0.00    +0.000 HD
DOCKED: ENDBRANCH  19  20
DOCKED: ENDBRANCH  18  19
DOCKED: ENDBRANCH   1  18
DOCKED: BRANCH   1  22
DOCKED: ATOM     22  C   UNL     1      22.588  -9.867  -7.217 -0.29 -0.00    +0.000 C 
DOCKED: BRANCH  22  23
DOCKED: ATOM     23  C   UNL     1      23.266 -11.232  -6.987 -0.42 -0.00    +0.000 C 
DOCKED: BRANCH  23  24
DOCKED: ATOM     24  C   UNL     1      24.375 -11.434  -7.975 -0.40 -0.00    +0.000 A 
DOCKED: ATOM     25  C   UNL     1      24.439 -12.412  -8.964 -0.39 -0.00    +0.000 A 
DOCKED: ATOM     26  N   UNL     1      25.621 -12.344  -9.618 -0.32 -0.00    +0.000 N 
DOCKED: ATOM     27  C   UNL     1      26.308 -11.344  -9.041 -0.32 -0.00    +0.000 A 
DOCKED: ATOM     28  C   UNL     1      25.583 -10.769  -8.029 -0.35 -0.00    +0.000 A 
DOCKED: ATOM     29  C   UNL     1      26.095  -9.724  -7.258 -0.29 -0.00    +0.000 A 
DOCKED: ATOM     30  C   UNL     1      27.391  -9.263  -7.557 -0.36 -0.00    +0.000 A 
DOCKED: ATOM     31  C   UNL     1      28.137  -9.852  -8.602 -0.33 -0.00    +0.000 A 
DOCKED: ATOM     32  C   UNL     1      27.595 -10.909  -9.357 -0.27 -0.00    +0.000 A 
DOCKED: ATOM     33  H   UNL     1      25.917 -12.913 -10.365 -0.48 -0.00    +0.000 HD
DOCKED: ENDBRANCH  23  24
DOCKED: ENDBRANCH  22  23
DOCKED: ENDBRANCH   1  22
DOCKED: TORSDOF 11
DOCKED: TER
DOCKED: ENDMDL
________________________________________________________________________________


	BEGINNING GENETIC ALGORITHM DOCKING 19 of 100
Run: 19 Seed: 440637304 2032023631 [ Run 19 of 100 GA/GALS ]
Beginning LAMARCKIAN GENETIC ALGORITHM (LGA), with a maximum of 2500000 energy evaluations.

Final-Value: -16.179


	FINAL GENETIC ALGORITHM DOCKED STATE
	_______________________________________________


Detailed state:  trans 19.744 -11.301 -0.851 quatxyzw -0.493673 0.214251 0.140675 -0.831020 center 0.460 0.128 -0.007 ntor 11 19.8902 128.3281 -155.1345 -138.7322 168.5562 -151.9127 -169.2749 39.3013 70.2523 7.4866 33.3643
State:	 19.744 -11.301  -0.851  -0.888  0.385  0.253 -67.593     19.89  128.33 -155.13 -138.73  168.56 -151.91 -169.27   39.30   70.25    7.49   33.36

DOCKED: MODEL       19
DOCKED: USER    Run = 19
DOCKED: USER    DPF = ligand_dock.biased.dpf
DOCKED: USER  
DOCKED: USER    Estimated Free Energy of Binding    =  -10.79 kcal/mol  [=(1)+(2)+(3)-(4)]
DOCKED: USER    Estimated Inhibition Constant, Ki   =   12.24 nM (nanomolar)  [Temperature = 298.15 K]
DOCKED: USER    
DOCKED: USER    (1) Final Intermolecular Energy     =  -14.08 kcal/mol
DOCKED: USER        vdW + Hbond + desolv Energy     =  -14.08 kcal/mol
DOCKED: USER        Electrostatic Energy            =   +0.00 kcal/mol
DOCKED: USER    (2) Final Total Internal Energy     =   -2.10 kcal/mol
DOCKED: USER    (3) Torsional Free Energy           =   +3.28 kcal/mol
DOCKED: USER    (4) Unbound System's Energy  [=(2)] =   -2.10 kcal/mol
DOCKED: USER    
DOCKED: USER    
DOCKED: USER    NEWDPF move ligand.pdbqt
DOCKED: USER    NEWDPF about 0.460000 0.128000 -0.007000
DOCKED: USER    NEWDPF tran0 19.743856 -11.300957 -0.850876
DOCKED: USER    NEWDPF quaternion0 -0.493673 0.214251 0.140675 -0.831020
DOCKED: USER    NEWDPF axisangle0 -0.887514 0.385175 0.252902 -67.592753
DOCKED: USER    NEWDPF quat0 -0.887514 0.385175 0.252902 -67.592753
DOCKED: USER    NEWDPF dihe0 19.89 128.33 -155.13 -138.73 168.56 -151.91 -169.27 39.30 70.25 7.49 33.36 
DOCKED: USER  keepresnum = 1 
DOCKED: USER  
DOCKED: REMARK  Name = 
DOCKED: REMARK  11 active torsions:
DOCKED: REMARK  status: ('A' for Active; 'I' for Inactive)
DOCKED: REMARK    1  A    between atoms: C_2  and  C_5
DOCKED: REMARK    2  A    between atoms: N_3  and  O_4
DOCKED: REMARK    3  A    between atoms: C_6  and  C_7
DOCKED: REMARK    4  A    between atoms: C_10  and  C_11
DOCKED: REMARK    5  A    between atoms: C_11  and  N_12
DOCKED: REMARK    6  A    between atoms: N_12  and  C_13
DOCKED: REMARK    7  A    between atoms: N_12  and  C_16
DOCKED: REMARK    8  A    between atoms: C_13  and  C_14
DOCKED: REMARK    9  A    between atoms: C_14  and  O_15
DOCKED: REMARK   10  A    between atoms: C_16  and  C_17
DOCKED: REMARK   11  A    between atoms: C_17  and  C_18
DOCKED: REMARK                            x       y       z     vdW  Elec       q    Type
DOCKED: REMARK                         _______ _______ _______ _____ _____    ______ ____
DOCKED: USER                              x       y       z     vdW  Elec       q    Type
DOCKED: USER                           _______ _______ _______ _____ _____    ______ ____
DOCKED: ROOT
DOCKED: ATOM      1  N   UNL     1      19.484 -11.919   0.555 -0.58 -0.00    +0.000 N 
DOCKED: ATOM      2  H   UNL     1      19.758 -12.594  -0.159 -0.22 -0.00    +0.000 HD
DOCKED: ENDROOT
DOCKED: BRANCH   1   3
DOCKED: ATOM      3  C   UNL     1      19.557 -10.566  -0.038 -0.54 -0.00    +0.000 C 
DOCKED: BRANCH   3   7
DOCKED: ATOM      4  C   UNL     1      20.860 -10.847  -4.156 -0.46 -0.00    +0.000 A 
DOCKED: ATOM      5  C   UNL     1      21.749 -10.423  -3.154 -0.36 -0.00    +0.000 A 
DOCKED: ATOM      6  C   UNL     1      21.330 -10.322  -1.825 -0.53 -0.00    +0.000 A 
DOCKED: ATOM      7  C   UNL     1      20.014 -10.652  -1.470 -0.44 -0.00    +0.000 A 
DOCKED: ATOM      8  C   UNL     1      19.128 -11.096  -2.462 -0.32 -0.00    +0.000 A 
DOCKED: ATOM      9  C   UNL     1      19.544 -11.197  -3.792 -0.40 -0.00    +0.000 A 
DOCKED: BRANCH   4  11
DOCKED: ATOM     10  C   UNL     1      22.495 -11.571  -5.891 -0.46 -0.00    +0.000 C 
DOCKED: ATOM     11  C   UNL     1      21.359 -10.947  -5.550 -0.49 -0.00    +0.000 C 
DOCKED: BRANCH  10  13
DOCKED: ATOM     12  O   UNL     1      22.142 -11.652  -8.218 -0.36 -0.00    +0.000 OA
DOCKED: ATOM     13  C   UNL     1      22.985 -11.667  -7.282 -0.50 -0.00    +0.000 C 
DOCKED: ATOM     14  N   UNL     1      24.381 -11.748  -7.599 -0.47 -0.00    +0.000 N 
DOCKED: ATOM     15  H   UNL     1      25.052 -11.658  -6.885 -0.02 +0.00    +0.000 HD
DOCKED: BRANCH  14  16
DOCKED: ATOM     16  O   UNL     1      24.778 -11.949  -8.879 -0.45 -0.00    +0.000 OA
DOCKED: ATOM     17  H   UNL     1      24.057 -11.708  -9.481 +0.00 -0.00    +0.000 HD
DOCKED: ENDBRANCH  14  16
DOCKED: ENDBRANCH  10  13
DOCKED: ENDBRANCH   4  11
DOCKED: ENDBRANCH   3   7
DOCKED: ENDBRANCH   1   3
DOCKED: BRANCH   1  18
DOCKED: ATOM     18  C   UNL     1      20.470 -12.084   1.650 -0.71 -0.00    +0.000 C 
DOCKED: BRANCH  18  19
DOCKED: ATOM     19  C   UNL     1      20.303 -11.023   2.749 -0.74 -0.00    +0.000 C 
DOCKED: BRANCH  19  20
DOCKED: ATOM     20  O   UNL     1      20.034 -11.617   3.991 -0.83 -0.00    +0.000 OA
DOCKED: ATOM     21  H   UNL     1      20.814 -12.108   4.291 -0.49 -0.00    +0.000 HD
DOCKED: ENDBRANCH  19  20
DOCKED: ENDBRANCH  18  19
DOCKED: ENDBRANCH   1  18
DOCKED: BRANCH   1  22
DOCKED: ATOM     22  C   UNL     1      18.096 -12.294   0.916 -0.57 -0.00    +0.000 C 
DOCKED: BRANCH  22  23
DOCKED: ATOM     23  C   UNL     1      17.036 -11.244   0.527 -0.43 +0.00    +0.000 C 
DOCKED: BRANCH  23  24
DOCKED: ATOM     24  C   UNL     1      15.895 -11.274   1.496 -0.37 +0.00    +0.000 A 
DOCKED: ATOM     25  C   UNL     1      14.874 -12.220   1.550 -0.40 +0.00    +0.000 A 
DOCKED: ATOM     26  N   UNL     1      13.973 -11.888   2.502 -0.45 +0.00    +0.000 N 
DOCKED: ATOM     27  C   UNL     1      14.407 -10.734   3.039 -0.38 +0.00    +0.000 A 
DOCKED: ATOM     28  C   UNL     1      15.574 -10.325   2.447 -0.36 +0.00    +0.000 A 
DOCKED: ATOM     29  C   UNL     1      16.208  -9.137   2.812 -0.33 +0.00    +0.000 A 
DOCKED: ATOM     30  C   UNL     1      15.615  -8.364   3.828 -0.31 +0.00    +0.000 A 
DOCKED: ATOM     31  C   UNL     1      14.416  -8.787   4.443 -0.36 +0.00    +0.000 A 
DOCKED: ATOM     32  C   UNL     1      13.797  -9.988   4.046 -0.29 +0.00    +0.000 A 
DOCKED: ATOM     33  H   UNL     1      13.164 -12.389   2.751 -0.44 +0.00    +0.000 HD
DOCKED: ENDBRANCH  23  24
DOCKED: ENDBRANCH  22  23
DOCKED: ENDBRANCH   1  22
DOCKED: TORSDOF 11
DOCKED: TER
DOCKED: ENDMDL
________________________________________________________________________________


	BEGINNING GENETIC ALGORITHM DOCKING 20 of 100
Run: 20 Seed: 910085937 1295256466 [ Run 20 of 100 GA/GALS ]
Beginning LAMARCKIAN GENETIC ALGORITHM (LGA), with a maximum of 2500000 energy evaluations.

Final-Value: -15.398


	FINAL GENETIC ALGORITHM DOCKED STATE
	_______________________________________________


Detailed state:  trans 22.714 -9.074 -6.168 quatxyzw -0.460904 0.742466 -0.110466 0.473402 center 0.460 0.128 -0.007 ntor 11 -110.0282 -148.6404 -11.3410 165.6543 158.6109 179.9206 162.1928 -126.2308 -142.0823 13.5379 22.5273
State:	 22.714  -9.074  -6.168  -0.523  0.843 -0.125 123.489   -110.03 -148.64  -11.34  165.65  158.61  179.92  162.19 -126.23 -142.08   13.54   22.53

DOCKED: MODEL       20
DOCKED: USER    Run = 20
DOCKED: USER    DPF = ligand_dock.biased.dpf
DOCKED: USER  
DOCKED: USER    Estimated Free Energy of Binding    =  -10.38 kcal/mol  [=(1)+(2)+(3)-(4)]
DOCKED: USER    Estimated Inhibition Constant, Ki   =   24.60 nM (nanomolar)  [Temperature = 298.15 K]
DOCKED: USER    
DOCKED: USER    (1) Final Intermolecular Energy     =  -13.66 kcal/mol
DOCKED: USER        vdW + Hbond + desolv Energy     =  -13.66 kcal/mol
DOCKED: USER        Electrostatic Energy            =   +0.00 kcal/mol
DOCKED: USER    (2) Final Total Internal Energy     =   -1.74 kcal/mol
DOCKED: USER    (3) Torsional Free Energy           =   +3.28 kcal/mol
DOCKED: USER    (4) Unbound System's Energy  [=(2)] =   -1.74 kcal/mol
DOCKED: USER    
DOCKED: USER    
DOCKED: USER    NEWDPF move ligand.pdbqt
DOCKED: USER    NEWDPF about 0.460000 0.128000 -0.007000
DOCKED: USER    NEWDPF tran0 22.713769 -9.073799 -6.168472
DOCKED: USER    NEWDPF quaternion0 -0.460904 0.742466 -0.110466 0.473402
DOCKED: USER    NEWDPF axisangle0 -0.523251 0.842901 -0.125408 123.489328
DOCKED: USER    NEWDPF quat0 -0.523251 0.842901 -0.125408 123.489328
DOCKED: USER    NEWDPF dihe0 -110.03 -148.64 -11.34 165.65 158.61 179.92 162.19 -126.23 -142.08 13.54 22.53 
DOCKED: USER  keepresnum = 1 
DOCKED: USER  
DOCKED: REMARK  Name = 
DOCKED: REMARK  11 active torsions:
DOCKED: REMARK  status: ('A' for Active; 'I' for Inactive)
DOCKED: REMARK    1  A    between atoms: C_2  and  C_5
DOCKED: REMARK    2  A    between atoms: N_3  and  O_4
DOCKED: REMARK    3  A    between atoms: C_6  and  C_7
DOCKED: REMARK    4  A    between atoms: C_10  and  C_11
DOCKED: REMARK    5  A    between atoms: C_11  and  N_12
DOCKED: REMARK    6  A    between atoms: N_12  and  C_13
DOCKED: REMARK    7  A    between atoms: N_12  and  C_16
DOCKED: REMARK    8  A    between atoms: C_13  and  C_14
DOCKED: REMARK    9  A    between atoms: C_14  and  O_15
DOCKED: REMARK   10  A    between atoms: C_16  and  C_17
DOCKED: REMARK   11  A    between atoms: C_17  and  C_18
DOCKED: REMARK                            x       y       z     vdW  Elec       q    Type
DOCKED: REMARK                         _______ _______ _______ _____ _____    ______ ____
DOCKED: USER                              x       y       z     vdW  Elec       q    Type
DOCKED: USER                           _______ _______ _______ _____ _____    ______ ____
DOCKED: ROOT
DOCKED: ATOM      1  N   UNL     1      23.820  -9.212  -7.255 -0.24 -0.00    +0.000 N 
DOCKED: ATOM      2  H   UNL     1      24.170  -8.988  -6.323 -0.02 -0.00    +0.000 HD
DOCKED: ENDROOT
DOCKED: BRANCH   1   3
DOCKED: ATOM      3  C   UNL     1      22.360  -9.429  -7.161 -0.25 -0.00    +0.000 C 
DOCKED: BRANCH   3   7
DOCKED: ATOM      4  C   UNL     1      21.187  -9.668  -3.002 -0.46 -0.00    +0.000 A 
DOCKED: ATOM      5  C   UNL     1      21.401 -10.837  -3.751 -0.44 -0.00    +0.000 A 
DOCKED: ATOM      6  C   UNL     1      21.771 -10.765  -5.096 -0.44 -0.00    +0.000 A 
DOCKED: ATOM      7  C   UNL     1      21.943  -9.519  -5.717 -0.28 -0.00    +0.000 A 
DOCKED: ATOM      8  C   UNL     1      21.751  -8.348  -4.970 -0.24 -0.00    +0.000 A 
DOCKED: ATOM      9  C   UNL     1      21.379  -8.418  -3.624 -0.35 -0.00    +0.000 A 
DOCKED: BRANCH   4  11
DOCKED: ATOM     10  C   UNL     1      21.032 -10.901  -0.842 -0.51 -0.00    +0.000 C 
DOCKED: ATOM     11  C   UNL     1      20.805  -9.801  -1.574 -0.60 -0.00    +0.000 C 
DOCKED: BRANCH  10  13
DOCKED: ATOM     12  O   UNL     1      20.779 -10.020   1.327 -0.59 -0.00    +0.000 OA
DOCKED: ATOM     13  C   UNL     1      20.650 -11.026   0.580 -0.71 -0.00    +0.000 C 
DOCKED: ATOM     14  N   UNL     1      20.113 -12.239   1.126 -0.64 -0.00    +0.000 N 
DOCKED: ATOM     15  H   UNL     1      19.911 -12.997   0.532 -0.49 -0.00    +0.000 HD
DOCKED: BRANCH  14  16
DOCKED: ATOM     16  O   UNL     1      19.883 -12.343   2.457 -1.51 -0.00    +0.000 OA
DOCKED: ATOM     17  H   UNL     1      20.520 -12.962   2.847 -0.56 -0.00    +0.000 HD
DOCKED: ENDBRANCH  14  16
DOCKED: ENDBRANCH  10  13
DOCKED: ENDBRANCH   4  11
DOCKED: ENDBRANCH   3   7
DOCKED: ENDBRANCH   1   3
DOCKED: BRANCH   1  18
DOCKED: ATOM     18  C   UNL     1      24.528 -10.453  -7.652 -0.36 -0.00    +0.000 C 
DOCKED: BRANCH  18  19
DOCKED: ATOM     19  C   UNL     1      23.563 -11.628  -7.876 -0.47 -0.00    +0.000 C 
DOCKED: BRANCH  19  20
DOCKED: ATOM     20  O   UNL     1      23.464 -12.428  -6.729 -1.01 -0.00    +0.000 OA
DOCKED: ATOM     21  H   UNL     1      22.585 -12.837  -6.694 -0.52 -0.00    +0.000 HD
DOCKED: ENDBRANCH  19  20
DOCKED: ENDBRANCH  18  19
DOCKED: ENDBRANCH   1  18
DOCKED: BRANCH   1  22
DOCKED: ATOM     22  C   UNL     1      24.155  -8.025  -8.078 -0.14 -0.00    +0.000 C 
DOCKED: BRANCH  22  23
DOCKED: ATOM     23  C   UNL     1      25.472  -7.331  -7.679 -0.15 -0.00    +0.000 C 
DOCKED: BRANCH  23  24
DOCKED: ATOM     24  C   UNL     1      26.552  -8.349  -7.469 -0.25 -0.00    +0.000 A 
DOCKED: ATOM     25  C   UNL     1      27.063  -8.778  -6.247 -0.29 -0.00    +0.000 A 
DOCKED: ATOM     26  N   UNL     1      28.082  -9.645  -6.441 -0.52 -0.00    +0.000 N 
DOCKED: ATOM     27  C   UNL     1      28.228  -9.756  -7.772 -0.42 -0.00    +0.000 A 
DOCKED: ATOM     28  C   UNL     1      27.316  -8.975  -8.434 -0.21 -0.00    +0.000 A 
DOCKED: ATOM     29  C   UNL     1      27.285  -8.897  -9.827 -0.09 -0.00    +0.000 A 
DOCKED: ATOM     30  C   UNL     1      28.222  -9.662 -10.546 -0.15 -0.00    +0.000 A 
DOCKED: ATOM     31  C   UNL     1      29.159 -10.472  -9.866 -0.28 -0.00    +0.000 A 
DOCKED: ATOM     32  C   UNL     1      29.169 -10.523  -8.459 -0.34 -0.00    +0.000 A 
DOCKED: ATOM     33  H   UNL     1      28.609 -10.103  -5.747 -0.11 -0.00    +0.000 HD
DOCKED: ENDBRANCH  23  24
DOCKED: ENDBRANCH  22  23
DOCKED: ENDBRANCH   1  22
DOCKED: TORSDOF 11
DOCKED: TER
DOCKED: ENDMDL
________________________________________________________________________________


	BEGINNING GENETIC ALGORITHM DOCKING 21 of 100
Run: 21 Seed: 475137855 374574830 [ Run 21 of 100 GA/GALS ]
Beginning LAMARCKIAN GENETIC ALGORITHM (LGA), with a maximum of 2500000 energy evaluations.

Final-Value: -16.078


	FINAL GENETIC ALGORITHM DOCKED STATE
	_______________________________________________


Detailed state:  trans 17.490 -10.950 1.059 quatxyzw -0.265778 0.523809 -0.532511 0.609441 center 0.460 0.128 -0.007 ntor 11 -14.9234 179.6613 36.9863 75.1011 -104.2024 -174.5499 172.5135 -15.8844 -171.8674 18.8568 30.6274
State:	 17.490 -10.950   1.059  -0.335  0.661 -0.672 104.902    -14.92  179.66   36.99   75.10 -104.20 -174.55  172.51  -15.88 -171.87   18.86   30.63

DOCKED: MODEL       21
DOCKED: USER    Run = 21
DOCKED: USER    DPF = ligand_dock.biased.dpf
DOCKED: USER  
DOCKED: USER    Estimated Free Energy of Binding    =  -10.16 kcal/mol  [=(1)+(2)+(3)-(4)]
DOCKED: USER    Estimated Inhibition Constant, Ki   =   35.49 nM (nanomolar)  [Temperature = 298.15 K]
DOCKED: USER    
DOCKED: USER    (1) Final Intermolecular Energy     =  -13.44 kcal/mol
DOCKED: USER        vdW + Hbond + desolv Energy     =  -13.44 kcal/mol
DOCKED: USER        Electrostatic Energy            =   +0.00 kcal/mol
DOCKED: USER    (2) Final Total Internal Energy     =   -2.63 kcal/mol
DOCKED: USER    (3) Torsional Free Energy           =   +3.28 kcal/mol
DOCKED: USER    (4) Unbound System's Energy  [=(2)] =   -2.63 kcal/mol
DOCKED: USER    
DOCKED: USER    
DOCKED: USER    NEWDPF move ligand.pdbqt
DOCKED: USER    NEWDPF about 0.460000 0.128000 -0.007000
DOCKED: USER    NEWDPF tran0 17.489615 -10.949756 1.058563
DOCKED: USER    NEWDPF quaternion0 -0.265778 0.523809 -0.532511 0.609441
DOCKED: USER    NEWDPF axisangle0 -0.335226 0.660682 -0.671657 104.901779
DOCKED: USER    NEWDPF quat0 -0.335226 0.660682 -0.671657 104.901779
DOCKED: USER    NEWDPF dihe0 -14.92 179.66 36.99 75.10 -104.20 -174.55 172.51 -15.88 -171.87 18.86 30.63 
DOCKED: USER  keepresnum = 1 
DOCKED: USER  
DOCKED: REMARK  Name = 
DOCKED: REMARK  11 active torsions:
DOCKED: REMARK  status: ('A' for Active; 'I' for Inactive)
DOCKED: REMARK    1  A    between atoms: C_2  and  C_5
DOCKED: REMARK    2  A    between atoms: N_3  and  O_4
DOCKED: REMARK    3  A    between atoms: C_6  and  C_7
DOCKED: REMARK    4  A    between atoms: C_10  and  C_11
DOCKED: REMARK    5  A    between atoms: C_11  and  N_12
DOCKED: REMARK    6  A    between atoms: N_12  and  C_13
DOCKED: REMARK    7  A    between atoms: N_12  and  C_16
DOCKED: REMARK    8  A    between atoms: C_13  and  C_14
DOCKED: REMARK    9  A    between atoms: C_14  and  O_15
DOCKED: REMARK   10  A    between atoms: C_16  and  C_17
DOCKED: REMARK   11  A    between atoms: C_17  and  C_18
DOCKED: REMARK                            x       y       z     vdW  Elec       q    Type
DOCKED: REMARK                         _______ _______ _______ _____ _____    ______ ____
DOCKED: USER                              x       y       z     vdW  Elec       q    Type
DOCKED: USER                           _______ _______ _______ _____ _____    ______ ____
DOCKED: ROOT
DOCKED: ATOM      1  N   UNL     1      18.756 -11.651   0.485 -0.50 -0.00    +0.000 N 
DOCKED: ATOM      2  H   UNL     1      18.893 -10.671   0.733 -0.01 -0.00    +0.000 HD
DOCKED: ENDROOT
DOCKED: BRANCH   1   3
DOCKED: ATOM      3  C   UNL     1      17.389 -12.044   0.891 -0.52 +0.00    +0.000 C 
DOCKED: BRANCH   3   7
DOCKED: ATOM      4  C   UNL     1      15.448  -8.728   2.883 -0.32 +0.00    +0.000 A 
DOCKED: ATOM      5  C   UNL     1      16.153  -9.691   3.624 -0.35 +0.00    +0.000 A 
DOCKED: ATOM      6  C   UNL     1      16.774 -10.768   2.986 -0.44 +0.00    +0.000 A 
DOCKED: ATOM      7  C   UNL     1      16.707 -10.898   1.591 -0.37 +0.00    +0.000 A 
DOCKED: ATOM      8  C   UNL     1      16.023  -9.930   0.844 -0.24 +0.00    +0.000 A 
DOCKED: ATOM      9  C   UNL     1      15.400  -8.852   1.480 -0.23 +0.00    +0.000 A 
DOCKED: BRANCH   4  11
DOCKED: ATOM     10  C   UNL     1      15.254  -7.132   4.787 -0.43 +0.00    +0.000 C 
DOCKED: ATOM     11  C   UNL     1      14.815  -7.598   3.608 -0.36 +0.00    +0.000 C 
DOCKED: BRANCH  10  13
DOCKED: ATOM     12  O   UNL     1      13.407  -6.109   5.829 -0.88 +0.00    +0.000 OA
DOCKED: ATOM     13  C   UNL     1      14.619  -6.006   5.503 -0.47 +0.00    +0.000 C 
DOCKED: ATOM     14  N   UNL     1      15.343  -4.821   5.862 -0.44 +0.00    +0.000 N 
DOCKED: ATOM     15  H   UNL     1      16.313  -4.772   5.705 -0.35 -0.00    +0.000 HD
DOCKED: BRANCH  14  16
DOCKED: ATOM     16  O   UNL     1      14.693  -3.769   6.416 -0.58 +0.00    +0.000 OA
DOCKED: ATOM     17  H   UNL     1      13.738  -3.876   6.287 -0.35 +0.00    +0.000 HD
DOCKED: ENDBRANCH  14  16
DOCKED: ENDBRANCH  10  13
DOCKED: ENDBRANCH   4  11
DOCKED: ENDBRANCH   3   7
DOCKED: ENDBRANCH   1   3
DOCKED: BRANCH   1  18
DOCKED: ATOM     18  C   UNL     1      19.784 -12.397   1.251 -0.62 -0.00    +0.000 C 
DOCKED: BRANCH  18  19
DOCKED: ATOM     19  C   UNL     1      20.188 -11.671   2.544 -0.79 -0.00    +0.000 C 
DOCKED: BRANCH  19  20
DOCKED: ATOM     20  O   UNL     1      20.448 -10.314   2.304 -0.69 -0.00    +0.000 OA
DOCKED: ATOM     21  H   UNL     1      19.833  -9.770   2.819 -0.49 -0.00    +0.000 HD
DOCKED: ENDBRANCH  19  20
DOCKED: ENDBRANCH  18  19
DOCKED: ENDBRANCH   1  18
DOCKED: BRANCH   1  22
DOCKED: ATOM     22  C   UNL     1      18.934 -11.696  -0.986 -0.36 -0.00    +0.000 C 
DOCKED: BRANCH  22  23
DOCKED: ATOM     23  C   UNL     1      19.348 -10.350  -1.613 -0.39 -0.00    +0.000 C 
DOCKED: BRANCH  23  24
DOCKED: ATOM     24  C   UNL     1      20.059 -10.579  -2.912 -0.42 -0.00    +0.000 A 
DOCKED: ATOM     25  C   UNL     1      21.436 -10.663  -3.103 -0.42 -0.00    +0.000 A 
DOCKED: ATOM     26  N   UNL     1      21.722 -10.796  -4.418 -0.50 -0.00    +0.000 N 
DOCKED: ATOM     27  C   UNL     1      20.541 -10.782  -5.059 -0.41 -0.00    +0.000 A 
DOCKED: ATOM     28  C   UNL     1      19.502 -10.644  -4.174 -0.37 -0.00    +0.000 A 
DOCKED: ATOM     29  C   UNL     1      18.175 -10.574  -4.600 -0.26 -0.00    +0.000 A 
DOCKED: ATOM     30  C   UNL     1      17.926 -10.660  -5.983 -0.28 -0.00    +0.000 A 
DOCKED: ATOM     31  C   UNL     1      18.994 -10.807  -6.895 -0.30 -0.00    +0.000 A 
DOCKED: ATOM     32  C   UNL     1      20.323 -10.867  -6.434 -0.30 -0.00    +0.000 A 
DOCKED: ATOM     33  H   UNL     1      22.614 -10.885  -4.823 -0.02 -0.00    +0.000 HD
DOCKED: ENDBRANCH  23  24
DOCKED: ENDBRANCH  22  23
DOCKED: ENDBRANCH   1  22
DOCKED: TORSDOF 11
DOCKED: TER
DOCKED: ENDMDL
________________________________________________________________________________


	BEGINNING GENETIC ALGORITHM DOCKING 22 of 100
Run: 22 Seed: 1628916368 1665509047 [ Run 22 of 100 GA/GALS ]
Beginning LAMARCKIAN GENETIC ALGORITHM (LGA), with a maximum of 2500000 energy evaluations.

Final-Value: -15.573


	FINAL GENETIC ALGORITHM DOCKED STATE
	_______________________________________________


Detailed state:  trans 17.570 -11.289 0.282 quatxyzw -0.371174 0.378280 -0.778964 0.335187 center 0.460 0.128 -0.007 ntor 11 9.7231 -179.6894 -179.3925 135.5917 -168.8186 -86.1915 174.3034 54.0971 -62.9656 179.7674 41.8601
State:	 17.570 -11.289   0.282  -0.394  0.402 -0.827 140.832      9.72 -179.69 -179.39  135.59 -168.82  -86.19  174.30   54.10  -62.97  179.77   41.86

DOCKED: MODEL       22
DOCKED: USER    Run = 22
DOCKED: USER    DPF = ligand_dock.biased.dpf
DOCKED: USER  
DOCKED: USER    Estimated Free Energy of Binding    =  -10.29 kcal/mol  [=(1)+(2)+(3)-(4)]
DOCKED: USER    Estimated Inhibition Constant, Ki   =   28.77 nM (nanomolar)  [Temperature = 298.15 K]
DOCKED: USER    
DOCKED: USER    (1) Final Intermolecular Energy     =  -13.57 kcal/mol
DOCKED: USER        vdW + Hbond + desolv Energy     =  -13.57 kcal/mol
DOCKED: USER        Electrostatic Energy            =   +0.00 kcal/mol
DOCKED: USER    (2) Final Total Internal Energy     =   -2.00 kcal/mol
DOCKED: USER    (3) Torsional Free Energy           =   +3.28 kcal/mol
DOCKED: USER    (4) Unbound System's Energy  [=(2)] =   -2.00 kcal/mol
DOCKED: USER    
DOCKED: USER    
DOCKED: USER    NEWDPF move ligand.pdbqt
DOCKED: USER    NEWDPF about 0.460000 0.128000 -0.007000
DOCKED: USER    NEWDPF tran0 17.569795 -11.289210 0.281726
DOCKED: USER    NEWDPF quaternion0 -0.371174 0.378280 -0.778964 0.335187
DOCKED: USER    NEWDPF axisangle0 -0.393964 0.401506 -0.826792 140.832231
DOCKED: USER    NEWDPF quat0 -0.393964 0.401506 -0.826792 140.832231
DOCKED: USER    NEWDPF dihe0 9.72 -179.69 -179.39 135.59 -168.82 -86.19 174.30 54.10 -62.97 179.77 41.86 
DOCKED: USER  keepresnum = 1 
DOCKED: USER  
DOCKED: REMARK  Name = 
DOCKED: REMARK  11 active torsions:
DOCKED: REMARK  status: ('A' for Active; 'I' for Inactive)
DOCKED: REMARK    1  A    between atoms: C_2  and  C_5
DOCKED: REMARK    2  A    between atoms: N_3  and  O_4
DOCKED: REMARK    3  A    between atoms: C_6  and  C_7
DOCKED: REMARK    4  A    between atoms: C_10  and  C_11
DOCKED: REMARK    5  A    between atoms: C_11  and  N_12
DOCKED: REMARK    6  A    between atoms: N_12  and  C_13
DOCKED: REMARK    7  A    between atoms: N_12  and  C_16
DOCKED: REMARK    8  A    between atoms: C_13  and  C_14
DOCKED: REMARK    9  A    between atoms: C_14  and  O_15
DOCKED: REMARK   10  A    between atoms: C_16  and  C_17
DOCKED: REMARK   11  A    between atoms: C_17  and  C_18
DOCKED: REMARK                            x       y       z     vdW  Elec       q    Type
DOCKED: REMARK                         _______ _______ _______ _____ _____    ______ ____
DOCKED: USER                              x       y       z     vdW  Elec       q    Type
DOCKED: USER                           _______ _______ _______ _____ _____    ______ ____
DOCKED: ROOT
DOCKED: ATOM      1  N   UNL     1      19.034 -10.898  -0.076 -0.45 -0.00    +0.000 N 
DOCKED: ATOM      2  H   UNL     1      18.394 -10.108   0.002 -0.01 -0.00    +0.000 HD
DOCKED: ENDROOT
DOCKED: BRANCH   1   3
DOCKED: ATOM      3  C   UNL     1      18.302 -12.125   0.305 -0.55 -0.00    +0.000 C 
DOCKED: BRANCH   3   7
DOCKED: ATOM      4  C   UNL     1      14.088 -11.283   0.824 -0.34 +0.00    +0.000 A 
DOCKED: ATOM      5  C   UNL     1      14.675 -11.230  -0.452 -0.32 +0.00    +0.000 A 
DOCKED: ATOM      6  C   UNL     1      16.037 -11.493  -0.622 -0.33 +0.00    +0.000 A 
DOCKED: ATOM      7  C   UNL     1      16.838 -11.822   0.481 -0.42 +0.00    +0.000 A 
DOCKED: ATOM      8  C   UNL     1      16.255 -11.897   1.753 -0.37 +0.00    +0.000 A 
DOCKED: ATOM      9  C   UNL     1      14.893 -11.634   1.927 -0.43 +0.00    +0.000 A 
DOCKED: BRANCH   4  11
DOCKED: ATOM     10  C   UNL     1      11.735 -11.919   1.340 -0.42 +0.00    +0.000 C 
DOCKED: ATOM     11  C   UNL     1      12.636 -11.006   0.949 -0.37 +0.00    +0.000 C 
DOCKED: BRANCH  10  13
DOCKED: ATOM     12  O   UNL     1       9.894 -10.453   1.291 -0.24 +0.00    +0.000 OA
DOCKED: ATOM     13  C   UNL     1      10.290 -11.636   1.463 -0.39 +0.00    +0.000 C 
DOCKED: ATOM     14  N   UNL     1       9.328 -12.663   1.741 -0.39 +0.00    +0.000 N 
DOCKED: ATOM     15  H   UNL     1       9.612 -13.604   1.774 -0.60 -0.00    +0.000 HD
DOCKED: BRANCH  14  16
DOCKED: ATOM     16  O   UNL     1       8.031 -12.339   1.957 -0.45 +0.00    +0.000 OA
DOCKED: ATOM     17  H   UNL     1       7.891 -11.405   1.739 -0.01 +0.00    +0.000 HD
DOCKED: ENDBRANCH  14  16
DOCKED: ENDBRANCH  10  13
DOCKED: ENDBRANCH   4  11
DOCKED: ENDBRANCH   3   7
DOCKED: ENDBRANCH   1   3
DOCKED: BRANCH   1  18
DOCKED: ATOM     18  C   UNL     1      20.135 -10.607   0.873 -0.66 -0.00    +0.000 C 
DOCKED: BRANCH  18  19
DOCKED: ATOM     19  C   UNL     1      19.833 -11.119   2.291 -0.73 -0.00    +0.000 C 
DOCKED: BRANCH  19  20
DOCKED: ATOM     20  O   UNL     1      20.413 -12.378   2.509 -1.37 -0.00    +0.000 OA
DOCKED: ATOM     21  H   UNL     1      21.042 -12.322   3.244 -0.61 -0.00    +0.000 HD
DOCKED: ENDBRANCH  19  20
DOCKED: ENDBRANCH  18  19
DOCKED: ENDBRANCH   1  18
DOCKED: BRANCH   1  22
DOCKED: ATOM     22  C   UNL     1      19.441 -10.914  -1.502 -0.46 -0.00    +0.000 C 
DOCKED: BRANCH  22  23
DOCKED: ATOM     23  C   UNL     1      20.928 -10.581  -1.737 -0.56 -0.00    +0.000 C 
DOCKED: BRANCH  23  24
DOCKED: ATOM     24  C   UNL     1      21.068  -9.599  -2.860 -0.46 -0.00    +0.000 A 
DOCKED: ATOM     25  C   UNL     1      21.276  -9.897  -4.205 -0.40 -0.00    +0.000 A 
DOCKED: ATOM     26  N   UNL     1      21.434  -8.761  -4.921 -0.28 -0.00    +0.000 N 
DOCKED: ATOM     27  C   UNL     1      21.342  -7.750  -4.040 -0.30 -0.00    +0.000 A 
DOCKED: ATOM     28  C   UNL     1      21.126  -8.222  -2.771 -0.40 -0.00    +0.000 A 
DOCKED: ATOM     29  C   UNL     1      21.023  -7.366  -1.674 -0.32 -0.00    +0.000 A 
DOCKED: ATOM     30  C   UNL     1      21.138  -5.983  -1.910 -0.41 -0.00    +0.000 A 
DOCKED: ATOM     31  C   UNL     1      21.356  -5.495  -3.217 -0.28 -0.00    +0.000 A 
DOCKED: ATOM     32  C   UNL     1      21.463  -6.386  -4.302 -0.22 -0.00    +0.000 A 
DOCKED: ATOM     33  H   UNL     1      21.585  -8.689  -5.891 -0.00 -0.00    +0.000 HD
DOCKED: ENDBRANCH  23  24
DOCKED: ENDBRANCH  22  23
DOCKED: ENDBRANCH   1  22
DOCKED: TORSDOF 11
DOCKED: TER
DOCKED: ENDMDL
________________________________________________________________________________


	BEGINNING GENETIC ALGORITHM DOCKING 23 of 100
Run: 23 Seed: 1890516804 963698555 [ Run 23 of 100 GA/GALS ]
Beginning LAMARCKIAN GENETIC ALGORITHM (LGA), with a maximum of 2500000 energy evaluations.

Final-Value: -15.448


	FINAL GENETIC ALGORITHM DOCKED STATE
	_______________________________________________


Detailed state:  trans 18.353 -11.177 0.178 quatxyzw 0.294550 -0.496196 0.780442 -0.240706 center 0.460 0.128 -0.007 ntor 11 9.3131 103.8849 171.7542 119.0434 178.9877 -51.3459 69.1765 36.3050 -125.3505 179.8078 33.8763
State:	 18.353 -11.177   0.178   0.303 -0.511  0.804 -152.144      9.31  103.88  171.75  119.04  178.99  -51.35   69.18   36.30 -125.35  179.81   33.88

DOCKED: MODEL       23
DOCKED: USER    Run = 23
DOCKED: USER    DPF = ligand_dock.biased.dpf
DOCKED: USER  
DOCKED: USER    Estimated Free Energy of Binding    =  -10.41 kcal/mol  [=(1)+(2)+(3)-(4)]
DOCKED: USER    Estimated Inhibition Constant, Ki   =   23.25 nM (nanomolar)  [Temperature = 298.15 K]
DOCKED: USER    
DOCKED: USER    (1) Final Intermolecular Energy     =  -13.70 kcal/mol
DOCKED: USER        vdW + Hbond + desolv Energy     =  -13.70 kcal/mol
DOCKED: USER        Electrostatic Energy            =   +0.00 kcal/mol
DOCKED: USER    (2) Final Total Internal Energy     =   -1.75 kcal/mol
DOCKED: USER    (3) Torsional Free Energy           =   +3.28 kcal/mol
DOCKED: USER    (4) Unbound System's Energy  [=(2)] =   -1.75 kcal/mol
DOCKED: USER    
DOCKED: USER    
DOCKED: USER    NEWDPF move ligand.pdbqt
DOCKED: USER    NEWDPF about 0.460000 0.128000 -0.007000
DOCKED: USER    NEWDPF tran0 18.353300 -11.176548 0.178274
DOCKED: USER    NEWDPF quaternion0 0.294550 -0.496196 0.780442 -0.240706
DOCKED: USER    NEWDPF axisangle0 0.303473 -0.511227 0.804084 -152.143600
DOCKED: USER    NEWDPF quat0 0.303473 -0.511227 0.804084 -152.143600
DOCKED: USER    NEWDPF dihe0 9.31 103.88 171.75 119.04 178.99 -51.35 69.18 36.30 -125.35 179.81 33.88 
DOCKED: USER  keepresnum = 1 
DOCKED: USER  
DOCKED: REMARK  Name = 
DOCKED: REMARK  11 active torsions:
DOCKED: REMARK  status: ('A' for Active; 'I' for Inactive)
DOCKED: REMARK    1  A    between atoms: C_2  and  C_5
DOCKED: REMARK    2  A    between atoms: N_3  and  O_4
DOCKED: REMARK    3  A    between atoms: C_6  and  C_7
DOCKED: REMARK    4  A    between atoms: C_10  and  C_11
DOCKED: REMARK    5  A    between atoms: C_11  and  N_12
DOCKED: REMARK    6  A    between atoms: N_12  and  C_13
DOCKED: REMARK    7  A    between atoms: N_12  and  C_16
DOCKED: REMARK    8  A    between atoms: C_13  and  C_14
DOCKED: REMARK    9  A    between atoms: C_14  and  O_15
DOCKED: REMARK   10  A    between atoms: C_16  and  C_17
DOCKED: REMARK   11  A    between atoms: C_17  and  C_18
DOCKED: REMARK                            x       y       z     vdW  Elec       q    Type
DOCKED: REMARK                         _______ _______ _______ _____ _____    ______ ____
DOCKED: USER                              x       y       z     vdW  Elec       q    Type
DOCKED: USER                           _______ _______ _______ _____ _____    ______ ____
DOCKED: ROOT
DOCKED: ATOM      1  N   UNL     1      19.847 -10.759   0.310 -0.54 -0.00    +0.000 N 
DOCKED: ATOM      2  H   UNL     1      19.186  -9.984   0.369 -0.02 -0.00    +0.000 HD
DOCKED: ENDROOT
DOCKED: BRANCH   1   3
DOCKED: ATOM      3  C   UNL     1      19.077 -12.019   0.231 -0.58 -0.00    +0.000 C 
DOCKED: BRANCH   3   7
DOCKED: ATOM      4  C   UNL     1      14.826 -11.210   0.323 -0.32 +0.00    +0.000 A 
DOCKED: ATOM      5  C   UNL     1      15.599 -10.836  -0.788 -0.28 +0.00    +0.000 A 
DOCKED: ATOM      6  C   UNL     1      16.974 -11.087  -0.819 -0.31 -0.00    +0.000 A 
DOCKED: ATOM      7  C   UNL     1      17.601 -11.726   0.261 -0.44 -0.00    +0.000 A 
DOCKED: ATOM      8  C   UNL     1      16.831 -12.121   1.364 -0.37 +0.00    +0.000 A 
DOCKED: ATOM      9  C   UNL     1      15.457 -11.870   1.397 -0.42 +0.00    +0.000 A 
DOCKED: BRANCH   4  11
DOCKED: ATOM     10  C   UNL     1      12.456 -11.685   0.928 -0.43 +0.00    +0.000 C 
DOCKED: ATOM     11  C   UNL     1      13.369 -10.930   0.300 -0.34 +0.00    +0.000 C 
DOCKED: BRANCH  10  13
DOCKED: ATOM     12  O   UNL     1      10.628 -10.247   0.565 -0.22 +0.00    +0.000 OA
DOCKED: ATOM     13  C   UNL     1      11.007 -11.400   0.901 -0.40 +0.00    +0.000 C 
DOCKED: ATOM     14  N   UNL     1      10.023 -12.395   1.217 -0.44 +0.00    +0.000 N 
DOCKED: ATOM     15  H   UNL     1      10.301 -13.325   1.381 -0.59 -0.00    +0.000 HD
DOCKED: BRANCH  14  16
DOCKED: ATOM     16  O   UNL     1       8.713 -12.058   1.290 -0.42 +0.00    +0.000 OA
DOCKED: ATOM     17  H   UNL     1       8.594 -11.153   0.962 -0.01 +0.00    +0.000 HD
DOCKED: ENDBRANCH  14  16
DOCKED: ENDBRANCH  10  13
DOCKED: ENDBRANCH   4  11
DOCKED: ENDBRANCH   3   7
DOCKED: ENDBRANCH   1   3
DOCKED: BRANCH   1  18
DOCKED: ATOM     18  C   UNL     1      20.646 -10.689   1.557 -0.64 -0.00    +0.000 C 
DOCKED: BRANCH  18  19
DOCKED: ATOM     19  C   UNL     1      19.831 -11.098   2.795 -0.74 -0.00    +0.000 C 
DOCKED: BRANCH  19  20
DOCKED: ATOM     20  O   UNL     1      19.883 -12.485   3.000 -1.12 -0.00    +0.000 OA
DOCKED: ATOM     21  H   UNL     1      20.791 -12.798   2.866 -0.59 -0.00    +0.000 HD
DOCKED: ENDBRANCH  19  20
DOCKED: ENDBRANCH  18  19
DOCKED: ENDBRANCH   1  18
DOCKED: BRANCH   1  22
DOCKED: ATOM     22  C   UNL     1      20.620 -10.500  -0.929 -0.63 -0.00    +0.000 C 
DOCKED: BRANCH  22  23
DOCKED: ATOM     23  C   UNL     1      21.199  -9.074  -1.026 -0.60 -0.00    +0.000 C 
DOCKED: BRANCH  23  24
DOCKED: ATOM     24  C   UNL     1      21.346  -8.670  -2.461 -0.44 -0.00    +0.000 A 
DOCKED: ATOM     25  C   UNL     1      21.493  -7.374  -2.949 -0.34 -0.00    +0.000 A 
DOCKED: ATOM     26  N   UNL     1      21.517  -7.379  -4.301 -0.27 -0.00    +0.000 N 
DOCKED: ATOM     27  C   UNL     1      21.372  -8.663  -4.671 -0.29 -0.00    +0.000 A 
DOCKED: ATOM     28  C   UNL     1      21.258  -9.480  -3.576 -0.41 -0.00    +0.000 A 
DOCKED: ATOM     29  C   UNL     1      21.069 -10.857  -3.700 -0.44 -0.00    +0.000 A 
DOCKED: ATOM     30  C   UNL     1      21.008 -11.395  -5.000 -0.48 -0.00    +0.000 A 
DOCKED: ATOM     31  C   UNL     1      21.131 -10.555  -6.129 -0.34 -0.00    +0.000 A 
DOCKED: ATOM     32  C   UNL     1      21.314  -9.168  -5.969 -0.23 -0.00    +0.000 A 
DOCKED: ATOM     33  H   UNL     1      21.621  -6.600  -4.893 -0.01 -0.00    +0.000 HD
DOCKED: ENDBRANCH  23  24
DOCKED: ENDBRANCH  22  23
DOCKED: ENDBRANCH   1  22
DOCKED: TORSDOF 11
DOCKED: TER
DOCKED: ENDMDL
________________________________________________________________________________


	BEGINNING GENETIC ALGORITHM DOCKING 24 of 100
Run: 24 Seed: 339718330 1533307595 [ Run 24 of 100 GA/GALS ]
Beginning LAMARCKIAN GENETIC ALGORITHM (LGA), with a maximum of 2500000 energy evaluations.

Final-Value: -16.537


	FINAL GENETIC ALGORITHM DOCKED STATE
	_______________________________________________


Detailed state:  trans 21.359 -9.036 -4.954 quatxyzw 0.040893 -0.745612 -0.603318 -0.279996 center 0.460 0.128 -0.007 ntor 11 31.9669 -17.9869 79.0794 53.4041 118.8416 43.7235 5.5573 57.5210 -74.4966 100.9226 50.6134
State:	 21.359  -9.036  -4.954   0.043 -0.777 -0.628 -147.480     31.97  -17.99   79.08   53.40  118.84   43.72    5.56   57.52  -74.50  100.92   50.61

DOCKED: MODEL       24
DOCKED: USER    Run = 24
DOCKED: USER    DPF = ligand_dock.biased.dpf
DOCKED: USER  
DOCKED: USER    Estimated Free Energy of Binding    =  -10.69 kcal/mol  [=(1)+(2)+(3)-(4)]
DOCKED: USER    Estimated Inhibition Constant, Ki   =   14.52 nM (nanomolar)  [Temperature = 298.15 K]
DOCKED: USER    
DOCKED: USER    (1) Final Intermolecular Energy     =  -13.97 kcal/mol
DOCKED: USER        vdW + Hbond + desolv Energy     =  -13.97 kcal/mol
DOCKED: USER        Electrostatic Energy            =   +0.00 kcal/mol
DOCKED: USER    (2) Final Total Internal Energy     =   -2.56 kcal/mol
DOCKED: USER    (3) Torsional Free Energy           =   +3.28 kcal/mol
DOCKED: USER    (4) Unbound System's Energy  [=(2)] =   -2.56 kcal/mol
DOCKED: USER    
DOCKED: USER    
DOCKED: USER    NEWDPF move ligand.pdbqt
DOCKED: USER    NEWDPF about 0.460000 0.128000 -0.007000
DOCKED: USER    NEWDPF tran0 21.358593 -9.035561 -4.954027
DOCKED: USER    NEWDPF quaternion0 0.040893 -0.745612 -0.603318 -0.279996
DOCKED: USER    NEWDPF axisangle0 0.042597 -0.776678 -0.628456 -147.480029
DOCKED: USER    NEWDPF quat0 0.042597 -0.776678 -0.628456 -147.480029
DOCKED: USER    NEWDPF dihe0 31.97 -17.99 79.08 53.40 118.84 43.72 5.56 57.52 -74.50 100.92 50.61 
DOCKED: USER  keepresnum = 1 
DOCKED: USER  
DOCKED: REMARK  Name = 
DOCKED: REMARK  11 active torsions:
DOCKED: REMARK  status: ('A' for Active; 'I' for Inactive)
DOCKED: REMARK    1  A    between atoms: C_2  and  C_5
DOCKED: REMARK    2  A    between atoms: N_3  and  O_4
DOCKED: REMARK    3  A    between atoms: C_6  and  C_7
DOCKED: REMARK    4  A    between atoms: C_10  and  C_11
DOCKED: REMARK    5  A    between atoms: C_11  and  N_12
DOCKED: REMARK    6  A    between atoms: N_12  and  C_13
DOCKED: REMARK    7  A    between atoms: N_12  and  C_16
DOCKED: REMARK    8  A    between atoms: C_13  and  C_14
DOCKED: REMARK    9  A    between atoms: C_14  and  O_15
DOCKED: REMARK   10  A    between atoms: C_16  and  C_17
DOCKED: REMARK   11  A    between atoms: C_17  and  C_18
DOCKED: REMARK                            x       y       z     vdW  Elec       q    Type
DOCKED: REMARK                         _______ _______ _______ _____ _____    ______ ____
DOCKED: USER                              x       y       z     vdW  Elec       q    Type
DOCKED: USER                           _______ _______ _______ _____ _____    ______ ____
DOCKED: ROOT
DOCKED: ATOM      1  N   UNL     1      21.803  -9.005  -6.446 -0.21 -0.00    +0.000 N 
DOCKED: ATOM      2  H   UNL     1      21.738  -9.941  -6.044 -0.00 -0.00    +0.000 HD
DOCKED: ENDROOT
DOCKED: BRANCH   1   3
DOCKED: ATOM      3  C   UNL     1      21.324  -8.035  -5.438 -0.23 -0.00    +0.000 C 
DOCKED: BRANCH   3   7
DOCKED: ATOM      4  C   UNL     1      21.287  -9.849  -1.508 -0.56 -0.00    +0.000 A 
DOCKED: ATOM      5  C   UNL     1      21.496 -10.634  -2.654 -0.39 -0.00    +0.000 A 
DOCKED: ATOM      6  C   UNL     1      21.500 -10.054  -3.926 -0.41 -0.00    +0.000 A 
DOCKED: ATOM      7  C   UNL     1      21.302  -8.674  -4.074 -0.33 -0.00    +0.000 A 
DOCKED: ATOM      8  C   UNL     1      21.115  -7.881  -2.933 -0.38 -0.00    +0.000 A 
DOCKED: ATOM      9  C   UNL     1      21.109  -8.459  -1.661 -0.45 -0.00    +0.000 A 
DOCKED: BRANCH   4  11
DOCKED: ATOM     10  C   UNL     1      20.235 -10.588   0.626 -0.66 -0.00    +0.000 C 
DOCKED: ATOM     11  C   UNL     1      21.303 -10.513  -0.181 -0.71 -0.00    +0.000 C 
DOCKED: BRANCH  10  13
DOCKED: ATOM     12  O   UNL     1      20.204 -12.509   1.987 -1.58 -0.00    +0.000 OA
DOCKED: ATOM     13  C   UNL     1      20.258 -11.252   1.946 -0.76 -0.00    +0.000 C 
DOCKED: ATOM     14  N   UNL     1      20.367 -10.515   3.172 -0.68 -0.00    +0.000 N 
DOCKED: ATOM     15  H   UNL     1      20.514  -9.543   3.149 -0.58 -0.00    +0.000 HD
DOCKED: BRANCH  14  16
DOCKED: ATOM     16  O   UNL     1      20.270 -11.156   4.362 -0.75 -0.00    +0.000 OA
DOCKED: ATOM     17  H   UNL     1      20.625 -12.055   4.274 -0.48 -0.00    +0.000 HD
DOCKED: ENDBRANCH  14  16
DOCKED: ENDBRANCH  10  13
DOCKED: ENDBRANCH   4  11
DOCKED: ENDBRANCH   3   7
DOCKED: ENDBRANCH   1   3
DOCKED: BRANCH   1  18
DOCKED: ATOM     18  C   UNL     1      20.922  -9.028  -7.638 -0.14 -0.00    +0.000 C 
DOCKED: BRANCH  18  19
DOCKED: ATOM     19  C   UNL     1      20.146 -10.348  -7.764 -0.26 -0.00    +0.000 C 
DOCKED: BRANCH  19  20
DOCKED: ATOM     20  O   UNL     1      20.547 -11.268  -6.785 -0.29 -0.00    +0.000 OA
DOCKED: ATOM     21  H   UNL     1      21.385 -11.679  -7.050 -0.47 -0.00    +0.000 HD
DOCKED: ENDBRANCH  19  20
DOCKED: ENDBRANCH  18  19
DOCKED: ENDBRANCH   1  18
DOCKED: BRANCH   1  22
DOCKED: ATOM     22  C   UNL     1      23.243  -8.826  -6.750 -0.23 -0.00    +0.000 C 
DOCKED: BRANCH  22  23
DOCKED: ATOM     23  C   UNL     1      23.603  -9.017  -8.237 -0.17 -0.00    +0.000 C 
DOCKED: BRANCH  23  24
DOCKED: ATOM     24  C   UNL     1      24.773  -9.944  -8.373 -0.24 -0.00    +0.000 A 
DOCKED: ATOM     25  C   UNL     1      24.726 -11.305  -8.665 -0.35 -0.00    +0.000 A 
DOCKED: ATOM     26  N   UNL     1      25.969 -11.837  -8.631 -0.39 -0.00    +0.000 N 
DOCKED: ATOM     27  C   UNL     1      26.797 -10.829  -8.306 -0.34 -0.00    +0.000 A 
DOCKED: ATOM     28  C   UNL     1      26.103  -9.659  -8.134 -0.29 -0.00    +0.000 A 
DOCKED: ATOM     29  C   UNL     1      26.738  -8.473  -7.764 -0.23 -0.00    +0.000 A 
DOCKED: ATOM     30  C   UNL     1      28.133  -8.507  -7.580 -0.27 -0.00    +0.000 A 
DOCKED: ATOM     31  C   UNL     1      28.850  -9.711  -7.761 -0.42 -0.00    +0.000 A 
DOCKED: ATOM     32  C   UNL     1      28.178 -10.893  -8.128 -0.28 -0.00    +0.000 A 
DOCKED: ATOM     33  H   UNL     1      26.216 -12.773  -8.808 -0.44 -0.00    +0.000 HD
DOCKED: ENDBRANCH  23  24
DOCKED: ENDBRANCH  22  23
DOCKED: ENDBRANCH   1  22
DOCKED: TORSDOF 11
DOCKED: TER
DOCKED: ENDMDL
________________________________________________________________________________


	BEGINNING GENETIC ALGORITHM DOCKING 25 of 100
Run: 25 Seed: 928466857 1420674866 [ Run 25 of 100 GA/GALS ]
Beginning LAMARCKIAN GENETIC ALGORITHM (LGA), with a maximum of 2500000 energy evaluations.

Final-Value: -16.639


	FINAL GENETIC ALGORITHM DOCKED STATE
	_______________________________________________


Detailed state:  trans 18.455 -11.254 -1.091 quatxyzw -0.025194 0.436918 -0.892891 0.105888 center 0.460 0.128 -0.007 ntor 11 159.1045 -152.9273 137.0034 -170.3933 146.1509 1.4267 -179.7506 99.0932 -179.8592 169.6484 -7.8418
State:	 18.455 -11.254  -1.091  -0.025  0.439 -0.898 167.843    159.10 -152.93  137.00 -170.39  146.15    1.43 -179.75   99.09 -179.86  169.65   -7.84

DOCKED: MODEL       25
DOCKED: USER    Run = 25
DOCKED: USER    DPF = ligand_dock.biased.dpf
DOCKED: USER  
DOCKED: USER    Estimated Free Energy of Binding    =  -11.37 kcal/mol  [=(1)+(2)+(3)-(4)]
DOCKED: USER    Estimated Inhibition Constant, Ki   =    4.67 nM (nanomolar)  [Temperature = 298.15 K]
DOCKED: USER    
DOCKED: USER    (1) Final Intermolecular Energy     =  -14.65 kcal/mol
DOCKED: USER        vdW + Hbond + desolv Energy     =  -14.65 kcal/mol
DOCKED: USER        Electrostatic Energy            =   +0.00 kcal/mol
DOCKED: USER    (2) Final Total Internal Energy     =   -1.99 kcal/mol
DOCKED: USER    (3) Torsional Free Energy           =   +3.28 kcal/mol
DOCKED: USER    (4) Unbound System's Energy  [=(2)] =   -1.99 kcal/mol
DOCKED: USER    
DOCKED: USER    
DOCKED: USER    NEWDPF move ligand.pdbqt
DOCKED: USER    NEWDPF about 0.460000 0.128000 -0.007000
DOCKED: USER    NEWDPF tran0 18.454736 -11.253871 -1.090522
DOCKED: USER    NEWDPF quaternion0 -0.025194 0.436918 -0.892891 0.105888
DOCKED: USER    NEWDPF axisangle0 -0.025337 0.439389 -0.897940 167.843297
DOCKED: USER    NEWDPF quat0 -0.025337 0.439389 -0.897940 167.843297
DOCKED: USER    NEWDPF dihe0 159.10 -152.93 137.00 -170.39 146.15 1.43 -179.75 99.09 -179.86 169.65 -7.84 
DOCKED: USER  keepresnum = 1 
DOCKED: USER  
DOCKED: REMARK  Name = 
DOCKED: REMARK  11 active torsions:
DOCKED: REMARK  status: ('A' for Active; 'I' for Inactive)
DOCKED: REMARK    1  A    between atoms: C_2  and  C_5
DOCKED: REMARK    2  A    between atoms: N_3  and  O_4
DOCKED: REMARK    3  A    between atoms: C_6  and  C_7
DOCKED: REMARK    4  A    between atoms: C_10  and  C_11
DOCKED: REMARK    5  A    between atoms: C_11  and  N_12
DOCKED: REMARK    6  A    between atoms: N_12  and  C_13
DOCKED: REMARK    7  A    between atoms: N_12  and  C_16
DOCKED: REMARK    8  A    between atoms: C_13  and  C_14
DOCKED: REMARK    9  A    between atoms: C_14  and  O_15
DOCKED: REMARK   10  A    between atoms: C_16  and  C_17
DOCKED: REMARK   11  A    between atoms: C_17  and  C_18
DOCKED: REMARK                            x       y       z     vdW  Elec       q    Type
DOCKED: REMARK                         _______ _______ _______ _____ _____    ______ ____
DOCKED: USER                              x       y       z     vdW  Elec       q    Type
DOCKED: USER                           _______ _______ _______ _____ _____    ______ ____
DOCKED: ROOT
DOCKED: ATOM      1  N   UNL     1      19.631 -10.661  -0.260 -0.49 -0.00    +0.000 N 
DOCKED: ATOM      2  H   UNL     1      19.087  -9.968  -0.775 -0.01 -0.00    +0.000 HD
DOCKED: ENDROOT
DOCKED: BRANCH   1   3
DOCKED: ATOM      3  C   UNL     1      18.984 -11.980  -0.436 -0.41 -0.00    +0.000 C 
DOCKED: BRANCH   3   7
DOCKED: ATOM      4  C   UNL     1      14.681 -11.612  -0.158 -0.37 +0.00    +0.000 A 
DOCKED: ATOM      5  C   UNL     1      15.397 -10.889  -1.126 -0.28 -0.00    +0.000 A 
DOCKED: ATOM      6  C   UNL     1      16.788 -10.998  -1.213 -0.26 -0.00    +0.000 A 
DOCKED: ATOM      7  C   UNL     1      17.488 -11.840  -0.337 -0.40 -0.00    +0.000 A 
DOCKED: ATOM      8  C   UNL     1      16.777 -12.580   0.617 -0.43 +0.00    +0.000 A 
DOCKED: ATOM      9  C   UNL     1      15.386 -12.472   0.707 -0.42 +0.00    +0.000 A 
DOCKED: BRANCH   4  11
DOCKED: ATOM     10  C   UNL     1      12.463 -11.731   0.972 -0.43 +0.00    +0.000 C 
DOCKED: ATOM     11  C   UNL     1      13.204 -11.468  -0.114 -0.39 +0.00    +0.000 C 
DOCKED: BRANCH  10  13
DOCKED: ATOM     12  O   UNL     1      10.487 -10.503   0.609 -0.25 +0.00    +0.000 OA
DOCKED: ATOM     13  C   UNL     1      10.993 -11.585   1.008 -0.43 +0.00    +0.000 C 
DOCKED: ATOM     14  N   UNL     1      10.129 -12.639   1.453 -0.36 +0.00    +0.000 N 
DOCKED: ATOM     15  H   UNL     1      10.504 -13.523   1.668 -0.58 +0.00    +0.000 HD
DOCKED: BRANCH  14  16
DOCKED: ATOM     16  O   UNL     1       8.797 -12.422   1.576 -0.48 +0.00    +0.000 OA
DOCKED: ATOM     17  H   UNL     1       8.328 -13.270   1.557 -0.44 -0.00    +0.000 HD
DOCKED: ENDBRANCH  14  16
DOCKED: ENDBRANCH  10  13
DOCKED: ENDBRANCH   4  11
DOCKED: ENDBRANCH   3   7
DOCKED: ENDBRANCH   1   3
DOCKED: BRANCH   1  18
DOCKED: ATOM     18  C   UNL     1      19.588 -10.221   1.155 -0.52 -0.00    +0.000 C 
DOCKED: BRANCH  18  19
DOCKED: ATOM     19  C   UNL     1      19.468 -11.403   2.131 -0.71 -0.00    +0.000 C 
DOCKED: BRANCH  19  20
DOCKED: ATOM     20  O   UNL     1      20.462 -12.362   1.890 -1.57 -0.00    +0.000 OA
DOCKED: ATOM     21  H   UNL     1      20.728 -12.771   2.728 -0.58 -0.00    +0.000 HD
DOCKED: ENDBRANCH  19  20
DOCKED: ENDBRANCH  18  19
DOCKED: ENDBRANCH   1  18
DOCKED: BRANCH   1  22
DOCKED: ATOM     22  C   UNL     1      20.979 -10.616  -0.876 -0.63 -0.00    +0.000 C 
DOCKED: BRANCH  22  23
DOCKED: ATOM     23  C   UNL     1      21.088  -9.666  -2.086 -0.58 -0.00    +0.000 C 
DOCKED: BRANCH  23  24
DOCKED: ATOM     24  C   UNL     1      20.751 -10.395  -3.351 -0.46 -0.00    +0.000 A 
DOCKED: ATOM     25  C   UNL     1      21.628 -11.129  -4.145 -0.32 -0.00    +0.000 A 
DOCKED: ATOM     26  N   UNL     1      20.994 -11.582  -5.251 -0.51 -0.00    +0.000 N 
DOCKED: ATOM     27  C   UNL     1      19.732 -11.128  -5.169 -0.41 -0.00    +0.000 A 
DOCKED: ATOM     28  C   UNL     1      19.547 -10.393  -4.026 -0.35 -0.00    +0.000 A 
DOCKED: ATOM     29  C   UNL     1      18.325  -9.790  -3.728 -0.25 -0.00    +0.000 A 
DOCKED: ATOM     30  C   UNL     1      17.267  -9.967  -4.640 -0.22 -0.00    +0.000 A 
DOCKED: ATOM     31  C   UNL     1      17.455 -10.727  -5.815 -0.27 -0.00    +0.000 A 
DOCKED: ATOM     32  C   UNL     1      18.703 -11.317  -6.091 -0.34 -0.00    +0.000 A 
DOCKED: ATOM     33  H   UNL     1      21.380 -12.133  -5.970 -0.50 -0.00    +0.000 HD
DOCKED: ENDBRANCH  23  24
DOCKED: ENDBRANCH  22  23
DOCKED: ENDBRANCH   1  22
DOCKED: TORSDOF 11
DOCKED: TER
DOCKED: ENDMDL
________________________________________________________________________________


	BEGINNING GENETIC ALGORITHM DOCKING 26 of 100
Run: 26 Seed: 1763712590 2004822023 [ Run 26 of 100 GA/GALS ]
Beginning LAMARCKIAN GENETIC ALGORITHM (LGA), with a maximum of 2500000 energy evaluations.

Final-Value: -15.924


	FINAL GENETIC ALGORITHM DOCKED STATE
	_______________________________________________


Detailed state:  trans 19.812 -10.511 -2.592 quatxyzw 0.546957 -0.341420 -0.119165 0.755030 center 0.460 0.128 -0.007 ntor 11 -14.0207 129.7675 167.8766 -72.8631 135.8762 140.9474 39.7088 9.8801 -151.0852 74.5352 11.5932
State:	 19.812 -10.511  -2.592   0.834 -0.521 -0.182 81.944    -14.02  129.77  167.88  -72.86  135.88  140.95   39.71    9.88 -151.09   74.54   11.59

DOCKED: MODEL       26
DOCKED: USER    Run = 26
DOCKED: USER    DPF = ligand_dock.biased.dpf
DOCKED: USER  
DOCKED: USER    Estimated Free Energy of Binding    =  -10.70 kcal/mol  [=(1)+(2)+(3)-(4)]
DOCKED: USER    Estimated Inhibition Constant, Ki   =   14.27 nM (nanomolar)  [Temperature = 298.15 K]
DOCKED: USER    
DOCKED: USER    (1) Final Intermolecular Energy     =  -13.98 kcal/mol
DOCKED: USER        vdW + Hbond + desolv Energy     =  -13.98 kcal/mol
DOCKED: USER        Electrostatic Energy            =   +0.00 kcal/mol
DOCKED: USER    (2) Final Total Internal Energy     =   -1.94 kcal/mol
DOCKED: USER    (3) Torsional Free Energy           =   +3.28 kcal/mol
DOCKED: USER    (4) Unbound System's Energy  [=(2)] =   -1.94 kcal/mol
DOCKED: USER    
DOCKED: USER    
DOCKED: USER    NEWDPF move ligand.pdbqt
DOCKED: USER    NEWDPF about 0.460000 0.128000 -0.007000
DOCKED: USER    NEWDPF tran0 19.812063 -10.511361 -2.591656
DOCKED: USER    NEWDPF quaternion0 0.546957 -0.341420 -0.119165 0.755030
DOCKED: USER    NEWDPF axisangle0 0.834169 -0.520704 -0.181739 81.944015
DOCKED: USER    NEWDPF quat0 0.834169 -0.520704 -0.181739 81.944015
DOCKED: USER    NEWDPF dihe0 -14.02 129.77 167.88 -72.86 135.88 140.95 39.71 9.88 -151.09 74.54 11.59 
DOCKED: USER  keepresnum = 1 
DOCKED: USER  
DOCKED: REMARK  Name = 
DOCKED: REMARK  11 active torsions:
DOCKED: REMARK  status: ('A' for Active; 'I' for Inactive)
DOCKED: REMARK    1  A    between atoms: C_2  and  C_5
DOCKED: REMARK    2  A    between atoms: N_3  and  O_4
DOCKED: REMARK    3  A    between atoms: C_6  and  C_7
DOCKED: REMARK    4  A    between atoms: C_10  and  C_11
DOCKED: REMARK    5  A    between atoms: C_11  and  N_12
DOCKED: REMARK    6  A    between atoms: N_12  and  C_13
DOCKED: REMARK    7  A    between atoms: N_12  and  C_16
DOCKED: REMARK    8  A    between atoms: C_13  and  C_14
DOCKED: REMARK    9  A    between atoms: C_14  and  O_15
DOCKED: REMARK   10  A    between atoms: C_16  and  C_17
DOCKED: REMARK   11  A    between atoms: C_17  and  C_18
DOCKED: REMARK                            x       y       z     vdW  Elec       q    Type
DOCKED: REMARK                         _______ _______ _______ _____ _____    ______ ____
DOCKED: USER                              x       y       z     vdW  Elec       q    Type
DOCKED: USER                           _______ _______ _______ _____ _____    ______ ____
DOCKED: ROOT
DOCKED: ATOM      1  N   UNL     1      19.807 -10.803  -1.062 -0.48 -0.00    +0.000 N 
DOCKED: ATOM      2  H   UNL     1      19.855 -11.636  -1.650 -0.02 -0.00    +0.000 HD
DOCKED: ENDROOT
DOCKED: BRANCH   1   3
DOCKED: ATOM      3  C   UNL     1      19.876  -9.614  -1.939 -0.24 -0.00    +0.000 C 
DOCKED: BRANCH   3   7
DOCKED: ATOM      4  C   UNL     1      21.684 -10.664  -5.728 -0.40 -0.00    +0.000 A 
DOCKED: ATOM      5  C   UNL     1      22.140 -11.247  -4.535 -0.21 -0.00    +0.000 A 
DOCKED: ATOM      6  C   UNL     1      21.565 -10.904  -3.308 -0.31 -0.00    +0.000 A 
DOCKED: ATOM      7  C   UNL     1      20.516  -9.976  -3.253 -0.43 -0.00    +0.000 A 
DOCKED: ATOM      8  C   UNL     1      20.042  -9.405  -4.442 -0.27 -0.00    +0.000 A 
DOCKED: ATOM      9  C   UNL     1      20.616  -9.746  -5.671 -0.25 -0.00    +0.000 A 
DOCKED: BRANCH   4  11
DOCKED: ATOM     10  C   UNL     1      23.514 -11.678  -7.081 -0.47 -0.00    +0.000 C 
DOCKED: ATOM     11  C   UNL     1      22.322 -11.070  -7.006 -0.41 -0.00    +0.000 C 
DOCKED: BRANCH  10  13
DOCKED: ATOM     12  O   UNL     1      23.540 -12.910  -9.087 -0.47 -0.00    +0.000 OA
DOCKED: ATOM     13  C   UNL     1      24.143 -12.080  -8.357 -0.48 -0.00    +0.000 C 
DOCKED: ATOM     14  N   UNL     1      25.395 -11.538  -8.799 -0.39 -0.00    +0.000 N 
DOCKED: ATOM     15  H   UNL     1      25.824 -10.815  -8.288 -0.02 -0.00    +0.000 HD
DOCKED: BRANCH  14  16
DOCKED: ATOM     16  O   UNL     1      25.988 -12.020  -9.917 -0.32 -0.00    +0.000 OA
DOCKED: ATOM     17  H   UNL     1      25.567 -12.856 -10.171 -0.25 -0.00    +0.000 HD
DOCKED: ENDBRANCH  14  16
DOCKED: ENDBRANCH  10  13
DOCKED: ENDBRANCH   4  11
DOCKED: ENDBRANCH   3   7
DOCKED: ENDBRANCH   1   3
DOCKED: BRANCH   1  18
DOCKED: ATOM     18  C   UNL     1      20.987 -10.887  -0.168 -0.66 -0.00    +0.000 C 
DOCKED: BRANCH  18  19
DOCKED: ATOM     19  C   UNL     1      20.592 -10.910   1.317 -0.71 -0.00    +0.000 C 
DOCKED: BRANCH  19  20
DOCKED: ATOM     20  O   UNL     1      20.254 -12.207   1.732 -1.71 -0.00    +0.000 OA
DOCKED: ATOM     21  H   UNL     1      21.048 -12.763   1.738 -0.59 -0.00    +0.000 HD
DOCKED: ENDBRANCH  19  20
DOCKED: ENDBRANCH  18  19
DOCKED: ENDBRANCH   1  18
DOCKED: BRANCH   1  22
DOCKED: ATOM     22  C   UNL     1      18.502 -10.907  -0.367 -0.46 -0.00    +0.000 C 
DOCKED: BRANCH  22  23
DOCKED: ATOM     23  C   UNL     1      17.972 -12.349  -0.231 -0.51 -0.00    +0.000 C 
DOCKED: BRANCH  23  24
DOCKED: ATOM     24  C   UNL     1      16.637 -12.349   0.449 -0.46 +0.00    +0.000 A 
DOCKED: ATOM     25  C   UNL     1      15.495 -13.033   0.040 -0.46 +0.00    +0.000 A 
DOCKED: ATOM     26  N   UNL     1      14.454 -12.739   0.851 -0.41 +0.00    +0.000 N 
DOCKED: ATOM     27  C   UNL     1      14.923 -11.865   1.758 -0.43 +0.00    +0.000 A 
DOCKED: ATOM     28  C   UNL     1      16.250 -11.598   1.542 -0.40 +0.00    +0.000 A 
DOCKED: ATOM     29  C   UNL     1      16.960 -10.697   2.337 -0.42 +0.00    +0.000 A 
DOCKED: ATOM     30  C   UNL     1      16.268 -10.068   3.389 -0.40 +0.00    +0.000 A 
DOCKED: ATOM     31  C   UNL     1      14.902 -10.346   3.616 -0.41 +0.00    +0.000 A 
DOCKED: ATOM     32  C   UNL     1      14.213 -11.255   2.791 -0.38 +0.00    +0.000 A 
DOCKED: ATOM     33  H   UNL     1      13.537 -13.093   0.788 -0.16 +0.00    +0.000 HD
DOCKED: ENDBRANCH  23  24
DOCKED: ENDBRANCH  22  23
DOCKED: ENDBRANCH   1  22
DOCKED: TORSDOF 11
DOCKED: TER
DOCKED: ENDMDL
________________________________________________________________________________


	BEGINNING GENETIC ALGORITHM DOCKING 27 of 100
Run: 27 Seed: 2089475325 1166556865 [ Run 27 of 100 GA/GALS ]
Beginning LAMARCKIAN GENETIC ALGORITHM (LGA), with a maximum of 2500000 energy evaluations.

Final-Value: -16.354


	FINAL GENETIC ALGORITHM DOCKED STATE
	_______________________________________________


Detailed state:  trans 17.193 -10.533 1.531 quatxyzw -0.218315 0.655685 -0.475954 0.543951 center 0.460 0.128 -0.007 ntor 11 13.1884 -18.5486 68.6592 51.1020 -97.5724 -63.9419 20.1861 45.2710 -112.2435 26.3133 26.1592
State:	 17.193 -10.533   1.531  -0.260  0.781 -0.567 114.094     13.19  -18.55   68.66   51.10  -97.57  -63.94   20.19   45.27 -112.24   26.31   26.16

DOCKED: MODEL       27
DOCKED: USER    Run = 27
DOCKED: USER    DPF = ligand_dock.biased.dpf
DOCKED: USER  
DOCKED: USER    Estimated Free Energy of Binding    =  -10.32 kcal/mol  [=(1)+(2)+(3)-(4)]
DOCKED: USER    Estimated Inhibition Constant, Ki   =   27.35 nM (nanomolar)  [Temperature = 298.15 K]
DOCKED: USER    
DOCKED: USER    (1) Final Intermolecular Energy     =  -13.60 kcal/mol
DOCKED: USER        vdW + Hbond + desolv Energy     =  -13.60 kcal/mol
DOCKED: USER        Electrostatic Energy            =   +0.00 kcal/mol
DOCKED: USER    (2) Final Total Internal Energy     =   -2.75 kcal/mol
DOCKED: USER    (3) Torsional Free Energy           =   +3.28 kcal/mol
DOCKED: USER    (4) Unbound System's Energy  [=(2)] =   -2.75 kcal/mol
DOCKED: USER    
DOCKED: USER    
DOCKED: USER    NEWDPF move ligand.pdbqt
DOCKED: USER    NEWDPF about 0.460000 0.128000 -0.007000
DOCKED: USER    NEWDPF tran0 17.193161 -10.533115 1.531153
DOCKED: USER    NEWDPF quaternion0 -0.218315 0.655685 -0.475954 0.543951
DOCKED: USER    NEWDPF axisangle0 -0.260173 0.781399 -0.567209 114.093940
DOCKED: USER    NEWDPF quat0 -0.260173 0.781399 -0.567209 114.093940
DOCKED: USER    NEWDPF dihe0 13.19 -18.55 68.66 51.10 -97.57 -63.94 20.19 45.27 -112.24 26.31 26.16 
DOCKED: USER  keepresnum = 1 
DOCKED: USER  
DOCKED: REMARK  Name = 
DOCKED: REMARK  11 active torsions:
DOCKED: REMARK  status: ('A' for Active; 'I' for Inactive)
DOCKED: REMARK    1  A    between atoms: C_2  and  C_5
DOCKED: REMARK    2  A    between atoms: N_3  and  O_4
DOCKED: REMARK    3  A    between atoms: C_6  and  C_7
DOCKED: REMARK    4  A    between atoms: C_10  and  C_11
DOCKED: REMARK    5  A    between atoms: C_11  and  N_12
DOCKED: REMARK    6  A    between atoms: N_12  and  C_13
DOCKED: REMARK    7  A    between atoms: N_12  and  C_16
DOCKED: REMARK    8  A    between atoms: C_13  and  C_14
DOCKED: REMARK    9  A    between atoms: C_14  and  O_15
DOCKED: REMARK   10  A    between atoms: C_16  and  C_17
DOCKED: REMARK   11  A    between atoms: C_17  and  C_18
DOCKED: REMARK                            x       y       z     vdW  Elec       q    Type
DOCKED: REMARK                         _______ _______ _______ _____ _____    ______ ____
DOCKED: USER                              x       y       z     vdW  Elec       q    Type
DOCKED: USER                           _______ _______ _______ _____ _____    ______ ____
DOCKED: ROOT
DOCKED: ATOM      1  N   UNL     1      18.491 -11.304   1.151 -0.47 -0.00    +0.000 N 
DOCKED: ATOM      2  H   UNL     1      18.653 -10.405   1.605 -0.01 -0.00    +0.000 HD
DOCKED: ENDROOT
DOCKED: BRANCH   1   3
DOCKED: ATOM      3  C   UNL     1      17.035 -11.562   1.141 -0.47 +0.00    +0.000 C 
DOCKED: BRANCH   3   7
DOCKED: ATOM      4  C   UNL     1      14.998  -8.537   3.472 -0.32 +0.00    +0.000 A 
DOCKED: ATOM      5  C   UNL     1      15.542  -9.672   4.096 -0.29 +0.00    +0.000 A 
DOCKED: ATOM      6  C   UNL     1      16.192 -10.656   3.346 -0.46 +0.00    +0.000 A 
DOCKED: ATOM      7  C   UNL     1      16.319 -10.518   1.956 -0.37 +0.00    +0.000 A 
DOCKED: ATOM      8  C   UNL     1      15.797  -9.378   1.330 -0.23 +0.00    +0.000 A 
DOCKED: ATOM      9  C   UNL     1      15.145  -8.393   2.078 -0.25 +0.00    +0.000 A 
DOCKED: BRANCH   4  11
DOCKED: ATOM     10  C   UNL     1      14.493  -6.196   4.160 -0.36 +0.00    +0.000 C 
DOCKED: ATOM     11  C   UNL     1      14.326  -7.517   4.315 -0.36 +0.00    +0.000 C 
DOCKED: BRANCH  10  13
DOCKED: ATOM     12  O   UNL     1      14.117  -5.132   6.226 -1.02 +0.00    +0.000 OA
DOCKED: ATOM     13  C   UNL     1      13.820  -5.186   5.003 -0.38 +0.00    +0.000 C 
DOCKED: ATOM     14  N   UNL     1      12.869  -4.255   4.472 -0.28 +0.00    +0.000 N 
DOCKED: ATOM     15  H   UNL     1      12.706  -4.219   3.502 +0.01 +0.00    +0.000 HD
DOCKED: BRANCH  14  16
DOCKED: ATOM     16  O   UNL     1      12.194  -3.423   5.301 -0.42 +0.00    +0.000 OA
DOCKED: ATOM     17  H   UNL     1      12.609  -3.435   6.178 -0.52 +0.00    +0.000 HD
DOCKED: ENDBRANCH  14  16
DOCKED: ENDBRANCH  10  13
DOCKED: ENDBRANCH   4  11
DOCKED: ENDBRANCH   3   7
DOCKED: ENDBRANCH   1   3
DOCKED: BRANCH   1  18
DOCKED: ATOM     18  C   UNL     1      19.212 -12.298   1.982 -0.58 -0.00    +0.000 C 
DOCKED: BRANCH  18  19
DOCKED: ATOM     19  C   UNL     1      19.853 -11.662   3.227 -0.75 -0.00    +0.000 C 
DOCKED: BRANCH  19  20
DOCKED: ATOM     20  O   UNL     1      19.915 -10.266   3.107 -0.75 -0.00    +0.000 OA
DOCKED: ATOM     21  H   UNL     1      20.667 -10.022   2.546 -0.47 -0.00    +0.000 HD
DOCKED: ENDBRANCH  19  20
DOCKED: ENDBRANCH  18  19
DOCKED: ENDBRANCH   1  18
DOCKED: BRANCH   1  22
DOCKED: ATOM     22  C   UNL     1      19.036 -11.138  -0.218 -0.52 -0.00    +0.000 C 
DOCKED: BRANCH  22  23
DOCKED: ATOM     23  C   UNL     1      20.557 -10.887  -0.266 -0.64 -0.00    +0.000 C 
DOCKED: BRANCH  23  24
DOCKED: ATOM     24  C   UNL     1      20.888  -9.915  -1.358 -0.56 -0.00    +0.000 A 
DOCKED: ATOM     25  C   UNL     1      21.387  -8.625  -1.199 -0.45 -0.00    +0.000 A 
DOCKED: ATOM     26  N   UNL     1      21.492  -8.010  -2.399 -0.45 -0.00    +0.000 N 
DOCKED: ATOM     27  C   UNL     1      21.051  -8.894  -3.311 -0.39 -0.00    +0.000 A 
DOCKED: ATOM     28  C   UNL     1      20.668 -10.067  -2.713 -0.47 -0.00    +0.000 A 
DOCKED: ATOM     29  C   UNL     1      20.147 -11.132  -3.447 -0.36 -0.00    +0.000 A 
DOCKED: ATOM     30  C   UNL     1      20.033 -10.973  -4.841 -0.42 -0.00    +0.000 A 
DOCKED: ATOM     31  C   UNL     1      20.432  -9.767  -5.459 -0.26 -0.00    +0.000 A 
DOCKED: ATOM     32  C   UNL     1      20.948  -8.708  -4.688 -0.27 -0.00    +0.000 A 
DOCKED: ATOM     33  H   UNL     1      21.824  -7.099  -2.570 -0.04 -0.00    +0.000 HD
DOCKED: ENDBRANCH  23  24
DOCKED: ENDBRANCH  22  23
DOCKED: ENDBRANCH   1  22
DOCKED: TORSDOF 11
DOCKED: TER
DOCKED: ENDMDL
________________________________________________________________________________


	BEGINNING GENETIC ALGORITHM DOCKING 28 of 100
Run: 28 Seed: 534225481 883513798 [ Run 28 of 100 GA/GALS ]
Beginning LAMARCKIAN GENETIC ALGORITHM (LGA), with a maximum of 2500000 energy evaluations.

Final-Value: -14.266


	FINAL GENETIC ALGORITHM DOCKED STATE
	_______________________________________________


Detailed state:  trans 21.564 -9.088 -6.665 quatxyzw 0.111082 -0.647081 0.325513 0.680432 center 0.460 0.128 -0.007 ntor 11 -4.4516 -145.5694 92.0421 56.0395 67.1269 42.1389 -110.1750 110.9110 -38.5178 -171.7132 -24.5302
State:	 21.564  -9.088  -6.665   0.152 -0.883  0.444 94.245     -4.45 -145.57   92.04   56.04   67.13   42.14 -110.18  110.91  -38.52 -171.71  -24.53

DOCKED: MODEL       28
DOCKED: USER    Run = 28
DOCKED: USER    DPF = ligand_dock.biased.dpf
DOCKED: USER  
DOCKED: USER    Estimated Free Energy of Binding    =   -8.17 kcal/mol  [=(1)+(2)+(3)-(4)]
DOCKED: USER    Estimated Inhibition Constant, Ki   =    1.02 uM (micromolar)  [Temperature = 298.15 K]
DOCKED: USER    
DOCKED: USER    (1) Final Intermolecular Energy     =  -11.46 kcal/mol
DOCKED: USER        vdW + Hbond + desolv Energy     =  -11.46 kcal/mol
DOCKED: USER        Electrostatic Energy            =   +0.00 kcal/mol
DOCKED: USER    (2) Final Total Internal Energy     =   -2.81 kcal/mol
DOCKED: USER    (3) Torsional Free Energy           =   +3.28 kcal/mol
DOCKED: USER    (4) Unbound System's Energy  [=(2)] =   -2.81 kcal/mol
DOCKED: USER    
DOCKED: USER    
DOCKED: USER    NEWDPF move ligand.pdbqt
DOCKED: USER    NEWDPF about 0.460000 0.128000 -0.007000
DOCKED: USER    NEWDPF tran0 21.563625 -9.088175 -6.664694
DOCKED: USER    NEWDPF quaternion0 0.111082 -0.647081 0.325513 0.680432
DOCKED: USER    NEWDPF axisangle0 0.151583 -0.883012 0.444198 94.245167
DOCKED: USER    NEWDPF quat0 0.151583 -0.883012 0.444198 94.245167
DOCKED: USER    NEWDPF dihe0 -4.45 -145.57 92.04 56.04 67.13 42.14 -110.18 110.91 -38.52 -171.71 -24.53 
DOCKED: USER  keepresnum = 1 
DOCKED: USER  
DOCKED: REMARK  Name = 
DOCKED: REMARK  11 active torsions:
DOCKED: REMARK  status: ('A' for Active; 'I' for Inactive)
DOCKED: REMARK    1  A    between atoms: C_2  and  C_5
DOCKED: REMARK    2  A    between atoms: N_3  and  O_4
DOCKED: REMARK    3  A    between atoms: C_6  and  C_7
DOCKED: REMARK    4  A    between atoms: C_10  and  C_11
DOCKED: REMARK    5  A    between atoms: C_11  and  N_12
DOCKED: REMARK    6  A    between atoms: N_12  and  C_13
DOCKED: REMARK    7  A    between atoms: N_12  and  C_16
DOCKED: REMARK    8  A    between atoms: C_13  and  C_14
DOCKED: REMARK    9  A    between atoms: C_14  and  O_15
DOCKED: REMARK   10  A    between atoms: C_16  and  C_17
DOCKED: REMARK   11  A    between atoms: C_17  and  C_18
DOCKED: REMARK                            x       y       z     vdW  Elec       q    Type
DOCKED: REMARK                         _______ _______ _______ _____ _____    ______ ____
DOCKED: USER                              x       y       z     vdW  Elec       q    Type
DOCKED: USER                           _______ _______ _______ _____ _____    ______ ____
DOCKED: ROOT
DOCKED: ATOM      1  N   UNL     1      21.229  -9.488  -5.198 -0.29 -0.00    +0.000 N 
DOCKED: ATOM      2  H   UNL     1      20.434  -9.523  -5.836 +0.01 -0.00    +0.000 HD
DOCKED: ENDROOT
DOCKED: BRANCH   1   3
DOCKED: ATOM      3  C   UNL     1      22.439  -9.166  -5.984 -0.27 -0.00    +0.000 C 
DOCKED: BRANCH   3   7
DOCKED: ATOM      4  C   UNL     1      23.075 -12.128  -9.074 -0.33 -0.00    +0.000 A 
DOCKED: ATOM      5  C   UNL     1      22.095 -11.133  -9.231 -0.23 -0.00    +0.000 A 
DOCKED: ATOM      6  C   UNL     1      21.881 -10.180  -8.232 -0.21 -0.00    +0.000 A 
DOCKED: ATOM      7  C   UNL     1      22.649 -10.200  -7.058 -0.29 -0.00    +0.000 A 
DOCKED: ATOM      8  C   UNL     1      23.642 -11.177  -6.905 -0.17 -0.00    +0.000 A 
DOCKED: ATOM      9  C   UNL     1      23.858 -12.132  -7.902 -0.44 -0.00    +0.000 A 
DOCKED: BRANCH   4  11
DOCKED: ATOM     10  C   UNL     1      23.057 -14.427 -10.035 -0.43 +0.00    +0.000 C 
DOCKED: ATOM     11  C   UNL     1      23.270 -13.110 -10.170 -0.38 -0.00    +0.000 C 
DOCKED: BRANCH  10  13
DOCKED: ATOM     12  O   UNL     1      22.325 -16.212 -11.385 -0.87 +0.00    +0.000 OA
DOCKED: ATOM     13  C   UNL     1      23.253 -15.399 -11.131 -0.42 +0.00    +0.000 C 
DOCKED: ATOM     14  N   UNL     1      24.445 -15.426 -11.928 -0.28 +0.00    +0.000 N 
DOCKED: ATOM     15  H   UNL     1      25.131 -14.732 -11.808 -0.01 -0.00    +0.000 HD
DOCKED: BRANCH  14  16
DOCKED: ATOM     16  O   UNL     1      24.628 -16.406 -12.845 -0.39 +0.00    +0.000 OA
DOCKED: ATOM     17  H   UNL     1      23.898 -17.043 -12.787 -0.01 +0.00    +0.000 HD
DOCKED: ENDBRANCH  14  16
DOCKED: ENDBRANCH  10  13
DOCKED: ENDBRANCH   4  11
DOCKED: ENDBRANCH   3   7
DOCKED: ENDBRANCH   1   3
DOCKED: BRANCH   1  18
DOCKED: ATOM     18  C   UNL     1      21.313 -10.843  -4.602 -0.53 -0.00    +0.000 C 
DOCKED: BRANCH  18  19
DOCKED: ATOM     19  C   UNL     1      20.354 -11.837  -5.276 -0.38 -0.00    +0.000 C 
DOCKED: BRANCH  19  20
DOCKED: ATOM     20  O   UNL     1      19.749 -11.270  -6.407 -0.41 -0.00    +0.000 OA
DOCKED: ATOM     21  H   UNL     1      19.502 -11.971  -7.029 -0.17 -0.00    +0.000 HD
DOCKED: ENDBRANCH  19  20
DOCKED: ENDBRANCH  18  19
DOCKED: ENDBRANCH   1  18
DOCKED: BRANCH   1  22
DOCKED: ATOM     22  C   UNL     1      20.890  -8.414  -4.233 -0.33 -0.00    +0.000 C 
DOCKED: BRANCH  22  23
DOCKED: ATOM     23  C   UNL     1      21.220  -8.756  -2.766 -0.48 -0.00    +0.000 C 
DOCKED: BRANCH  23  24
DOCKED: ATOM     24  C   UNL     1      20.184  -9.679  -2.202 -0.39 -0.00    +0.000 A 
DOCKED: ATOM     25  C   UNL     1      18.914  -9.919  -2.721 -0.18 -0.00    +0.000 A 
DOCKED: ATOM     26  N   UNL     1      18.222 -10.750  -1.907 -0.33 -0.00    +0.000 N 
DOCKED: ATOM     27  C   UNL     1      19.038 -11.024  -0.874 -0.42 -0.00    +0.000 A 
DOCKED: ATOM     28  C   UNL     1      20.242 -10.383  -1.015 -0.51 -0.00    +0.000 A 
DOCKED: ATOM     29  C   UNL     1      21.249 -10.487  -0.055 -0.62 -0.00    +0.000 A 
DOCKED: ATOM     30  C   UNL     1      20.996 -11.288   1.074 -0.54 -0.00    +0.000 A 
DOCKED: ATOM     31  C   UNL     1      19.758 -11.953   1.218 -0.63 -0.00    +0.000 A 
DOCKED: ATOM     32  C   UNL     1      18.759 -11.821   0.235 -0.50 -0.00    +0.000 A 
DOCKED: ATOM     33  H   UNL     1      17.307 -11.085  -2.045 -0.01 -0.00    +0.000 HD
DOCKED: ENDBRANCH  23  24
DOCKED: ENDBRANCH  22  23
DOCKED: ENDBRANCH   1  22
DOCKED: TORSDOF 11
DOCKED: TER
DOCKED: ENDMDL
________________________________________________________________________________


	BEGINNING GENETIC ALGORITHM DOCKING 29 of 100
Run: 29 Seed: 1553869208 1286812568 [ Run 29 of 100 GA/GALS ]
Beginning LAMARCKIAN GENETIC ALGORITHM (LGA), with a maximum of 2500000 energy evaluations.

Final-Value: -15.833


	FINAL GENETIC ALGORITHM DOCKED STATE
	_______________________________________________


Detailed state:  trans 15.933 -10.261 2.955 quatxyzw 0.369479 0.103068 0.649190 -0.656822 center 0.460 0.128 -0.007 ntor 11 14.4484 -99.3073 -159.1121 -159.0986 -78.3910 59.5166 -179.8877 118.4903 -170.8601 -121.9624 31.7628
State:	 15.933 -10.261   2.955   0.490  0.137  0.861 -97.884     14.45  -99.31 -159.11 -159.10  -78.39   59.52 -179.89  118.49 -170.86 -121.96   31.76

DOCKED: MODEL       29
DOCKED: USER    Run = 29
DOCKED: USER    DPF = ligand_dock.biased.dpf
DOCKED: USER  
DOCKED: USER    Estimated Free Energy of Binding    =   -8.75 kcal/mol  [=(1)+(2)+(3)-(4)]
DOCKED: USER    Estimated Inhibition Constant, Ki   =  382.42 nM (nanomolar)  [Temperature = 298.15 K]
DOCKED: USER    
DOCKED: USER    (1) Final Intermolecular Energy     =  -12.04 kcal/mol
DOCKED: USER        vdW + Hbond + desolv Energy     =  -12.04 kcal/mol
DOCKED: USER        Electrostatic Energy            =   +0.00 kcal/mol
DOCKED: USER    (2) Final Total Internal Energy     =   -3.80 kcal/mol
DOCKED: USER    (3) Torsional Free Energy           =   +3.28 kcal/mol
DOCKED: USER    (4) Unbound System's Energy  [=(2)] =   -3.80 kcal/mol
DOCKED: USER    
DOCKED: USER    
DOCKED: USER    NEWDPF move ligand.pdbqt
DOCKED: USER    NEWDPF about 0.460000 0.128000 -0.007000
DOCKED: USER    NEWDPF tran0 15.933126 -10.261126 2.954927
DOCKED: USER    NEWDPF quaternion0 0.369479 0.103068 0.649190 -0.656822
DOCKED: USER    NEWDPF axisangle0 0.489996 0.136686 0.860942 -97.884129
DOCKED: USER    NEWDPF quat0 0.489996 0.136686 0.860942 -97.884129
DOCKED: USER    NEWDPF dihe0 14.45 -99.31 -159.11 -159.10 -78.39 59.52 -179.89 118.49 -170.86 -121.96 31.76 
DOCKED: USER  keepresnum = 1 
DOCKED: USER  
DOCKED: REMARK  Name = 
DOCKED: REMARK  11 active torsions:
DOCKED: REMARK  status: ('A' for Active; 'I' for Inactive)
DOCKED: REMARK    1  A    between atoms: C_2  and  C_5
DOCKED: REMARK    2  A    between atoms: N_3  and  O_4
DOCKED: REMARK    3  A    between atoms: C_6  and  C_7
DOCKED: REMARK    4  A    between atoms: C_10  and  C_11
DOCKED: REMARK    5  A    between atoms: C_11  and  N_12
DOCKED: REMARK    6  A    between atoms: N_12  and  C_13
DOCKED: REMARK    7  A    between atoms: N_12  and  C_16
DOCKED: REMARK    8  A    between atoms: C_13  and  C_14
DOCKED: REMARK    9  A    between atoms: C_14  and  O_15
DOCKED: REMARK   10  A    between atoms: C_16  and  C_17
DOCKED: REMARK   11  A    between atoms: C_17  and  C_18
DOCKED: REMARK                            x       y       z     vdW  Elec       q    Type
DOCKED: REMARK                         _______ _______ _______ _____ _____    ______ ____
DOCKED: USER                              x       y       z     vdW  Elec       q    Type
DOCKED: USER                           _______ _______ _______ _____ _____    ______ ____
DOCKED: ROOT
DOCKED: ATOM      1  N   UNL     1      16.767 -10.982   1.856 -0.39 +0.00    +0.000 N 
DOCKED: ATOM      2  H   UNL     1      16.253 -10.165   1.527 -0.00 +0.00    +0.000 HD
DOCKED: ENDROOT
DOCKED: BRANCH   1   3
DOCKED: ATOM      3  C   UNL     1      16.588 -11.082   3.320 -0.43 +0.00    +0.000 C 
DOCKED: BRANCH   3   7
DOCKED: ATOM      4  C   UNL     1      14.230  -7.755   4.772 -0.35 +0.00    +0.000 A 
DOCKED: ATOM      5  C   UNL     1      13.863  -9.077   5.078 -0.41 +0.00    +0.000 A 
DOCKED: ATOM      6  C   UNL     1      14.617 -10.154   4.604 -0.36 +0.00    +0.000 A 
DOCKED: ATOM      7  C   UNL     1      15.758  -9.929   3.820 -0.39 +0.00    +0.000 A 
DOCKED: ATOM      8  C   UNL     1      16.141  -8.613   3.528 -0.24 +0.00    +0.000 A 
DOCKED: ATOM      9  C   UNL     1      15.389  -7.534   4.001 -0.34 +0.00    +0.000 A 
DOCKED: BRANCH   4  11
DOCKED: ATOM     10  C   UNL     1      12.469  -6.003   4.594 -0.23 +0.00    +0.000 C 
DOCKED: ATOM     11  C   UNL     1      13.402  -6.647   5.309 -0.38 +0.00    +0.000 C 
DOCKED: BRANCH  10  13
DOCKED: ATOM     12  O   UNL     1      12.118  -3.732   5.111 -0.42 +0.00    +0.000 OA
DOCKED: ATOM     13  C   UNL     1      11.647  -4.900   5.136 -0.29 +0.00    +0.000 C 
DOCKED: ATOM     14  N   UNL     1      10.328  -5.112   5.659 -0.32 +0.00    +0.000 N 
DOCKED: ATOM     15  H   UNL     1       9.910  -5.999   5.589 -0.00 +0.00    +0.000 HD
DOCKED: BRANCH  14  16
DOCKED: ATOM     16  O   UNL     1       9.658  -4.092   6.248 -1.09 +0.00    +0.000 OA
DOCKED: ATOM     17  H   UNL     1      10.097  -3.253   6.037 -0.05 +0.00    +0.000 HD
DOCKED: ENDBRANCH  14  16
DOCKED: ENDBRANCH  10  13
DOCKED: ENDBRANCH   4  11
DOCKED: ENDBRANCH   3   7
DOCKED: ENDBRANCH   1   3
DOCKED: BRANCH   1  18
DOCKED: ATOM     18  C   UNL     1      18.183 -10.724   1.500 -0.50 -0.00    +0.000 C 
DOCKED: BRANCH  18  19
DOCKED: ATOM     19  C   UNL     1      19.162 -11.448   2.438 -0.66 -0.00    +0.000 C 
DOCKED: BRANCH  19  20
DOCKED: ATOM     20  O   UNL     1      19.925 -12.396   1.741 -1.75 -0.00    +0.000 OA
DOCKED: ATOM     21  H   UNL     1      20.292 -13.040   2.366 -0.55 -0.00    +0.000 HD
DOCKED: ENDBRANCH  19  20
DOCKED: ENDBRANCH  18  19
DOCKED: ENDBRANCH   1  18
DOCKED: BRANCH   1  22
DOCKED: ATOM     22  C   UNL     1      16.154 -12.127   1.140 -0.46 +0.00    +0.000 C 
DOCKED: BRANCH  22  23
DOCKED: ATOM     23  C   UNL     1      15.094 -11.724   0.096 -0.43 +0.00    +0.000 C 
DOCKED: BRANCH  23  24
DOCKED: ATOM     24  C   UNL     1      13.867 -11.198   0.778 -0.33 +0.00    +0.000 A 
DOCKED: ATOM     25  C   UNL     1      12.787 -11.946   1.239 -0.34 +0.00    +0.000 A 
DOCKED: ATOM     26  N   UNL     1      11.825 -11.132   1.729 -0.34 +0.00    +0.000 N 
DOCKED: ATOM     27  C   UNL     1      12.281  -9.878   1.568 -0.18 +0.00    +0.000 A 
DOCKED: ATOM     28  C   UNL     1      13.522  -9.877   0.985 -0.19 +0.00    +0.000 A 
DOCKED: ATOM     29  C   UNL     1      14.196  -8.692   0.688 -0.21 +0.00    +0.000 A 
DOCKED: ATOM     30  C   UNL     1      13.563  -7.478   1.017 -0.17 +0.00    +0.000 A 
DOCKED: ATOM     31  C   UNL     1      12.287  -7.478   1.623 -0.08 +0.00    +0.000 A 
DOCKED: ATOM     32  C   UNL     1      11.630  -8.691   1.903 -0.10 +0.00    +0.000 A 
DOCKED: ATOM     33  H   UNL     1      10.965 -11.403   2.123 -0.03 +0.00    +0.000 HD
DOCKED: ENDBRANCH  23  24
DOCKED: ENDBRANCH  22  23
DOCKED: ENDBRANCH   1  22
DOCKED: TORSDOF 11
DOCKED: TER
DOCKED: ENDMDL
________________________________________________________________________________


	BEGINNING GENETIC ALGORITHM DOCKING 30 of 100
Run: 30 Seed: 1962262718 1262764447 [ Run 30 of 100 GA/GALS ]
Beginning LAMARCKIAN GENETIC ALGORITHM (LGA), with a maximum of 2500000 energy evaluations.

Final-Value: -17.050


	FINAL GENETIC ALGORITHM DOCKED STATE
	_______________________________________________


Detailed state:  trans 18.506 -10.795 -1.329 quatxyzw -0.066789 0.522379 -0.842357 0.114428 center 0.460 0.128 -0.007 ntor 11 -3.4397 180.0000 -14.9504 -127.7538 -21.5444 174.4781 180.0000 102.7450 161.7366 -157.4160 -20.5170
State:	 18.506 -10.795  -1.329  -0.067  0.526 -0.848 166.859     -3.44  180.00  -14.95 -127.75  -21.54  174.48  180.00  102.75  161.74 -157.42  -20.52

DOCKED: MODEL       30
DOCKED: USER    Run = 30
DOCKED: USER    DPF = ligand_dock.biased.dpf
DOCKED: USER  
DOCKED: USER    Estimated Free Energy of Binding    =  -11.15 kcal/mol  [=(1)+(2)+(3)-(4)]
DOCKED: USER    Estimated Inhibition Constant, Ki   =    6.76 nM (nanomolar)  [Temperature = 298.15 K]
DOCKED: USER    
DOCKED: USER    (1) Final Intermolecular Energy     =  -14.43 kcal/mol
DOCKED: USER        vdW + Hbond + desolv Energy     =  -14.43 kcal/mol
DOCKED: USER        Electrostatic Energy            =   +0.00 kcal/mol
DOCKED: USER    (2) Final Total Internal Energy     =   -2.62 kcal/mol
DOCKED: USER    (3) Torsional Free Energy           =   +3.28 kcal/mol
DOCKED: USER    (4) Unbound System's Energy  [=(2)] =   -2.62 kcal/mol
DOCKED: USER    
DOCKED: USER    
DOCKED: USER    NEWDPF move ligand.pdbqt
DOCKED: USER    NEWDPF about 0.460000 0.128000 -0.007000
DOCKED: USER    NEWDPF tran0 18.505655 -10.795333 -1.329362
DOCKED: USER    NEWDPF quaternion0 -0.066789 0.522379 -0.842357 0.114428
DOCKED: USER    NEWDPF axisangle0 -0.067231 0.525833 -0.847927 166.858703
DOCKED: USER    NEWDPF quat0 -0.067231 0.525833 -0.847927 166.858703
DOCKED: USER    NEWDPF dihe0 -3.44 180.00 -14.95 -127.75 -21.54 174.48 180.00 102.75 161.74 -157.42 -20.52 
DOCKED: USER  keepresnum = 1 
DOCKED: USER  
DOCKED: REMARK  Name = 
DOCKED: REMARK  11 active torsions:
DOCKED: REMARK  status: ('A' for Active; 'I' for Inactive)
DOCKED: REMARK    1  A    between atoms: C_2  and  C_5
DOCKED: REMARK    2  A    between atoms: N_3  and  O_4
DOCKED: REMARK    3  A    between atoms: C_6  and  C_7
DOCKED: REMARK    4  A    between atoms: C_10  and  C_11
DOCKED: REMARK    5  A    between atoms: C_11  and  N_12
DOCKED: REMARK    6  A    between atoms: N_12  and  C_13
DOCKED: REMARK    7  A    between atoms: N_12  and  C_16
DOCKED: REMARK    8  A    between atoms: C_13  and  C_14
DOCKED: REMARK    9  A    between atoms: C_14  and  O_15
DOCKED: REMARK   10  A    between atoms: C_16  and  C_17
DOCKED: REMARK   11  A    between atoms: C_17  and  C_18
DOCKED: REMARK                            x       y       z     vdW  Elec       q    Type
DOCKED: REMARK                         _______ _______ _______ _____ _____    ______ ____
DOCKED: USER                              x       y       z     vdW  Elec       q    Type
DOCKED: USER                           _______ _______ _______ _____ _____    ______ ____
DOCKED: ROOT
DOCKED: ATOM      1  N   UNL     1      19.735 -10.369  -0.474 -0.47 -0.00    +0.000 N 
DOCKED: ATOM      2  H   UNL     1      19.158  -9.593  -0.800 +0.00 -0.00    +0.000 HD
DOCKED: ENDROOT
DOCKED: BRANCH   1   3
DOCKED: ATOM      3  C   UNL     1      19.077 -11.632  -0.872 -0.40 -0.00    +0.000 C 
DOCKED: BRANCH   3   7
DOCKED: ATOM      4  C   UNL     1      14.999 -11.738   0.573 -0.39 +0.00    +0.000 A 
DOCKED: ATOM      5  C   UNL     1      15.290 -11.230  -0.704 -0.31 +0.00    +0.000 A 
DOCKED: ATOM      6  C   UNL     1      16.606 -11.186  -1.171 -0.24 -0.00    +0.000 A 
DOCKED: ATOM      7  C   UNL     1      17.657 -11.657  -0.371 -0.40 -0.00    +0.000 A 
DOCKED: ATOM      8  C   UNL     1      17.372 -12.185   0.896 -0.46 +0.00    +0.000 A 
DOCKED: ATOM      9  C   UNL     1      16.056 -12.230   1.366 -0.34 +0.00    +0.000 A 
DOCKED: BRANCH   4  11
DOCKED: ATOM     10  C   UNL     1      12.540 -11.631   0.187 -0.39 +0.00    +0.000 C 
DOCKED: ATOM     11  C   UNL     1      13.583 -11.772   1.017 -0.45 +0.00    +0.000 C 
DOCKED: BRANCH  10  13
DOCKED: ATOM     12  O   UNL     1      10.310 -10.878   0.099 -0.30 +0.00    +0.000 OA
DOCKED: ATOM     13  C   UNL     1      11.132 -11.667   0.637 -0.39 +0.00    +0.000 C 
DOCKED: ATOM     14  N   UNL     1      10.670 -12.584   1.638 -0.44 +0.00    +0.000 N 
DOCKED: ATOM     15  H   UNL     1      11.278 -13.273   1.990 -0.58 +0.00    +0.000 HD
DOCKED: BRANCH  14  16
DOCKED: ATOM     16  O   UNL     1       9.399 -12.504   2.099 -0.45 +0.00    +0.000 OA
DOCKED: ATOM     17  H   UNL     1       8.955 -11.743   1.692 -0.03 +0.00    +0.000 HD
DOCKED: ENDBRANCH  14  16
DOCKED: ENDBRANCH  10  13
DOCKED: ENDBRANCH   4  11
DOCKED: ENDBRANCH   3   7
DOCKED: ENDBRANCH   1   3
DOCKED: BRANCH   1  18
DOCKED: ATOM     18  C   UNL     1      19.786 -10.227   1.001 -0.55 -0.00    +0.000 C 
DOCKED: BRANCH  18  19
DOCKED: ATOM     19  C   UNL     1      20.712 -11.265   1.655 -0.69 -0.00    +0.000 C 
DOCKED: BRANCH  19  20
DOCKED: ATOM     20  O   UNL     1      19.978 -12.341   2.177 -1.66 -0.00    +0.000 OA
DOCKED: ATOM     21  H   UNL     1      20.251 -13.162   1.739 -0.62 -0.00    +0.000 HD
DOCKED: ENDBRANCH  19  20
DOCKED: ENDBRANCH  18  19
DOCKED: ENDBRANCH   1  18
DOCKED: BRANCH   1  22
DOCKED: ATOM     22  C   UNL     1      21.039 -10.182  -1.154 -0.66 -0.00    +0.000 C 
DOCKED: BRANCH  22  23
DOCKED: ATOM     23  C   UNL     1      20.964  -9.332  -2.439 -0.53 -0.00    +0.000 C 
DOCKED: BRANCH  23  24
DOCKED: ATOM     24  C   UNL     1      20.607 -10.194  -3.611 -0.43 -0.00    +0.000 A 
DOCKED: ATOM     25  C   UNL     1      21.491 -10.906  -4.419 -0.47 -0.00    +0.000 A 
DOCKED: ATOM     26  N   UNL     1      20.824 -11.508  -5.429 -0.48 -0.00    +0.000 N 
DOCKED: ATOM     27  C   UNL     1      19.532 -11.171  -5.276 -0.41 -0.00    +0.000 A 
DOCKED: ATOM     28  C   UNL     1      19.361 -10.364  -4.181 -0.33 -0.00    +0.000 A 
DOCKED: ATOM     29  C   UNL     1      18.110  -9.857  -3.827 -0.25 -0.00    +0.000 A 
DOCKED: ATOM     30  C   UNL     1      17.010 -10.210  -4.630 -0.22 -0.00    +0.000 A 
DOCKED: ATOM     31  C   UNL     1      17.183 -11.045  -5.756 -0.28 -0.00    +0.000 A 
DOCKED: ATOM     32  C   UNL     1      18.460 -11.534  -6.090 -0.28 -0.00    +0.000 A 
DOCKED: ATOM     33  H   UNL     1      21.207 -12.078  -6.134 -0.53 -0.00    +0.000 HD
DOCKED: ENDBRANCH  23  24
DOCKED: ENDBRANCH  22  23
DOCKED: ENDBRANCH   1  22
DOCKED: TORSDOF 11
DOCKED: TER
DOCKED: ENDMDL
________________________________________________________________________________


	BEGINNING GENETIC ALGORITHM DOCKING 31 of 100
Run: 31 Seed: 1755111607 564450475 [ Run 31 of 100 GA/GALS ]
Beginning LAMARCKIAN GENETIC ALGORITHM (LGA), with a maximum of 2500000 energy evaluations.

Final-Value: -15.793


	FINAL GENETIC ALGORITHM DOCKED STATE
	_______________________________________________


Detailed state:  trans 21.473 -9.090 -4.986 quatxyzw -0.338858 0.736270 0.176236 0.558590 center 0.460 0.128 -0.007 ntor 11 43.8879 90.7255 167.7942 40.9266 159.7834 -142.5415 -78.7225 -82.4034 -159.4037 -179.8343 10.1625
State:	 21.473  -9.090  -4.986  -0.409  0.888  0.212 112.083     43.89   90.73  167.79   40.93  159.78 -142.54  -78.72  -82.40 -159.40 -179.83   10.16

DOCKED: MODEL       31
DOCKED: USER    Run = 31
DOCKED: USER    DPF = ligand_dock.biased.dpf
DOCKED: USER  
DOCKED: USER    Estimated Free Energy of Binding    =  -10.24 kcal/mol  [=(1)+(2)+(3)-(4)]
DOCKED: USER    Estimated Inhibition Constant, Ki   =   31.30 nM (nanomolar)  [Temperature = 298.15 K]
DOCKED: USER    
DOCKED: USER    (1) Final Intermolecular Energy     =  -13.52 kcal/mol
DOCKED: USER        vdW + Hbond + desolv Energy     =  -13.52 kcal/mol
DOCKED: USER        Electrostatic Energy            =   +0.00 kcal/mol
DOCKED: USER    (2) Final Total Internal Energy     =   -2.27 kcal/mol
DOCKED: USER    (3) Torsional Free Energy           =   +3.28 kcal/mol
DOCKED: USER    (4) Unbound System's Energy  [=(2)] =   -2.27 kcal/mol
DOCKED: USER    
DOCKED: USER    
DOCKED: USER    NEWDPF move ligand.pdbqt
DOCKED: USER    NEWDPF about 0.460000 0.128000 -0.007000
DOCKED: USER    NEWDPF tran0 21.472783 -9.090314 -4.985731
DOCKED: USER    NEWDPF quaternion0 -0.338858 0.736270 0.176236 0.558590
DOCKED: USER    NEWDPF axisangle0 -0.408536 0.887667 0.212475 112.083280
DOCKED: USER    NEWDPF quat0 -0.408536 0.887667 0.212475 112.083280
DOCKED: USER    NEWDPF dihe0 43.89 90.73 167.79 40.93 159.78 -142.54 -78.72 -82.40 -159.40 -179.83 10.16 
DOCKED: USER  keepresnum = 1 
DOCKED: USER  
DOCKED: REMARK  Name = 
DOCKED: REMARK  11 active torsions:
DOCKED: REMARK  status: ('A' for Active; 'I' for Inactive)
DOCKED: REMARK    1  A    between atoms: C_2  and  C_5
DOCKED: REMARK    2  A    between atoms: N_3  and  O_4
DOCKED: REMARK    3  A    between atoms: C_6  and  C_7
DOCKED: REMARK    4  A    between atoms: C_10  and  C_11
DOCKED: REMARK    5  A    between atoms: C_11  and  N_12
DOCKED: REMARK    6  A    between atoms: N_12  and  C_13
DOCKED: REMARK    7  A    between atoms: N_12  and  C_16
DOCKED: REMARK    8  A    between atoms: C_13  and  C_14
DOCKED: REMARK    9  A    between atoms: C_14  and  O_15
DOCKED: REMARK   10  A    between atoms: C_16  and  C_17
DOCKED: REMARK   11  A    between atoms: C_17  and  C_18
DOCKED: REMARK                            x       y       z     vdW  Elec       q    Type
DOCKED: REMARK                         _______ _______ _______ _____ _____    ______ ____
DOCKED: USER                              x       y       z     vdW  Elec       q    Type
DOCKED: USER                           _______ _______ _______ _____ _____    ______ ____
DOCKED: ROOT
DOCKED: ATOM      1  N   UNL     1      21.994  -9.320  -6.435 -0.24 -0.00    +0.000 N 
DOCKED: ATOM      2  H   UNL     1      22.667  -9.550  -5.703 -0.02 -0.00    +0.000 HD
DOCKED: ENDROOT
DOCKED: BRANCH   1   3
DOCKED: ATOM      3  C   UNL     1      20.716  -8.954  -5.788 -0.22 -0.00    +0.000 C 
DOCKED: BRANCH   3   7
DOCKED: ATOM      4  C   UNL     1      20.449 -10.712  -1.842 -0.41 -0.00    +0.000 A 
DOCKED: ATOM      5  C   UNL     1      21.370  -9.684  -2.104 -0.50 -0.00    +0.000 A 
DOCKED: ATOM      6  C   UNL     1      21.465  -9.119  -3.379 -0.37 -0.00    +0.000 A 
DOCKED: ATOM      7  C   UNL     1      20.635  -9.569  -4.416 -0.33 -0.00    +0.000 A 
DOCKED: ATOM      8  C   UNL     1      19.699 -10.580  -4.156 -0.37 -0.00    +0.000 A 
DOCKED: ATOM      9  C   UNL     1      19.603 -11.147  -2.882 -0.33 -0.00    +0.000 A 
DOCKED: BRANCH   4  11
DOCKED: ATOM     10  C   UNL     1      20.111 -10.535   0.620 -0.65 -0.00    +0.000 C 
DOCKED: ATOM     11  C   UNL     1      20.381 -11.270  -0.468 -0.34 -0.00    +0.000 C 
DOCKED: BRANCH  10  13
DOCKED: ATOM     12  O   UNL     1      19.553 -12.247   2.137 -1.55 -0.00    +0.000 OA
DOCKED: ATOM     13  C   UNL     1      20.044 -11.097   1.985 -0.73 -0.00    +0.000 C 
DOCKED: ATOM     14  N   UNL     1      20.544 -10.392   3.130 -0.57 -0.00    +0.000 N 
DOCKED: ATOM     15  H   UNL     1      21.022  -9.541   3.011 -0.60 -0.00    +0.000 HD
DOCKED: BRANCH  14  16
DOCKED: ATOM     16  O   UNL     1      20.359 -10.897   4.374 -0.71 -0.00    +0.000 OA
DOCKED: ATOM     17  H   UNL     1      20.545 -11.849   4.367 -0.39 -0.00    +0.000 HD
DOCKED: ENDBRANCH  14  16
DOCKED: ENDBRANCH  10  13
DOCKED: ENDBRANCH   4  11
DOCKED: ENDBRANCH   3   7
DOCKED: ENDBRANCH   1   3
DOCKED: BRANCH   1  18
DOCKED: ATOM     18  C   UNL     1      21.858 -10.555  -7.244 -0.33 -0.00    +0.000 C 
DOCKED: BRANCH  18  19
DOCKED: ATOM     19  C   UNL     1      22.864 -11.640  -6.826 -0.51 -0.00    +0.000 C 
DOCKED: BRANCH  19  20
DOCKED: ATOM     20  O   UNL     1      22.392 -12.371  -5.726 -0.76 -0.00    +0.000 OA
DOCKED: ATOM     21  H   UNL     1      21.423 -12.396  -5.745 -0.59 -0.00    +0.000 HD
DOCKED: ENDBRANCH  19  20
DOCKED: ENDBRANCH  18  19
DOCKED: ENDBRANCH   1  18
DOCKED: BRANCH   1  22
DOCKED: ATOM     22  C   UNL     1      22.600  -8.176  -7.158 -0.17 -0.00    +0.000 C 
DOCKED: BRANCH  22  23
DOCKED: ATOM     23  C   UNL     1      24.106  -7.986  -6.889 -0.15 -0.00    +0.000 C 
DOCKED: BRANCH  23  24
DOCKED: ATOM     24  C   UNL     1      24.913  -8.780  -7.869 -0.20 -0.00    +0.000 A 
DOCKED: ATOM     25  C   UNL     1      24.452  -9.365  -9.046 -0.12 -0.00    +0.000 A 
DOCKED: ATOM     26  N   UNL     1      25.440 -10.072  -9.639 -0.15 -0.00    +0.000 N 
DOCKED: ATOM     27  C   UNL     1      26.515  -9.951  -8.842 -0.27 -0.00    +0.000 A 
DOCKED: ATOM     28  C   UNL     1      26.231  -9.176  -7.748 -0.29 -0.00    +0.000 A 
DOCKED: ATOM     29  C   UNL     1      27.180  -8.925  -6.756 -0.39 -0.00    +0.000 A 
DOCKED: ATOM     30  C   UNL     1      28.459  -9.491  -6.916 -0.47 -0.00    +0.000 A 
DOCKED: ATOM     31  C   UNL     1      28.754 -10.286  -8.045 -0.45 -0.00    +0.000 A 
DOCKED: ATOM     32  C   UNL     1      27.773 -10.525  -9.025 -0.34 -0.00    +0.000 A 
DOCKED: ATOM     33  H   UNL     1      25.383 -10.573 -10.485 +0.00 -0.00    +0.000 HD
DOCKED: ENDBRANCH  23  24
DOCKED: ENDBRANCH  22  23
DOCKED: ENDBRANCH   1  22
DOCKED: TORSDOF 11
DOCKED: TER
DOCKED: ENDMDL
________________________________________________________________________________


	BEGINNING GENETIC ALGORITHM DOCKING 32 of 100
Run: 32 Seed: 2112136830 631448212 [ Run 32 of 100 GA/GALS ]
Beginning LAMARCKIAN GENETIC ALGORITHM (LGA), with a maximum of 2500000 energy evaluations.

Final-Value: -14.327


	FINAL GENETIC ALGORITHM DOCKED STATE
	_______________________________________________


Detailed state:  trans 18.803 -9.187 -5.151 quatxyzw 0.277861 -0.586489 -0.071174 -0.757468 center 0.460 0.128 -0.007 ntor 11 11.7456 59.9277 3.1101 -135.5831 -173.9110 -101.4492 6.4465 -107.2144 -166.5919 134.5032 -9.0584
State:	 18.803  -9.187  -5.151   0.426 -0.898 -0.109 -81.517     11.75   59.93    3.11 -135.58 -173.91 -101.45    6.45 -107.21 -166.59  134.50   -9.06

DOCKED: MODEL       32
DOCKED: USER    Run = 32
DOCKED: USER    DPF = ligand_dock.biased.dpf
DOCKED: USER  
DOCKED: USER    Estimated Free Energy of Binding    =   -8.45 kcal/mol  [=(1)+(2)+(3)-(4)]
DOCKED: USER    Estimated Inhibition Constant, Ki   =  643.08 nM (nanomolar)  [Temperature = 298.15 K]
DOCKED: USER    
DOCKED: USER    (1) Final Intermolecular Energy     =  -11.73 kcal/mol
DOCKED: USER        vdW + Hbond + desolv Energy     =  -11.73 kcal/mol
DOCKED: USER        Electrostatic Energy            =   +0.00 kcal/mol
DOCKED: USER    (2) Final Total Internal Energy     =   -2.60 kcal/mol
DOCKED: USER    (3) Torsional Free Energy           =   +3.28 kcal/mol
DOCKED: USER    (4) Unbound System's Energy  [=(2)] =   -2.60 kcal/mol
DOCKED: USER    
DOCKED: USER    
DOCKED: USER    NEWDPF move ligand.pdbqt
DOCKED: USER    NEWDPF about 0.460000 0.128000 -0.007000
DOCKED: USER    NEWDPF tran0 18.803193 -9.187420 -5.151148
DOCKED: USER    NEWDPF quaternion0 0.277861 -0.586489 -0.071174 -0.757468
DOCKED: USER    NEWDPF axisangle0 0.425598 -0.898322 -0.109017 -81.517055
DOCKED: USER    NEWDPF quat0 0.425598 -0.898322 -0.109017 -81.517055
DOCKED: USER    NEWDPF dihe0 11.75 59.93 3.11 -135.58 -173.91 -101.45 6.45 -107.21 -166.59 134.50 -9.06 
DOCKED: USER  keepresnum = 1 
DOCKED: USER  
DOCKED: REMARK  Name = 
DOCKED: REMARK  11 active torsions:
DOCKED: REMARK  status: ('A' for Active; 'I' for Inactive)
DOCKED: REMARK    1  A    between atoms: C_2  and  C_5
DOCKED: REMARK    2  A    between atoms: N_3  and  O_4
DOCKED: REMARK    3  A    between atoms: C_6  and  C_7
DOCKED: REMARK    4  A    between atoms: C_10  and  C_11
DOCKED: REMARK    5  A    between atoms: C_11  and  N_12
DOCKED: REMARK    6  A    between atoms: N_12  and  C_13
DOCKED: REMARK    7  A    between atoms: N_12  and  C_16
DOCKED: REMARK    8  A    between atoms: C_13  and  C_14
DOCKED: REMARK    9  A    between atoms: C_14  and  O_15
DOCKED: REMARK   10  A    between atoms: C_16  and  C_17
DOCKED: REMARK   11  A    between atoms: C_17  and  C_18
DOCKED: REMARK                            x       y       z     vdW  Elec       q    Type
DOCKED: REMARK                         _______ _______ _______ _____ _____    ______ ____
DOCKED: USER                              x       y       z     vdW  Elec       q    Type
DOCKED: USER                           _______ _______ _______ _____ _____    ______ ____
DOCKED: ROOT
DOCKED: ATOM      1  N   UNL     1      18.801  -9.819  -6.574 -0.18 -0.00    +0.000 N 
DOCKED: ATOM      2  H   UNL     1      19.729  -9.702  -6.166 +0.01 -0.00    +0.000 HD
DOCKED: ENDROOT
DOCKED: BRANCH   1   3
DOCKED: ATOM      3  C   UNL     1      17.798  -9.426  -5.561 -0.19 -0.00    +0.000 C 
DOCKED: BRANCH   3   7
DOCKED: ATOM      4  C   UNL     1      18.883 -10.983  -1.671 -0.37 -0.00    +0.000 A 
DOCKED: ATOM      5  C   UNL     1      19.861 -10.793  -2.662 -0.40 -0.00    +0.000 A 
DOCKED: ATOM      6  C   UNL     1      19.514 -10.299  -3.922 -0.34 -0.00    +0.000 A 
DOCKED: ATOM      7  C   UNL     1      18.180  -9.977  -4.213 -0.25 -0.00    +0.000 A 
DOCKED: ATOM      8  C   UNL     1      17.202 -10.145  -3.223 -0.23 -0.00    +0.000 A 
DOCKED: ATOM      9  C   UNL     1      17.548 -10.640  -1.962 -0.19 -0.00    +0.000 A 
DOCKED: BRANCH   4  11
DOCKED: ATOM     10  C   UNL     1      19.501 -10.722   0.728 -0.60 -0.00    +0.000 C 
DOCKED: ATOM     11  C   UNL     1      19.307 -11.500  -0.346 -0.50 -0.00    +0.000 C 
DOCKED: BRANCH  10  13
DOCKED: ATOM     12  O   UNL     1      19.912 -12.491   2.228 -1.59 -0.00    +0.000 OA
DOCKED: ATOM     13  C   UNL     1      19.923 -11.245   2.045 -0.73 -0.00    +0.000 C 
DOCKED: ATOM     14  N   UNL     1      20.368 -10.385   3.104 -0.60 -0.00    +0.000 N 
DOCKED: ATOM     15  H   UNL     1      20.479  -9.422   2.940 -0.57 -0.00    +0.000 HD
DOCKED: BRANCH  14  16
DOCKED: ATOM     16  O   UNL     1      20.635 -10.898   4.329 -0.75 -0.00    +0.000 OA
DOCKED: ATOM     17  H   UNL     1      20.657 -11.866   4.276 -0.47 -0.00    +0.000 HD
DOCKED: ENDBRANCH  14  16
DOCKED: ENDBRANCH  10  13
DOCKED: ENDBRANCH   4  11
DOCKED: ENDBRANCH   3   7
DOCKED: ENDBRANCH   1   3
DOCKED: BRANCH   1  18
DOCKED: ATOM     18  C   UNL     1      18.698 -11.260  -6.909 -0.34 -0.00    +0.000 C 
DOCKED: BRANCH  18  19
DOCKED: ATOM     19  C   UNL     1      17.313 -11.632  -7.463 -0.37 -0.00    +0.000 C 
DOCKED: BRANCH  19  20
DOCKED: ATOM     20  O   UNL     1      16.386 -11.817  -6.427 -0.38 -0.00    +0.000 OA
DOCKED: ATOM     21  H   UNL     1      16.824 -11.683  -5.573 -0.03 -0.00    +0.000 HD
DOCKED: ENDBRANCH  19  20
DOCKED: ENDBRANCH  18  19
DOCKED: ENDBRANCH   1  18
DOCKED: BRANCH   1  22
DOCKED: ATOM     22  C   UNL     1      18.789  -8.914  -7.749 -0.11 -0.00    +0.000 C 
DOCKED: BRANCH  22  23
DOCKED: ATOM     23  C   UNL     1      20.166  -8.313  -8.096 -0.08 -0.00    +0.000 C 
DOCKED: BRANCH  23  24
DOCKED: ATOM     24  C   UNL     1      21.116  -9.396  -8.508 -0.13 -0.00    +0.000 A 
DOCKED: ATOM     25  C   UNL     1      21.454  -9.754  -9.811 -0.11 -0.00    +0.000 A 
DOCKED: ATOM     26  N   UNL     1      22.279 -10.826  -9.806 -0.18 -0.00    +0.000 N 
DOCKED: ATOM     27  C   UNL     1      22.452 -11.156  -8.515 -0.27 -0.00    +0.000 A 
DOCKED: ATOM     28  C   UNL     1      21.753 -10.311  -7.693 -0.24 -0.00    +0.000 A 
DOCKED: ATOM     29  C   UNL     1      21.751 -10.466  -6.306 -0.34 -0.00    +0.000 A 
DOCKED: ATOM     30  C   UNL     1      22.505 -11.523  -5.764 -0.35 -0.00    +0.000 A 
DOCKED: ATOM     31  C   UNL     1      23.230 -12.392  -6.609 -0.44 -0.00    +0.000 A 
DOCKED: ATOM     32  C   UNL     1      23.206 -12.213  -8.006 -0.40 -0.00    +0.000 A 
DOCKED: ATOM     33  H   UNL     1      22.672 -11.273 -10.589 +0.00 -0.00    +0.000 HD
DOCKED: ENDBRANCH  23  24
DOCKED: ENDBRANCH  22  23
DOCKED: ENDBRANCH   1  22
DOCKED: TORSDOF 11
DOCKED: TER
DOCKED: ENDMDL
________________________________________________________________________________


	BEGINNING GENETIC ALGORITHM DOCKING 33 of 100
Run: 33 Seed: 524311465 1198032563 [ Run 33 of 100 GA/GALS ]
Beginning LAMARCKIAN GENETIC ALGORITHM (LGA), with a maximum of 2500000 energy evaluations.

Final-Value: -16.010


	FINAL GENETIC ALGORITHM DOCKED STATE
	_______________________________________________


Detailed state:  trans 21.516 -9.075 -5.086 quatxyzw 0.135157 0.617902 0.566796 0.527894 center 0.460 0.128 -0.007 ntor 11 17.9762 -23.1041 135.9386 18.8555 136.2815 -133.9066 -96.1358 -48.5376 109.0622 -72.2594 14.4918
State:	 21.516  -9.075  -5.086   0.159  0.728  0.667 116.273     17.98  -23.10  135.94   18.86  136.28 -133.91  -96.14  -48.54  109.06  -72.26   14.49

DOCKED: MODEL       33
DOCKED: USER    Run = 33
DOCKED: USER    DPF = ligand_dock.biased.dpf
DOCKED: USER  
DOCKED: USER    Estimated Free Energy of Binding    =  -10.15 kcal/mol  [=(1)+(2)+(3)-(4)]
DOCKED: USER    Estimated Inhibition Constant, Ki   =   36.25 nM (nanomolar)  [Temperature = 298.15 K]
DOCKED: USER    
DOCKED: USER    (1) Final Intermolecular Energy     =  -13.43 kcal/mol
DOCKED: USER        vdW + Hbond + desolv Energy     =  -13.43 kcal/mol
DOCKED: USER        Electrostatic Energy            =   +0.00 kcal/mol
DOCKED: USER    (2) Final Total Internal Energy     =   -2.58 kcal/mol
DOCKED: USER    (3) Torsional Free Energy           =   +3.28 kcal/mol
DOCKED: USER    (4) Unbound System's Energy  [=(2)] =   -2.58 kcal/mol
DOCKED: USER    
DOCKED: USER    
DOCKED: USER    NEWDPF move ligand.pdbqt
DOCKED: USER    NEWDPF about 0.460000 0.128000 -0.007000
DOCKED: USER    NEWDPF tran0 21.515967 -9.075399 -5.086403
DOCKED: USER    NEWDPF quaternion0 0.135157 0.617902 0.566796 0.527894
DOCKED: USER    NEWDPF axisangle0 0.159137 0.727534 0.667360 116.273430
DOCKED: USER    NEWDPF quat0 0.159137 0.727534 0.667360 116.273430
DOCKED: USER    NEWDPF dihe0 17.98 -23.10 135.94 18.86 136.28 -133.91 -96.14 -48.54 109.06 -72.26 14.49 
DOCKED: USER  keepresnum = 1 
DOCKED: USER  
DOCKED: REMARK  Name = 
DOCKED: REMARK  11 active torsions:
DOCKED: REMARK  status: ('A' for Active; 'I' for Inactive)
DOCKED: REMARK    1  A    between atoms: C_2  and  C_5
DOCKED: REMARK    2  A    between atoms: N_3  and  O_4
DOCKED: REMARK    3  A    between atoms: C_6  and  C_7
DOCKED: REMARK    4  A    between atoms: C_10  and  C_11
DOCKED: REMARK    5  A    between atoms: C_11  and  N_12
DOCKED: REMARK    6  A    between atoms: N_12  and  C_13
DOCKED: REMARK    7  A    between atoms: N_12  and  C_16
DOCKED: REMARK    8  A    between atoms: C_13  and  C_14
DOCKED: REMARK    9  A    between atoms: C_14  and  O_15
DOCKED: REMARK   10  A    between atoms: C_16  and  C_17
DOCKED: REMARK   11  A    between atoms: C_17  and  C_18
DOCKED: REMARK                            x       y       z     vdW  Elec       q    Type
DOCKED: REMARK                         _______ _______ _______ _____ _____    ______ ____
DOCKED: USER                              x       y       z     vdW  Elec       q    Type
DOCKED: USER                           _______ _______ _______ _____ _____    ______ ____
DOCKED: ROOT
DOCKED: ATOM      1  N   UNL     1      20.947  -9.079  -6.536 -0.16 -0.00    +0.000 N 
DOCKED: ATOM      2  H   UNL     1      21.208 -10.000  -6.183 +0.00 -0.00    +0.000 HD
DOCKED: ENDROOT
DOCKED: BRANCH   1   3
DOCKED: ATOM      3  C   UNL     1      21.122  -8.099  -5.442 -0.22 -0.00    +0.000 C 
DOCKED: BRANCH   3   7
DOCKED: ATOM      4  C   UNL     1      21.182 -10.143  -1.628 -0.56 -0.00    +0.000 A 
DOCKED: ATOM      5  C   UNL     1      21.386  -8.755  -1.696 -0.47 -0.00    +0.000 A 
DOCKED: ATOM      6  C   UNL     1      21.376  -8.092  -2.927 -0.39 -0.00    +0.000 A 
DOCKED: ATOM      7  C   UNL     1      21.154  -8.806  -4.113 -0.33 -0.00    +0.000 A 
DOCKED: ATOM      8  C   UNL     1      20.928 -10.188  -4.050 -0.42 -0.00    +0.000 A 
DOCKED: ATOM      9  C   UNL     1      20.938 -10.853  -2.821 -0.37 -0.00    +0.000 A 
DOCKED: BRANCH   4  11
DOCKED: ATOM     10  C   UNL     1      20.258 -10.585   0.643 -0.66 -0.00    +0.000 C 
DOCKED: ATOM     11  C   UNL     1      21.191 -10.797  -0.296 -0.64 -0.00    +0.000 C 
DOCKED: BRANCH  10  13
DOCKED: ATOM     12  O   UNL     1      20.217 -12.497   2.017 -1.58 -0.00    +0.000 OA
DOCKED: ATOM     13  C   UNL     1      20.273 -11.240   1.968 -0.76 -0.00    +0.000 C 
DOCKED: ATOM     14  N   UNL     1      20.379 -10.496   3.190 -0.67 -0.00    +0.000 N 
DOCKED: ATOM     15  H   UNL     1      20.528  -9.524   3.161 -0.58 -0.00    +0.000 HD
DOCKED: BRANCH  14  16
DOCKED: ATOM     16  O   UNL     1      20.275 -11.129   4.383 -0.73 -0.00    +0.000 OA
DOCKED: ATOM     17  H   UNL     1      20.416 -12.080   4.257 -0.35 -0.00    +0.000 HD
DOCKED: ENDBRANCH  14  16
DOCKED: ENDBRANCH  10  13
DOCKED: ENDBRANCH   4  11
DOCKED: ENDBRANCH   3   7
DOCKED: ENDBRANCH   1   3
DOCKED: BRANCH   1  18
DOCKED: ATOM     18  C   UNL     1      19.524  -9.200  -6.933 -0.16 -0.00    +0.000 C 
DOCKED: BRANCH  18  19
DOCKED: ATOM     19  C   UNL     1      19.160 -10.628  -7.370 -0.30 -0.00    +0.000 C 
DOCKED: BRANCH  19  20
DOCKED: ATOM     20  O   UNL     1      19.556 -11.569  -6.408 -0.35 -0.00    +0.000 OA
DOCKED: ATOM     21  H   UNL     1      20.489 -11.795  -6.541 -0.38 -0.00    +0.000 HD
DOCKED: ENDBRANCH  19  20
DOCKED: ENDBRANCH  18  19
DOCKED: ENDBRANCH   1  18
DOCKED: BRANCH   1  22
DOCKED: ATOM     22  C   UNL     1      21.880  -8.830  -7.661 -0.15 -0.00    +0.000 C 
DOCKED: BRANCH  22  23
DOCKED: ATOM     23  C   UNL     1      23.314  -8.471  -7.225 -0.20 -0.00    +0.000 C 
DOCKED: BRANCH  23  24
DOCKED: ATOM     24  C   UNL     1      24.295  -9.431  -7.827 -0.23 -0.00    +0.000 A 
DOCKED: ATOM     25  C   UNL     1      23.996 -10.543  -8.610 -0.24 -0.00    +0.000 A 
DOCKED: ATOM     26  N   UNL     1      25.126 -11.223  -8.912 -0.33 -0.00    +0.000 N 
DOCKED: ATOM     27  C   UNL     1      26.131 -10.560  -8.315 -0.36 -0.00    +0.000 A 
DOCKED: ATOM     28  C   UNL     1      25.663  -9.464  -7.638 -0.30 -0.00    +0.000 A 
DOCKED: ATOM     29  C   UNL     1      26.512  -8.628  -6.912 -0.31 -0.00    +0.000 A 
DOCKED: ATOM     30  C   UNL     1      27.885  -8.939  -6.902 -0.41 -0.00    +0.000 A 
DOCKED: ATOM     31  C   UNL     1      28.369 -10.065  -7.603 -0.46 -0.00    +0.000 A 
DOCKED: ATOM     32  C   UNL     1      27.485 -10.892  -8.321 -0.32 -0.00    +0.000 A 
DOCKED: ATOM     33  H   UNL     1      25.196 -12.038  -9.459 -0.03 -0.00    +0.000 HD
DOCKED: ENDBRANCH  23  24
DOCKED: ENDBRANCH  22  23
DOCKED: ENDBRANCH   1  22
DOCKED: TORSDOF 11
DOCKED: TER
DOCKED: ENDMDL
________________________________________________________________________________


	BEGINNING GENETIC ALGORITHM DOCKING 34 of 100
Run: 34 Seed: 1221470206 1032361857 [ Run 34 of 100 GA/GALS ]
Beginning LAMARCKIAN GENETIC ALGORITHM (LGA), with a maximum of 2500000 energy evaluations.

Final-Value: -16.572


	FINAL GENETIC ALGORITHM DOCKED STATE
	_______________________________________________


Detailed state:  trans 19.997 -9.020 -5.068 quatxyzw -0.187417 0.727544 0.515824 0.411681 center 0.460 0.128 -0.007 ntor 11 28.4505 -94.1435 103.8405 62.3137 -126.7493 178.8944 -172.2948 -112.8301 175.3238 -167.3407 36.7056
State:	 19.997  -9.020  -5.068  -0.206  0.798  0.566 131.379     28.45  -94.14  103.84   62.31 -126.75  178.89 -172.29 -112.83  175.32 -167.34   36.71

DOCKED: MODEL       34
DOCKED: USER    Run = 34
DOCKED: USER    DPF = ligand_dock.biased.dpf
DOCKED: USER  
DOCKED: USER    Estimated Free Energy of Binding    =  -10.03 kcal/mol  [=(1)+(2)+(3)-(4)]
DOCKED: USER    Estimated Inhibition Constant, Ki   =   44.70 nM (nanomolar)  [Temperature = 298.15 K]
DOCKED: USER    
DOCKED: USER    (1) Final Intermolecular Energy     =  -13.31 kcal/mol
DOCKED: USER        vdW + Hbond + desolv Energy     =  -13.31 kcal/mol
DOCKED: USER        Electrostatic Energy            =   +0.00 kcal/mol
DOCKED: USER    (2) Final Total Internal Energy     =   -3.26 kcal/mol
DOCKED: USER    (3) Torsional Free Energy           =   +3.28 kcal/mol
DOCKED: USER    (4) Unbound System's Energy  [=(2)] =   -3.26 kcal/mol
DOCKED: USER    
DOCKED: USER    
DOCKED: USER    NEWDPF move ligand.pdbqt
DOCKED: USER    NEWDPF about 0.460000 0.128000 -0.007000
DOCKED: USER    NEWDPF tran0 19.996600 -9.019687 -5.067585
DOCKED: USER    NEWDPF quaternion0 -0.187417 0.727544 0.515824 0.411681
DOCKED: USER    NEWDPF axisangle0 -0.205653 0.798333 0.566013 131.379107
DOCKED: USER    NEWDPF quat0 -0.205653 0.798333 0.566013 131.379107
DOCKED: USER    NEWDPF dihe0 28.45 -94.14 103.84 62.31 -126.75 178.89 -172.29 -112.83 175.32 -167.34 36.71 
DOCKED: USER  keepresnum = 1 
DOCKED: USER  
DOCKED: REMARK  Name = 
DOCKED: REMARK  11 active torsions:
DOCKED: REMARK  status: ('A' for Active; 'I' for Inactive)
DOCKED: REMARK    1  A    between atoms: C_2  and  C_5
DOCKED: REMARK    2  A    between atoms: N_3  and  O_4
DOCKED: REMARK    3  A    between atoms: C_6  and  C_7
DOCKED: REMARK    4  A    between atoms: C_10  and  C_11
DOCKED: REMARK    5  A    between atoms: C_11  and  N_12
DOCKED: REMARK    6  A    between atoms: N_12  and  C_13
DOCKED: REMARK    7  A    between atoms: N_12  and  C_16
DOCKED: REMARK    8  A    between atoms: C_13  and  C_14
DOCKED: REMARK    9  A    between atoms: C_14  and  O_15
DOCKED: REMARK   10  A    between atoms: C_16  and  C_17
DOCKED: REMARK   11  A    between atoms: C_17  and  C_18
DOCKED: REMARK                            x       y       z     vdW  Elec       q    Type
DOCKED: REMARK                         _______ _______ _______ _____ _____    ______ ____
DOCKED: USER                              x       y       z     vdW  Elec       q    Type
DOCKED: USER                           _______ _______ _______ _____ _____    ______ ____
DOCKED: ROOT
DOCKED: ATOM      1  N   UNL     1      20.367  -8.868  -6.572 -0.13 -0.00    +0.000 N 
DOCKED: ATOM      2  H   UNL     1      20.704  -9.728  -6.139 +0.00 -0.00    +0.000 HD
DOCKED: ENDROOT
DOCKED: BRANCH   1   3
DOCKED: ATOM      3  C   UNL     1      19.540  -8.146  -5.581 -0.15 -0.00    +0.000 C 
DOCKED: BRANCH   3   7
DOCKED: ATOM      4  C   UNL     1      19.516 -10.253  -1.801 -0.36 -0.00    +0.000 A 
DOCKED: ATOM      5  C   UNL     1      20.588  -9.411  -2.141 -0.45 -0.00    +0.000 A 
DOCKED: ATOM      6  C   UNL     1      20.604  -8.736  -3.365 -0.36 -0.00    +0.000 A 
DOCKED: ATOM      7  C   UNL     1      19.542  -8.884  -4.269 -0.22 -0.00    +0.000 A 
DOCKED: ATOM      8  C   UNL     1      18.459  -9.706  -3.927 -0.24 -0.00    +0.000 A 
DOCKED: ATOM      9  C   UNL     1      18.442 -10.384  -2.704 -0.27 -0.00    +0.000 A 
DOCKED: BRANCH   4  11
DOCKED: ATOM     10  C   UNL     1      20.297 -10.537   0.548 -0.66 -0.00    +0.000 C 
DOCKED: ATOM     11  C   UNL     1      19.543 -10.939  -0.485 -0.55 -0.00    +0.000 C 
DOCKED: BRANCH  10  13
DOCKED: ATOM     12  O   UNL     1      20.226 -12.481   1.875 -1.62 -0.00    +0.000 OA
DOCKED: ATOM     13  C   UNL     1      20.319 -11.225   1.856 -0.75 -0.00    +0.000 C 
DOCKED: ATOM     14  N   UNL     1      20.468 -10.514   3.093 -0.66 -0.00    +0.000 N 
DOCKED: ATOM     15  H   UNL     1      20.645  -9.546   3.084 -0.58 -0.00    +0.000 HD
DOCKED: BRANCH  14  16
DOCKED: ATOM     16  O   UNL     1      20.369 -11.174   4.272 -0.73 -0.00    +0.000 OA
DOCKED: ATOM     17  H   UNL     1      20.641 -12.096   4.150 -0.51 -0.00    +0.000 HD
DOCKED: ENDBRANCH  14  16
DOCKED: ENDBRANCH  10  13
DOCKED: ENDBRANCH   4  11
DOCKED: ENDBRANCH   3   7
DOCKED: ENDBRANCH   1   3
DOCKED: BRANCH   1  18
DOCKED: ATOM     18  C   UNL     1      19.559  -9.306  -7.736 -0.16 -0.00    +0.000 C 
DOCKED: BRANCH  18  19
DOCKED: ATOM     19  C   UNL     1      19.220 -10.804  -7.680 -0.27 -0.00    +0.000 C 
DOCKED: BRANCH  19  20
DOCKED: ATOM     20  O   UNL     1      19.358 -11.306  -6.378 -0.42 -0.00    +0.000 OA
DOCKED: ATOM     21  H   UNL     1      19.532 -12.259  -6.416 -0.35 -0.00    +0.000 HD
DOCKED: ENDBRANCH  19  20
DOCKED: ENDBRANCH  18  19
DOCKED: ENDBRANCH   1  18
DOCKED: BRANCH   1  22
DOCKED: ATOM     22  C   UNL     1      21.595  -8.117  -6.925 -0.14 -0.00    +0.000 C 
DOCKED: BRANCH  22  23
DOCKED: ATOM     23  C   UNL     1      22.894  -8.730  -6.363 -0.21 -0.00    +0.000 C 
DOCKED: BRANCH  23  24
DOCKED: ATOM     24  C   UNL     1      23.063 -10.133  -6.861 -0.26 -0.00    +0.000 A 
DOCKED: ATOM     25  C   UNL     1      22.429 -11.271  -6.369 -0.42 -0.00    +0.000 A 
DOCKED: ATOM     26  N   UNL     1      22.882 -12.375  -7.006 -0.48 -0.00    +0.000 N 
DOCKED: ATOM     27  C   UNL     1      23.806 -11.946  -7.884 -0.45 -0.00    +0.000 A 
DOCKED: ATOM     28  C   UNL     1      23.949 -10.584  -7.820 -0.31 -0.00    +0.000 A 
DOCKED: ATOM     29  C   UNL     1      24.870  -9.901  -8.615 -0.21 -0.00    +0.000 A 
DOCKED: ATOM     30  C   UNL     1      25.654 -10.659  -9.506 -0.23 -0.00    +0.000 A 
DOCKED: ATOM     31  C   UNL     1      25.504 -12.062  -9.576 -0.31 -0.00    +0.000 A 
DOCKED: ATOM     32  C   UNL     1      24.569 -12.721  -8.755 -0.30 -0.00    +0.000 A 
DOCKED: ATOM     33  H   UNL     1      22.593 -13.304  -6.857 -0.52 -0.00    +0.000 HD
DOCKED: ENDBRANCH  23  24
DOCKED: ENDBRANCH  22  23
DOCKED: ENDBRANCH   1  22
DOCKED: TORSDOF 11
DOCKED: TER
DOCKED: ENDMDL
________________________________________________________________________________


	BEGINNING GENETIC ALGORITHM DOCKING 35 of 100
Run: 35 Seed: 899219485 1706445905 [ Run 35 of 100 GA/GALS ]
Beginning LAMARCKIAN GENETIC ALGORITHM (LGA), with a maximum of 2500000 energy evaluations.

Final-Value: -17.144


	FINAL GENETIC ALGORITHM DOCKED STATE
	_______________________________________________


Detailed state:  trans 14.128 -10.415 -2.269 quatxyzw 0.960840 0.155124 -0.001056 -0.229611 center 0.460 0.128 -0.007 ntor 11 7.7884 -179.3495 45.3798 82.8166 -129.2925 180.0000 -174.1463 106.7366 -169.8871 41.9963 46.1044
State:	 14.128 -10.415  -2.269   0.987  0.159 -0.001 -153.452      7.79 -179.35   45.38   82.82 -129.29  180.00 -174.15  106.74 -169.89   42.00   46.10

DOCKED: MODEL       35
DOCKED: USER    Run = 35
DOCKED: USER    DPF = ligand_dock.biased.dpf
DOCKED: USER  
DOCKED: USER    Estimated Free Energy of Binding    =   -9.11 kcal/mol  [=(1)+(2)+(3)-(4)]
DOCKED: USER    Estimated Inhibition Constant, Ki   =  210.01 nM (nanomolar)  [Temperature = 298.15 K]
DOCKED: USER    
DOCKED: USER    (1) Final Intermolecular Energy     =  -12.39 kcal/mol
DOCKED: USER        vdW + Hbond + desolv Energy     =  -12.39 kcal/mol
DOCKED: USER        Electrostatic Energy            =   +0.00 kcal/mol
DOCKED: USER    (2) Final Total Internal Energy     =   -4.75 kcal/mol
DOCKED: USER    (3) Torsional Free Energy           =   +3.28 kcal/mol
DOCKED: USER    (4) Unbound System's Energy  [=(2)] =   -4.75 kcal/mol
DOCKED: USER    
DOCKED: USER    
DOCKED: USER    NEWDPF move ligand.pdbqt
DOCKED: USER    NEWDPF about 0.460000 0.128000 -0.007000
DOCKED: USER    NEWDPF tran0 14.128114 -10.414622 -2.269382
DOCKED: USER    NEWDPF quaternion0 0.960840 0.155124 -0.001056 -0.229611
DOCKED: USER    NEWDPF axisangle0 0.987216 0.159382 -0.001085 -153.451632
DOCKED: USER    NEWDPF quat0 0.987216 0.159382 -0.001085 -153.451632
DOCKED: USER    NEWDPF dihe0 7.79 -179.35 45.38 82.82 -129.29 180.00 -174.15 106.74 -169.89 42.00 46.10 
DOCKED: USER  keepresnum = 1 
DOCKED: USER  
DOCKED: REMARK  Name = 
DOCKED: REMARK  11 active torsions:
DOCKED: REMARK  status: ('A' for Active; 'I' for Inactive)
DOCKED: REMARK    1  A    between atoms: C_2  and  C_5
DOCKED: REMARK    2  A    between atoms: N_3  and  O_4
DOCKED: REMARK    3  A    between atoms: C_6  and  C_7
DOCKED: REMARK    4  A    between atoms: C_10  and  C_11
DOCKED: REMARK    5  A    between atoms: C_11  and  N_12
DOCKED: REMARK    6  A    between atoms: N_12  and  C_13
DOCKED: REMARK    7  A    between atoms: N_12  and  C_16
DOCKED: REMARK    8  A    between atoms: C_13  and  C_14
DOCKED: REMARK    9  A    between atoms: C_14  and  O_15
DOCKED: REMARK   10  A    between atoms: C_16  and  C_17
DOCKED: REMARK   11  A    between atoms: C_17  and  C_18
DOCKED: REMARK                            x       y       z     vdW  Elec       q    Type
DOCKED: REMARK                         _______ _______ _______ _____ _____    ______ ____
DOCKED: USER                              x       y       z     vdW  Elec       q    Type
DOCKED: USER                           _______ _______ _______ _____ _____    ______ ____
DOCKED: ROOT
DOCKED: ATOM      1  N   UNL     1      12.866  -9.635  -2.742 -0.19 -0.00    +0.000 N 
DOCKED: ATOM      2  H   UNL     1      13.386  -9.180  -1.992 +0.00 -0.00    +0.000 HD
DOCKED: ENDROOT
DOCKED: BRANCH   1   3
DOCKED: ATOM      3  C   UNL     1      13.616 -10.838  -3.161 -0.25 -0.00    +0.000 C 
DOCKED: BRANCH   3   7
DOCKED: ATOM      4  C   UNL     1      16.710 -11.722  -0.266 -0.38 +0.00    +0.000 A 
DOCKED: ATOM      5  C   UNL     1      16.805 -10.586  -1.086 -0.26 -0.00    +0.000 A 
DOCKED: ATOM      6  C   UNL     1      15.812 -10.301  -2.028 -0.25 -0.00    +0.000 A 
DOCKED: ATOM      7  C   UNL     1      14.701 -11.146  -2.162 -0.30 -0.00    +0.000 A 
DOCKED: ATOM      8  C   UNL     1      14.590 -12.270  -1.332 -0.36 +0.00    +0.000 A 
DOCKED: ATOM      9  C   UNL     1      15.581 -12.557  -0.390 -0.46 +0.00    +0.000 A 
DOCKED: BRANCH   4  11
DOCKED: ATOM     10  C   UNL     1      18.614 -11.022   1.180 -0.55 -0.00    +0.000 C 
DOCKED: ATOM     11  C   UNL     1      17.785 -11.973   0.726 -0.54 -0.00    +0.000 C 
DOCKED: BRANCH  10  13
DOCKED: ATOM     12  O   UNL     1      20.269 -12.393   2.143 -1.63 -0.00    +0.000 OA
DOCKED: ATOM     13  C   UNL     1      19.683 -11.279   2.168 -0.72 -0.00    +0.000 C 
DOCKED: ATOM     14  N   UNL     1      20.091 -10.295   3.129 -0.60 -0.00    +0.000 N 
DOCKED: ATOM     15  H   UNL     1      19.714  -9.387   3.092 -0.58 -0.00    +0.000 HD
DOCKED: BRANCH  14  16
DOCKED: ATOM     16  O   UNL     1      20.994 -10.613   4.087 -0.64 -0.00    +0.000 OA
DOCKED: ATOM     17  H   UNL     1      21.354 -11.497   3.911 -0.52 -0.00    +0.000 HD
DOCKED: ENDBRANCH  14  16
DOCKED: ENDBRANCH  10  13
DOCKED: ENDBRANCH   4  11
DOCKED: ENDBRANCH   3   7
DOCKED: ENDBRANCH   1   3
DOCKED: BRANCH   1  18
DOCKED: ATOM     18  C   UNL     1      12.794  -8.634  -3.833 -0.12 -0.00    +0.000 C 
DOCKED: BRANCH  18  19
DOCKED: ATOM     19  C   UNL     1      14.064  -7.772  -3.917 -0.12 -0.00    +0.000 C 
DOCKED: BRANCH  19  20
DOCKED: ATOM     20  O   UNL     1      14.545  -7.451  -2.639 -0.19 -0.00    +0.000 OA
DOCKED: ATOM     21  H   UNL     1      15.443  -7.800  -2.534 -0.02 -0.00    +0.000 HD
DOCKED: ENDBRANCH  19  20
DOCKED: ENDBRANCH  18  19
DOCKED: ENDBRANCH   1  18
DOCKED: BRANCH   1  22
DOCKED: ATOM     22  C   UNL     1      11.556  -9.978  -2.137 -0.14 -0.00    +0.000 C 
DOCKED: BRANCH  22  23
DOCKED: ATOM     23  C   UNL     1      11.357  -9.431  -0.710 -0.17 -0.00    +0.000 C 
DOCKED: BRANCH  23  24
DOCKED: ATOM     24  C   UNL     1      12.022 -10.329   0.288 -0.23 +0.00    +0.000 A 
DOCKED: ATOM     25  C   UNL     1      11.510 -11.513   0.812 -0.37 +0.00    +0.000 A 
DOCKED: ATOM     26  N   UNL     1      12.349 -12.016   1.746 -0.43 +0.00    +0.000 N 
DOCKED: ATOM     27  C   UNL     1      13.377 -11.154   1.826 -0.35 +0.00    +0.000 A 
DOCKED: ATOM     28  C   UNL     1      13.211 -10.108   0.956 -0.20 +0.00    +0.000 A 
DOCKED: ATOM     29  C   UNL     1      14.133  -9.064   0.874 -0.20 +0.00    +0.000 A 
DOCKED: ATOM     30  C   UNL     1      15.262  -9.121   1.712 -0.27 +0.00    +0.000 A 
DOCKED: ATOM     31  C   UNL     1      15.438 -10.201   2.605 -0.36 +0.00    +0.000 A 
DOCKED: ATOM     32  C   UNL     1      14.485 -11.235   2.670 -0.41 +0.00    +0.000 A 
DOCKED: ATOM     33  H   UNL     1      12.231 -12.846   2.262 -0.57 +0.00    +0.000 HD
DOCKED: ENDBRANCH  23  24
DOCKED: ENDBRANCH  22  23
DOCKED: ENDBRANCH   1  22
DOCKED: TORSDOF 11
DOCKED: TER
DOCKED: ENDMDL
________________________________________________________________________________


	BEGINNING GENETIC ALGORITHM DOCKING 36 of 100
Run: 36 Seed: 471881731 2097665022 [ Run 36 of 100 GA/GALS ]
Beginning LAMARCKIAN GENETIC ALGORITHM (LGA), with a maximum of 2500000 energy evaluations.

Final-Value: -16.727


	FINAL GENETIC ALGORITHM DOCKED STATE
	_______________________________________________


Detailed state:  trans 21.138 -9.578 -5.144 quatxyzw -0.228688 -0.698863 -0.569905 -0.366743 center 0.460 0.128 -0.007 ntor 11 15.1291 -23.7929 56.6920 67.8967 121.1983 59.4605 128.5810 25.4837 -171.9536 132.8518 32.9654
State:	 21.138  -9.578  -5.144  -0.246 -0.751 -0.613 -136.970     15.13  -23.79   56.69   67.90  121.20   59.46  128.58   25.48 -171.95  132.85   32.97

DOCKED: MODEL       36
DOCKED: USER    Run = 36
DOCKED: USER    DPF = ligand_dock.biased.dpf
DOCKED: USER  
DOCKED: USER    Estimated Free Energy of Binding    =  -10.66 kcal/mol  [=(1)+(2)+(3)-(4)]
DOCKED: USER    Estimated Inhibition Constant, Ki   =   15.23 nM (nanomolar)  [Temperature = 298.15 K]
DOCKED: USER    
DOCKED: USER    (1) Final Intermolecular Energy     =  -13.95 kcal/mol
DOCKED: USER        vdW + Hbond + desolv Energy     =  -13.95 kcal/mol
DOCKED: USER        Electrostatic Energy            =   +0.00 kcal/mol
DOCKED: USER    (2) Final Total Internal Energy     =   -2.78 kcal/mol
DOCKED: USER    (3) Torsional Free Energy           =   +3.28 kcal/mol
DOCKED: USER    (4) Unbound System's Energy  [=(2)] =   -2.78 kcal/mol
DOCKED: USER    
DOCKED: USER    
DOCKED: USER    NEWDPF move ligand.pdbqt
DOCKED: USER    NEWDPF about 0.460000 0.128000 -0.007000
DOCKED: USER    NEWDPF tran0 21.137790 -9.577854 -5.143722
DOCKED: USER    NEWDPF quaternion0 -0.228688 -0.698863 -0.569905 -0.366743
DOCKED: USER    NEWDPF axisangle0 -0.245816 -0.751206 -0.612588 -136.970186
DOCKED: USER    NEWDPF quat0 -0.245816 -0.751206 -0.612588 -136.970186
DOCKED: USER    NEWDPF dihe0 15.13 -23.79 56.69 67.90 121.20 59.46 128.58 25.48 -171.95 132.85 32.97 
DOCKED: USER  keepresnum = 1 
DOCKED: USER  
DOCKED: REMARK  Name = 
DOCKED: REMARK  11 active torsions:
DOCKED: REMARK  status: ('A' for Active; 'I' for Inactive)
DOCKED: REMARK    1  A    between atoms: C_2  and  C_5
DOCKED: REMARK    2  A    between atoms: N_3  and  O_4
DOCKED: REMARK    3  A    between atoms: C_6  and  C_7
DOCKED: REMARK    4  A    between atoms: C_10  and  C_11
DOCKED: REMARK    5  A    between atoms: C_11  and  N_12
DOCKED: REMARK    6  A    between atoms: N_12  and  C_13
DOCKED: REMARK    7  A    between atoms: N_12  and  C_16
DOCKED: REMARK    8  A    between atoms: C_13  and  C_14
DOCKED: REMARK    9  A    between atoms: C_14  and  O_15
DOCKED: REMARK   10  A    between atoms: C_16  and  C_17
DOCKED: REMARK   11  A    between atoms: C_17  and  C_18
DOCKED: REMARK                            x       y       z     vdW  Elec       q    Type
DOCKED: REMARK                         _______ _______ _______ _____ _____    ______ ____
DOCKED: USER                              x       y       z     vdW  Elec       q    Type
DOCKED: USER                           _______ _______ _______ _____ _____    ______ ____
DOCKED: ROOT
DOCKED: ATOM      1  N   UNL     1      20.807  -9.801  -6.649 -0.21 -0.00    +0.000 N 
DOCKED: ATOM      2  H   UNL     1      20.732 -10.639  -6.072 -0.02 -0.00    +0.000 HD
DOCKED: ENDROOT
DOCKED: BRANCH   1   3
DOCKED: ATOM      3  C   UNL     1      21.104  -8.655  -5.762 -0.23 -0.00    +0.000 C 
DOCKED: BRANCH   3   7
DOCKED: ATOM      4  C   UNL     1      21.325  -9.948  -1.638 -0.55 -0.00    +0.000 A 
DOCKED: ATOM      5  C   UNL     1      21.505 -10.868  -2.684 -0.27 -0.00    +0.000 A 
DOCKED: ATOM      6  C   UNL     1      21.426 -10.456  -4.017 -0.45 -0.00    +0.000 A 
DOCKED: ATOM      7  C   UNL     1      21.172  -9.113  -4.330 -0.33 -0.00    +0.000 A 
DOCKED: ATOM      8  C   UNL     1      21.012  -8.186  -3.290 -0.37 -0.00    +0.000 A 
DOCKED: ATOM      9  C   UNL     1      21.090  -8.595  -1.956 -0.46 -0.00    +0.000 A 
DOCKED: BRANCH   4  11
DOCKED: ATOM     10  C   UNL     1      20.370 -10.724   0.528 -0.68 -0.00    +0.000 C 
DOCKED: ATOM     11  C   UNL     1      21.430 -10.435  -0.240 -0.71 -0.00    +0.000 C 
DOCKED: BRANCH  10  13
DOCKED: ATOM     12  O   UNL     1      20.821 -12.406   2.113 -1.24 -0.00    +0.000 OA
DOCKED: ATOM     13  C   UNL     1      20.482 -11.209   1.920 -0.74 -0.00    +0.000 C 
DOCKED: ATOM     14  N   UNL     1      20.246 -10.357   3.050 -0.60 -0.00    +0.000 N 
DOCKED: ATOM     15  H   UNL     1      20.082  -9.397   2.914 -0.56 -0.00    +0.000 HD
DOCKED: BRANCH  14  16
DOCKED: ATOM     16  O   UNL     1      20.249 -10.873   4.303 -0.70 -0.00    +0.000 OA
DOCKED: ATOM     17  H   UNL     1      20.652 -11.755   4.288 -0.45 -0.00    +0.000 HD
DOCKED: ENDBRANCH  14  16
DOCKED: ENDBRANCH  10  13
DOCKED: ENDBRANCH   4  11
DOCKED: ENDBRANCH   3   7
DOCKED: ENDBRANCH   1   3
DOCKED: BRANCH   1  18
DOCKED: ATOM     18  C   UNL     1      19.484  -9.653  -7.301 -0.20 -0.00    +0.000 C 
DOCKED: BRANCH  18  19
DOCKED: ATOM     19  C   UNL     1      18.380 -10.426  -6.562 -0.30 -0.00    +0.000 C 
DOCKED: BRANCH  19  20
DOCKED: ATOM     20  O   UNL     1      18.905 -11.534  -5.882 -0.46 -0.00    +0.000 OA
DOCKED: ATOM     21  H   UNL     1      18.972 -12.286  -6.491 -0.23 -0.00    +0.000 HD
DOCKED: ENDBRANCH  19  20
DOCKED: ENDBRANCH  18  19
DOCKED: ENDBRANCH   1  18
DOCKED: BRANCH   1  22
DOCKED: ATOM     22  C   UNL     1      21.923 -10.086  -7.583 -0.27 -0.00    +0.000 C 
DOCKED: BRANCH  22  23
DOCKED: ATOM     23  C   UNL     1      22.504 -11.509  -7.457 -0.37 -0.00    +0.000 C 
DOCKED: BRANCH  23  24
DOCKED: ATOM     24  C   UNL     1      23.850 -11.579  -8.110 -0.40 -0.00    +0.000 A 
DOCKED: ATOM     25  C   UNL     1      24.336 -12.616  -8.904 -0.36 -0.00    +0.000 A 
DOCKED: ATOM     26  N   UNL     1      25.619 -12.376  -9.257 -0.38 -0.00    +0.000 N 
DOCKED: ATOM     27  C   UNL     1      25.952 -11.208  -8.682 -0.36 -0.00    +0.000 A 
DOCKED: ATOM     28  C   UNL     1      24.900 -10.694  -7.969 -0.34 -0.00    +0.000 A 
DOCKED: ATOM     29  C   UNL     1      25.007  -9.499  -7.256 -0.23 -0.00    +0.000 A 
DOCKED: ATOM     30  C   UNL     1      26.239  -8.819  -7.299 -0.29 -0.00    +0.000 A 
DOCKED: ATOM     31  C   UNL     1      27.322  -9.345  -8.038 -0.31 -0.00    +0.000 A 
DOCKED: ATOM     32  C   UNL     1      27.184 -10.557  -8.741 -0.35 -0.00    +0.000 A 
DOCKED: ATOM     33  H   UNL     1      26.193 -12.944  -9.821 -0.53 -0.00    +0.000 HD
DOCKED: ENDBRANCH  23  24
DOCKED: ENDBRANCH  22  23
DOCKED: ENDBRANCH   1  22
DOCKED: TORSDOF 11
DOCKED: TER
DOCKED: ENDMDL
________________________________________________________________________________


	BEGINNING GENETIC ALGORITHM DOCKING 37 of 100
Run: 37 Seed: 1572943323 2138240381 [ Run 37 of 100 GA/GALS ]
Beginning LAMARCKIAN GENETIC ALGORITHM (LGA), with a maximum of 2500000 energy evaluations.

Final-Value: -14.824


	FINAL GENETIC ALGORITHM DOCKED STATE
	_______________________________________________


Detailed state:  trans 14.130 -8.624 -2.693 quatxyzw -0.226791 -0.927794 0.296115 -0.008912 center 0.460 0.128 -0.007 ntor 11 -1.2169 -33.6183 100.7050 1.5958 -103.1752 -101.7764 21.2391 24.9929 -39.7514 25.9298 160.2422
State:	 14.130  -8.624  -2.693  -0.227 -0.928  0.296 -178.979     -1.22  -33.62  100.71    1.60 -103.18 -101.78   21.24   24.99  -39.75   25.93  160.24

DOCKED: MODEL       37
DOCKED: USER    Run = 37
DOCKED: USER    DPF = ligand_dock.biased.dpf
DOCKED: USER  
DOCKED: USER    Estimated Free Energy of Binding    =   -7.98 kcal/mol  [=(1)+(2)+(3)-(4)]
DOCKED: USER    Estimated Inhibition Constant, Ki   =    1.41 uM (micromolar)  [Temperature = 298.15 K]
DOCKED: USER    
DOCKED: USER    (1) Final Intermolecular Energy     =  -11.26 kcal/mol
DOCKED: USER        vdW + Hbond + desolv Energy     =  -11.26 kcal/mol
DOCKED: USER        Electrostatic Energy            =   +0.00 kcal/mol
DOCKED: USER    (2) Final Total Internal Energy     =   -3.56 kcal/mol
DOCKED: USER    (3) Torsional Free Energy           =   +3.28 kcal/mol
DOCKED: USER    (4) Unbound System's Energy  [=(2)] =   -3.56 kcal/mol
DOCKED: USER    
DOCKED: USER    
DOCKED: USER    NEWDPF move ligand.pdbqt
DOCKED: USER    NEWDPF about 0.460000 0.128000 -0.007000
DOCKED: USER    NEWDPF tran0 14.129793 -8.623560 -2.693246
DOCKED: USER    NEWDPF quaternion0 -0.226791 -0.927794 0.296115 -0.008912
DOCKED: USER    NEWDPF axisangle0 -0.226800 -0.927831 0.296127 -178.978704
DOCKED: USER    NEWDPF quat0 -0.226800 -0.927831 0.296127 -178.978704
DOCKED: USER    NEWDPF dihe0 -1.22 -33.62 100.71 1.60 -103.18 -101.78 21.24 24.99 -39.75 25.93 160.24 
DOCKED: USER  keepresnum = 1 
DOCKED: USER  
DOCKED: REMARK  Name = 
DOCKED: REMARK  11 active torsions:
DOCKED: REMARK  status: ('A' for Active; 'I' for Inactive)
DOCKED: REMARK    1  A    between atoms: C_2  and  C_5
DOCKED: REMARK    2  A    between atoms: N_3  and  O_4
DOCKED: REMARK    3  A    between atoms: C_6  and  C_7
DOCKED: REMARK    4  A    between atoms: C_10  and  C_11
DOCKED: REMARK    5  A    between atoms: C_11  and  N_12
DOCKED: REMARK    6  A    between atoms: N_12  and  C_13
DOCKED: REMARK    7  A    between atoms: N_12  and  C_16
DOCKED: REMARK    8  A    between atoms: C_13  and  C_14
DOCKED: REMARK    9  A    between atoms: C_14  and  O_15
DOCKED: REMARK   10  A    between atoms: C_16  and  C_17
DOCKED: REMARK   11  A    between atoms: C_17  and  C_18
DOCKED: REMARK                            x       y       z     vdW  Elec       q    Type
DOCKED: REMARK                         _______ _______ _______ _____ _____    ______ ____
DOCKED: USER                              x       y       z     vdW  Elec       q    Type
DOCKED: USER                           _______ _______ _______ _____ _____    ______ ____
DOCKED: ROOT
DOCKED: ATOM      1  N   UNL     1      14.452  -9.916  -1.887 -0.22 -0.00    +0.000 N 
DOCKED: ATOM      2  H   UNL     1      14.104  -9.141  -1.321 -0.00 -0.00    +0.000 HD
DOCKED: ENDROOT
DOCKED: BRANCH   1   3
DOCKED: ATOM      3  C   UNL     1      14.400  -9.510  -3.308 -0.21 -0.00    +0.000 C 
DOCKED: BRANCH   3   7
DOCKED: ATOM      4  C   UNL     1      18.281 -10.084  -5.136 -0.24 -0.00    +0.000 A 
DOCKED: ATOM      5  C   UNL     1      17.989  -8.900  -4.440 -0.18 -0.00    +0.000 A 
DOCKED: ATOM      6  C   UNL     1      16.735  -8.706  -3.855 -0.10 -0.00    +0.000 A 
DOCKED: ATOM      7  C   UNL     1      15.749  -9.699  -3.950 -0.20 -0.00    +0.000 A 
DOCKED: ATOM      8  C   UNL     1      16.041 -10.893  -4.625 -0.14 -0.00    +0.000 A 
DOCKED: ATOM      9  C   UNL     1      17.295 -11.088  -5.211 -0.10 -0.00    +0.000 A 
DOCKED: BRANCH   4  11
DOCKED: ATOM     10  C   UNL     1      20.619 -10.946  -5.153 -0.48 -0.00    +0.000 C 
DOCKED: ATOM     11  C   UNL     1      19.632 -10.244  -5.729 -0.31 -0.00    +0.000 C 
DOCKED: BRANCH  10  13
DOCKED: ATOM     12  O   UNL     1      22.646 -10.065  -5.966 -0.35 -0.00    +0.000 OA
DOCKED: ATOM     13  C   UNL     1      21.962 -11.101  -5.750 -0.50 -0.00    +0.000 C 
DOCKED: ATOM     14  N   UNL     1      22.519 -12.385  -6.061 -0.57 -0.00    +0.000 N 
DOCKED: ATOM     15  H   UNL     1      22.039 -13.204  -5.802 -0.58 -0.00    +0.000 HD
DOCKED: BRANCH  14  16
DOCKED: ATOM     16  O   UNL     1      23.705 -12.474  -6.710 -1.15 -0.00    +0.000 OA
DOCKED: ATOM     17  H   UNL     1      24.032 -11.582  -6.908 -0.04 +0.00    +0.000 HD
DOCKED: ENDBRANCH  14  16
DOCKED: ENDBRANCH  10  13
DOCKED: ENDBRANCH   4  11
DOCKED: ENDBRANCH   3   7
DOCKED: ENDBRANCH   1   3
DOCKED: BRANCH   1  18
DOCKED: ATOM     18  C   UNL     1      13.534 -11.046  -1.612 -0.33 -0.00    +0.000 C 
DOCKED: BRANCH  18  19
DOCKED: ATOM     19  C   UNL     1      13.258 -11.222  -0.110 -0.37 +0.00    +0.000 C 
DOCKED: BRANCH  19  20
DOCKED: ATOM     20  O   UNL     1      13.629 -10.078   0.611 -0.22 +0.00    +0.000 OA
DOCKED: ATOM     21  H   UNL     1      14.530 -10.188   0.951 +0.01 +0.00    +0.000 HD
DOCKED: ENDBRANCH  19  20
DOCKED: ENDBRANCH  18  19
DOCKED: ENDBRANCH   1  18
DOCKED: BRANCH   1  22
DOCKED: ATOM     22  C   UNL     1      15.843 -10.128  -1.419 -0.28 -0.00    +0.000 C 
DOCKED: BRANCH  22  23
DOCKED: ATOM     23  C   UNL     1      16.224 -11.608  -1.220 -0.17 +0.00    +0.000 C 
DOCKED: BRANCH  23  24
DOCKED: ATOM     24  C   UNL     1      17.463 -11.718  -0.384 -0.40 -0.00    +0.000 A 
DOCKED: ATOM     25  C   UNL     1      17.558 -12.267   0.892 -0.47 +0.00    +0.000 A 
DOCKED: ATOM     26  N   UNL     1      18.814 -12.125   1.373 -0.58 -0.00    +0.000 N 
DOCKED: ATOM     27  C   UNL     1      19.508 -11.480   0.419 -0.55 -0.00    +0.000 A 
DOCKED: ATOM     28  C   UNL     1      18.715 -11.209  -0.667 -0.43 -0.00    +0.000 A 
DOCKED: ATOM     29  C   UNL     1      19.199 -10.520  -1.779 -0.37 -0.00    +0.000 A 
DOCKED: ATOM     30  C   UNL     1      20.546 -10.113  -1.762 -0.51 -0.00    +0.000 A 
DOCKED: ATOM     31  C   UNL     1      21.366 -10.396  -0.647 -0.63 -0.00    +0.000 A 
DOCKED: ATOM     32  C   UNL     1      20.845 -11.087   0.464 -0.58 -0.00    +0.000 A 
DOCKED: ATOM     33  H   UNL     1      19.152 -12.432   2.245 -0.03 -0.00    +0.000 HD
DOCKED: ENDBRANCH  23  24
DOCKED: ENDBRANCH  22  23
DOCKED: ENDBRANCH   1  22
DOCKED: TORSDOF 11
DOCKED: TER
DOCKED: ENDMDL
________________________________________________________________________________


	BEGINNING GENETIC ALGORITHM DOCKING 38 of 100
Run: 38 Seed: 674551427 362017014 [ Run 38 of 100 GA/GALS ]
Beginning LAMARCKIAN GENETIC ALGORITHM (LGA), with a maximum of 2500000 energy evaluations.

Final-Value: -14.577


	FINAL GENETIC ALGORITHM DOCKED STATE
	_______________________________________________


Detailed state:  trans 20.977 -9.857 -5.065 quatxyzw -0.840327 0.203506 0.196059 -0.462598 center 0.460 0.128 -0.007 ntor 11 2.8556 86.3903 165.3148 -84.1733 155.0914 -63.2747 179.4399 -63.9527 179.9439 118.1643 25.0124
State:	 20.977  -9.857  -5.065  -0.948  0.230  0.221 -124.890      2.86   86.39  165.31  -84.17  155.09  -63.27  179.44  -63.95  179.94  118.16   25.01

DOCKED: MODEL       38
DOCKED: USER    Run = 38
DOCKED: USER    DPF = ligand_dock.biased.dpf
DOCKED: USER  
DOCKED: USER    Estimated Free Energy of Binding    =   -9.13 kcal/mol  [=(1)+(2)+(3)-(4)]
DOCKED: USER    Estimated Inhibition Constant, Ki   =  203.08 nM (nanomolar)  [Temperature = 298.15 K]
DOCKED: USER    
DOCKED: USER    (1) Final Intermolecular Energy     =  -12.41 kcal/mol
DOCKED: USER        vdW + Hbond + desolv Energy     =  -12.41 kcal/mol
DOCKED: USER        Electrostatic Energy            =   +0.00 kcal/mol
DOCKED: USER    (2) Final Total Internal Energy     =   -2.17 kcal/mol
DOCKED: USER    (3) Torsional Free Energy           =   +3.28 kcal/mol
DOCKED: USER    (4) Unbound System's Energy  [=(2)] =   -2.17 kcal/mol
DOCKED: USER    
DOCKED: USER    
DOCKED: USER    NEWDPF move ligand.pdbqt
DOCKED: USER    NEWDPF about 0.460000 0.128000 -0.007000
DOCKED: USER    NEWDPF tran0 20.977467 -9.856573 -5.065475
DOCKED: USER    NEWDPF quaternion0 -0.840327 0.203506 0.196059 -0.462598
DOCKED: USER    NEWDPF axisangle0 -0.947843 0.229543 0.221144 -124.890263
DOCKED: USER    NEWDPF quat0 -0.947843 0.229543 0.221144 -124.890263
DOCKED: USER    NEWDPF dihe0 2.86 86.39 165.31 -84.17 155.09 -63.27 179.44 -63.95 179.94 118.16 25.01 
DOCKED: USER  keepresnum = 1 
DOCKED: USER  
DOCKED: REMARK  Name = 
DOCKED: REMARK  11 active torsions:
DOCKED: REMARK  status: ('A' for Active; 'I' for Inactive)
DOCKED: REMARK    1  A    between atoms: C_2  and  C_5
DOCKED: REMARK    2  A    between atoms: N_3  and  O_4
DOCKED: REMARK    3  A    between atoms: C_6  and  C_7
DOCKED: REMARK    4  A    between atoms: C_10  and  C_11
DOCKED: REMARK    5  A    between atoms: C_11  and  N_12
DOCKED: REMARK    6  A    between atoms: N_12  and  C_13
DOCKED: REMARK    7  A    between atoms: N_12  and  C_16
DOCKED: REMARK    8  A    between atoms: C_13  and  C_14
DOCKED: REMARK    9  A    between atoms: C_14  and  O_15
DOCKED: REMARK   10  A    between atoms: C_16  and  C_17
DOCKED: REMARK   11  A    between atoms: C_17  and  C_18
DOCKED: REMARK                            x       y       z     vdW  Elec       q    Type
DOCKED: REMARK                         _______ _______ _______ _____ _____    ______ ____
DOCKED: USER                              x       y       z     vdW  Elec       q    Type
DOCKED: USER                           _______ _______ _______ _____ _____    ______ ____
DOCKED: ROOT
DOCKED: ATOM      1  N   UNL     1      20.845  -9.105  -3.708 -0.36 -0.00    +0.000 N 
DOCKED: ATOM      2  H   UNL     1      21.394  -9.964  -3.663 -0.02 -0.00    +0.000 HD
DOCKED: ENDROOT
DOCKED: BRANCH   1   3
DOCKED: ATOM      3  C   UNL     1      20.481  -8.864  -5.121 -0.25 -0.00    +0.000 C 
DOCKED: BRANCH   3   7
DOCKED: ATOM      4  C   UNL     1      22.553 -11.645  -7.710 -0.30 -0.00    +0.000 A 
DOCKED: ATOM      5  C   UNL     1      22.631 -11.777  -6.314 -0.42 -0.00    +0.000 A 
DOCKED: ATOM      6  C   UNL     1      21.971 -10.876  -5.474 -0.41 -0.00    +0.000 A 
DOCKED: ATOM      7  C   UNL     1      21.212  -9.828  -6.016 -0.27 -0.00    +0.000 A 
DOCKED: ATOM      8  C   UNL     1      21.113  -9.703  -7.409 -0.19 -0.00    +0.000 A 
DOCKED: ATOM      9  C   UNL     1      21.773 -10.603  -8.251 -0.24 -0.00    +0.000 A 
DOCKED: BRANCH   4  11
DOCKED: ATOM     10  C   UNL     1      22.740 -13.178  -9.665 -0.32 -0.00    +0.000 C 
DOCKED: ATOM     11  C   UNL     1      23.264 -12.635  -8.557 -0.41 -0.00    +0.000 C 
DOCKED: BRANCH  10  13
DOCKED: ATOM     12  O   UNL     1      24.678 -13.976 -10.739 -0.38 -0.00    +0.000 OA
DOCKED: ATOM     13  C   UNL     1      23.455 -14.163 -10.504 -0.46 +0.00    +0.000 C 
DOCKED: ATOM     14  N   UNL     1      22.811 -15.331 -11.032 -0.49 +0.00    +0.000 N 
DOCKED: ATOM     15  H   UNL     1      21.886 -15.541 -10.771 -0.35 +0.00    +0.000 HD
DOCKED: BRANCH  14  16
DOCKED: ATOM     16  O   UNL     1      23.474 -16.145 -11.888 -0.91 +0.00    +0.000 OA
DOCKED: ATOM     17  H   UNL     1      24.381 -15.821 -12.004 -0.01 +0.00    +0.000 HD
DOCKED: ENDBRANCH  14  16
DOCKED: ENDBRANCH  10  13
DOCKED: ENDBRANCH   4  11
DOCKED: ENDBRANCH   3   7
DOCKED: ENDBRANCH   1   3
DOCKED: BRANCH   1  18
DOCKED: ATOM     18  C   UNL     1      21.737  -8.041  -3.189 -0.32 -0.00    +0.000 C 
DOCKED: BRANCH  18  19
DOCKED: ATOM     19  C   UNL     1      21.041  -7.156  -2.143 -0.44 -0.00    +0.000 C 
DOCKED: BRANCH  19  20
DOCKED: ATOM     20  O   UNL     1      21.038  -7.769  -0.881 -0.43 -0.00    +0.000 OA
DOCKED: ATOM     21  H   UNL     1      21.782  -8.387  -0.820 -0.05 -0.00    +0.000 HD
DOCKED: ENDBRANCH  19  20
DOCKED: ENDBRANCH  18  19
DOCKED: ENDBRANCH   1  18
DOCKED: BRANCH   1  22
DOCKED: ATOM     22  C   UNL     1      19.655  -9.374  -2.865 -0.24 -0.00    +0.000 C 
DOCKED: BRANCH  22  23
DOCKED: ATOM     23  C   UNL     1      19.586 -10.811  -2.311 -0.45 -0.00    +0.000 C 
DOCKED: BRANCH  23  24
DOCKED: ATOM     24  C   UNL     1      19.879 -10.816  -0.842 -0.48 -0.00    +0.000 A 
DOCKED: ATOM     25  C   UNL     1      21.133 -10.912  -0.245 -0.53 -0.00    +0.000 A 
DOCKED: ATOM     26  N   UNL     1      21.011 -10.965   1.101 -0.64 -0.00    +0.000 N 
DOCKED: ATOM     27  C   UNL     1      19.693 -10.918   1.358 -0.59 -0.00    +0.000 A 
DOCKED: ATOM     28  C   UNL     1      18.969 -10.833   0.197 -0.45 -0.00    +0.000 A 
DOCKED: ATOM     29  C   UNL     1      17.574 -10.800   0.199 -0.32 -0.00    +0.000 A 
DOCKED: ATOM     30  C   UNL     1      16.920 -10.846   1.445 -0.37 +0.00    +0.000 A 
DOCKED: ATOM     31  C   UNL     1      17.665 -10.928   2.642 -0.44 +0.00    +0.000 A 
DOCKED: ATOM     32  C   UNL     1      19.072 -10.967   2.605 -0.57 -0.00    +0.000 A 
DOCKED: ATOM     33  H   UNL     1      21.741 -11.025   1.759 -0.30 -0.00    +0.000 HD
DOCKED: ENDBRANCH  23  24
DOCKED: ENDBRANCH  22  23
DOCKED: ENDBRANCH   1  22
DOCKED: TORSDOF 11
DOCKED: TER
DOCKED: ENDMDL
________________________________________________________________________________


	BEGINNING GENETIC ALGORITHM DOCKING 39 of 100
Run: 39 Seed: 1670108100 1122284274 [ Run 39 of 100 GA/GALS ]
Beginning LAMARCKIAN GENETIC ALGORITHM (LGA), with a maximum of 2500000 energy evaluations.

Final-Value: -15.739


	FINAL GENETIC ALGORITHM DOCKED STATE
	_______________________________________________


Detailed state:  trans 12.697 -9.152 5.785 quatxyzw -0.919500 0.251840 -0.185396 0.238171 center 0.460 0.128 -0.007 ntor 11 -7.2881 160.8188 74.1901 29.2500 126.6380 -55.4259 -179.5810 30.5221 -159.9868 17.2328 -70.2695
State:	 12.697  -9.152   5.785  -0.947  0.259 -0.191 152.443     -7.29  160.82   74.19   29.25  126.64  -55.43 -179.58   30.52 -159.99   17.23  -70.27

DOCKED: MODEL       39
DOCKED: USER    Run = 39
DOCKED: USER    DPF = ligand_dock.biased.dpf
DOCKED: USER  
DOCKED: USER    Estimated Free Energy of Binding    =   -9.98 kcal/mol  [=(1)+(2)+(3)-(4)]
DOCKED: USER    Estimated Inhibition Constant, Ki   =   48.69 nM (nanomolar)  [Temperature = 298.15 K]
DOCKED: USER    
DOCKED: USER    (1) Final Intermolecular Energy     =  -13.26 kcal/mol
DOCKED: USER        vdW + Hbond + desolv Energy     =  -13.26 kcal/mol
DOCKED: USER        Electrostatic Energy            =   +0.00 kcal/mol
DOCKED: USER    (2) Final Total Internal Energy     =   -2.48 kcal/mol
DOCKED: USER    (3) Torsional Free Energy           =   +3.28 kcal/mol
DOCKED: USER    (4) Unbound System's Energy  [=(2)] =   -2.48 kcal/mol
DOCKED: USER    
DOCKED: USER    
DOCKED: USER    NEWDPF move ligand.pdbqt
DOCKED: USER    NEWDPF about 0.460000 0.128000 -0.007000
DOCKED: USER    NEWDPF tran0 12.696996 -9.151848 5.784885
DOCKED: USER    NEWDPF quaternion0 -0.919500 0.251840 -0.185396 0.238171
DOCKED: USER    NEWDPF axisangle0 -0.946744 0.259301 -0.190889 152.442761
DOCKED: USER    NEWDPF quat0 -0.946744 0.259301 -0.190889 152.442761
DOCKED: USER    NEWDPF dihe0 -7.29 160.82 74.19 29.25 126.64 -55.43 -179.58 30.52 -159.99 17.23 -70.27 
DOCKED: USER  keepresnum = 1 
DOCKED: USER  
DOCKED: REMARK  Name = 
DOCKED: REMARK  11 active torsions:
DOCKED: REMARK  status: ('A' for Active; 'I' for Inactive)
DOCKED: REMARK    1  A    between atoms: C_2  and  C_5
DOCKED: REMARK    2  A    between atoms: N_3  and  O_4
DOCKED: REMARK    3  A    between atoms: C_6  and  C_7
DOCKED: REMARK    4  A    between atoms: C_10  and  C_11
DOCKED: REMARK    5  A    between atoms: C_11  and  N_12
DOCKED: REMARK    6  A    between atoms: N_12  and  C_13
DOCKED: REMARK    7  A    between atoms: N_12  and  C_16
DOCKED: REMARK    8  A    between atoms: C_13  and  C_14
DOCKED: REMARK    9  A    between atoms: C_14  and  O_15
DOCKED: REMARK   10  A    between atoms: C_16  and  C_17
DOCKED: REMARK   11  A    between atoms: C_17  and  C_18
DOCKED: REMARK                            x       y       z     vdW  Elec       q    Type
DOCKED: REMARK                         _______ _______ _______ _____ _____    ______ ____
DOCKED: USER                              x       y       z     vdW  Elec       q    Type
DOCKED: USER                           _______ _______ _______ _____ _____    ______ ____
DOCKED: ROOT
DOCKED: ATOM      1  N   UNL     1      12.629  -7.851   4.932 -0.27 +0.00    +0.000 N 
DOCKED: ATOM      2  H   UNL     1      12.852  -7.699   5.916 -0.02 +0.00    +0.000 HD
DOCKED: ENDROOT
DOCKED: BRANCH   1   3
DOCKED: ATOM      3  C   UNL     1      12.569  -9.309   4.692 -0.10 +0.00    +0.000 C 
DOCKED: BRANCH   3   7
DOCKED: ATOM      4  C   UNL     1      16.160 -10.601   2.650 -0.41 +0.00    +0.000 A 
DOCKED: ATOM      5  C   UNL     1      15.005 -10.270   1.922 -0.30 +0.00    +0.000 A 
DOCKED: ATOM      6  C   UNL     1      13.841  -9.861   2.577 -0.26 +0.00    +0.000 A 
DOCKED: ATOM      7  C   UNL     1      13.812  -9.767   3.976 -0.32 +0.00    +0.000 A 
DOCKED: ATOM      8  C   UNL     1      14.967 -10.076   4.708 -0.37 +0.00    +0.000 A 
DOCKED: ATOM      9  C   UNL     1      16.133 -10.487   4.055 -0.35 +0.00    +0.000 A 
DOCKED: BRANCH   4  11
DOCKED: ATOM     10  C   UNL     1      18.622 -10.734   2.297 -0.59 -0.00    +0.000 C 
DOCKED: ATOM     11  C   UNL     1      17.373 -11.020   1.905 -0.48 +0.00    +0.000 C 
DOCKED: BRANCH  10  13
DOCKED: ATOM     12  O   UNL     1      20.128 -12.378   1.538 -1.66 -0.00    +0.000 OA
DOCKED: ATOM     13  C   UNL     1      19.826 -11.155   1.550 -0.70 -0.00    +0.000 C 
DOCKED: ATOM     14  N   UNL     1      20.639 -10.226   0.820 -0.61 -0.00    +0.000 N 
DOCKED: ATOM     15  H   UNL     1      20.357  -9.287   0.736 -0.21 -0.00    +0.000 HD
DOCKED: BRANCH  14  16
DOCKED: ATOM     16  O   UNL     1      21.794 -10.638   0.245 -0.68 -0.00    +0.000 OA
DOCKED: ATOM     17  H   UNL     1      21.982 -11.551   0.516 -0.44 -0.00    +0.000 HD
DOCKED: ENDBRANCH  14  16
DOCKED: ENDBRANCH  10  13
DOCKED: ENDBRANCH   4  11
DOCKED: ENDBRANCH   3   7
DOCKED: ENDBRANCH   1   3
DOCKED: BRANCH   1  18
DOCKED: ATOM     18  C   UNL     1      13.740  -7.222   4.177 -0.29 +0.00    +0.000 C 
DOCKED: BRANCH  18  19
DOCKED: ATOM     19  C   UNL     1      14.531  -6.218   5.031 -0.44 +0.00    +0.000 C 
DOCKED: BRANCH  19  20
DOCKED: ATOM     20  O   UNL     1      13.878  -5.961   6.245 -1.14 +0.00    +0.000 OA
DOCKED: ATOM     21  H   UNL     1      14.291  -6.480   6.952 -0.05 +0.00    +0.000 HD
DOCKED: ENDBRANCH  19  20
DOCKED: ENDBRANCH  18  19
DOCKED: ENDBRANCH   1  18
DOCKED: BRANCH   1  22
DOCKED: ATOM     22  C   UNL     1      11.311  -7.200   4.740 -0.21 +0.00    +0.000 C 
DOCKED: BRANCH  22  23
DOCKED: ATOM     23  C   UNL     1      10.918  -6.226   5.868 -0.14 +0.00    +0.000 C 
DOCKED: BRANCH  23  24
DOCKED: ATOM     24  C   UNL     1       9.432  -6.037   5.896 -0.26 +0.00    +0.000 A 
DOCKED: ATOM     25  C   UNL     1       8.697  -5.113   5.156 -0.22 +0.00    +0.000 A 
DOCKED: ATOM     26  N   UNL     1       7.389  -5.172   5.495 -0.23 +0.00    +0.000 N 
DOCKED: ATOM     27  C   UNL     1       7.294  -6.112   6.451 -0.29 +0.00    +0.000 A 
DOCKED: ATOM     28  C   UNL     1       8.521  -6.658   6.727 -0.34 +0.00    +0.000 A 
DOCKED: ATOM     29  C   UNL     1       8.687  -7.639   7.706 -0.44 +0.00    +0.000 A 
DOCKED: ATOM     30  C   UNL     1       7.543  -8.066   8.406 -0.57 +0.00    +0.000 A 
DOCKED: ATOM     31  C   UNL     1       6.278  -7.508   8.119 -0.52 +0.00    +0.000 A 
DOCKED: ATOM     32  C   UNL     1       6.145  -6.515   7.129 -0.36 +0.00    +0.000 A 
DOCKED: ATOM     33  H   UNL     1       6.656  -4.635   5.118 -0.01 +0.00    +0.000 HD
DOCKED: ENDBRANCH  23  24
DOCKED: ENDBRANCH  22  23
DOCKED: ENDBRANCH   1  22
DOCKED: TORSDOF 11
DOCKED: TER
DOCKED: ENDMDL
________________________________________________________________________________


	BEGINNING GENETIC ALGORITHM DOCKING 40 of 100
Run: 40 Seed: 2117989377 1187322051 [ Run 40 of 100 GA/GALS ]
Beginning LAMARCKIAN GENETIC ALGORITHM (LGA), with a maximum of 2500000 energy evaluations.

Final-Value: -15.825


	FINAL GENETIC ALGORITHM DOCKED STATE
	_______________________________________________


Detailed state:  trans 19.619 -8.622 -5.226 quatxyzw 0.100247 -0.676059 -0.713103 -0.156135 center 0.460 0.128 -0.007 ntor 11 30.5405 -48.9548 73.3938 43.5235 171.8587 53.8177 167.3240 -76.5447 158.5846 35.1201 75.1998
State:	 19.619  -8.622  -5.226   0.101 -0.684 -0.722 -162.035     30.54  -48.95   73.39   43.52  171.86   53.82  167.32  -76.54  158.58   35.12   75.20

DOCKED: MODEL       40
DOCKED: USER    Run = 40
DOCKED: USER    DPF = ligand_dock.biased.dpf
DOCKED: USER  
DOCKED: USER    Estimated Free Energy of Binding    =   -9.52 kcal/mol  [=(1)+(2)+(3)-(4)]
DOCKED: USER    Estimated Inhibition Constant, Ki   =  105.97 nM (nanomolar)  [Temperature = 298.15 K]
DOCKED: USER    
DOCKED: USER    (1) Final Intermolecular Energy     =  -12.80 kcal/mol
DOCKED: USER        vdW + Hbond + desolv Energy     =  -12.80 kcal/mol
DOCKED: USER        Electrostatic Energy            =   +0.00 kcal/mol
DOCKED: USER    (2) Final Total Internal Energy     =   -3.03 kcal/mol
DOCKED: USER    (3) Torsional Free Energy           =   +3.28 kcal/mol
DOCKED: USER    (4) Unbound System's Energy  [=(2)] =   -3.03 kcal/mol
DOCKED: USER    
DOCKED: USER    
DOCKED: USER    NEWDPF move ligand.pdbqt
DOCKED: USER    NEWDPF about 0.460000 0.128000 -0.007000
DOCKED: USER    NEWDPF tran0 19.619091 -8.622093 -5.226289
DOCKED: USER    NEWDPF quaternion0 0.100247 -0.676059 -0.713103 -0.156135
DOCKED: USER    NEWDPF axisangle0 0.101491 -0.684454 -0.721958 -162.034728
DOCKED: USER    NEWDPF quat0 0.101491 -0.684454 -0.721958 -162.034728
DOCKED: USER    NEWDPF dihe0 30.54 -48.95 73.39 43.52 171.86 53.82 167.32 -76.54 158.58 35.12 75.20 
DOCKED: USER  keepresnum = 1 
DOCKED: USER  
DOCKED: REMARK  Name = 
DOCKED: REMARK  11 active torsions:
DOCKED: REMARK  status: ('A' for Active; 'I' for Inactive)
DOCKED: REMARK    1  A    between atoms: C_2  and  C_5
DOCKED: REMARK    2  A    between atoms: N_3  and  O_4
DOCKED: REMARK    3  A    between atoms: C_6  and  C_7
DOCKED: REMARK    4  A    between atoms: C_10  and  C_11
DOCKED: REMARK    5  A    between atoms: C_11  and  N_12
DOCKED: REMARK    6  A    between atoms: N_12  and  C_13
DOCKED: REMARK    7  A    between atoms: N_12  and  C_16
DOCKED: REMARK    8  A    between atoms: C_13  and  C_14
DOCKED: REMARK    9  A    between atoms: C_14  and  O_15
DOCKED: REMARK   10  A    between atoms: C_16  and  C_17
DOCKED: REMARK   11  A    between atoms: C_17  and  C_18
DOCKED: REMARK                            x       y       z     vdW  Elec       q    Type
DOCKED: REMARK                         _______ _______ _______ _____ _____    ______ ____
DOCKED: USER                              x       y       z     vdW  Elec       q    Type
DOCKED: USER                           _______ _______ _______ _____ _____    ______ ____
DOCKED: ROOT
DOCKED: ATOM      1  N   UNL     1      20.384  -8.249  -6.530 -0.10 -0.00    +0.000 N 
DOCKED: ATOM      2  H   UNL     1      20.153  -9.239  -6.445 +0.01 -0.00    +0.000 HD
DOCKED: ENDROOT
DOCKED: BRANCH   1   3
DOCKED: ATOM      3  C   UNL     1      19.777  -7.534  -5.387 -0.15 -0.00    +0.000 C 
DOCKED: BRANCH   3   7
DOCKED: ATOM      4  C   UNL     1      20.299  -9.844  -1.765 -0.46 -0.00    +0.000 A 
DOCKED: ATOM      5  C   UNL     1      19.330 -10.214  -2.713 -0.35 -0.00    +0.000 A 
DOCKED: ATOM      6  C   UNL     1      19.153  -9.465  -3.880 -0.26 -0.00    +0.000 A 
DOCKED: ATOM      7  C   UNL     1      19.947  -8.336  -4.124 -0.23 -0.00    +0.000 A 
DOCKED: ATOM      8  C   UNL     1      20.929  -7.974  -3.192 -0.36 -0.00    +0.000 A 
DOCKED: ATOM      9  C   UNL     1      21.108  -8.720  -2.024 -0.46 -0.00    +0.000 A 
DOCKED: BRANCH   4  11
DOCKED: ATOM     10  C   UNL     1      20.016 -10.314   0.665 -0.60 -0.00    +0.000 C 
DOCKED: ATOM     11  C   UNL     1      20.454 -10.679  -0.548 -0.62 -0.00    +0.000 C 
DOCKED: BRANCH  10  13
DOCKED: ATOM     12  O   UNL     1      20.290 -12.397   1.729 -1.69 -0.00    +0.000 OA
DOCKED: ATOM     13  C   UNL     1      20.174 -11.151   1.873 -0.74 -0.00    +0.000 C 
DOCKED: ATOM     14  N   UNL     1      20.227 -10.591   3.192 -0.69 -0.00    +0.000 N 
DOCKED: ATOM     15  H   UNL     1      20.241  -9.614   3.310 -0.56 -0.00    +0.000 HD
DOCKED: BRANCH  14  16
DOCKED: ATOM     16  O   UNL     1      20.258 -11.403   4.276 -0.78 -0.00    +0.000 OA
DOCKED: ATOM     17  H   UNL     1      20.706 -12.232   4.045 -0.53 -0.00    +0.000 HD
DOCKED: ENDBRANCH  14  16
DOCKED: ENDBRANCH  10  13
DOCKED: ENDBRANCH   4  11
DOCKED: ENDBRANCH   3   7
DOCKED: ENDBRANCH   1   3
DOCKED: BRANCH   1  18
DOCKED: ATOM     18  C   UNL     1      19.791  -7.817  -7.818 -0.06 -0.00    +0.000 C 
DOCKED: BRANCH  18  19
DOCKED: ATOM     19  C   UNL     1      19.160  -8.986  -8.591 -0.11 -0.00    +0.000 C 
DOCKED: BRANCH  19  20
DOCKED: ATOM     20  O   UNL     1      19.511 -10.218  -8.021 -0.25 -0.00    +0.000 OA
DOCKED: ATOM     21  H   UNL     1      20.118 -10.688  -8.613 -0.03 -0.00    +0.000 HD
DOCKED: ENDBRANCH  19  20
DOCKED: ENDBRANCH  18  19
DOCKED: ENDBRANCH   1  18
DOCKED: BRANCH   1  22
DOCKED: ATOM     22  C   UNL     1      21.866  -8.204  -6.491 -0.19 -0.00    +0.000 C 
DOCKED: BRANCH  22  23
DOCKED: ATOM     23  C   UNL     1      22.515  -9.394  -5.757 -0.24 -0.00    +0.000 C 
DOCKED: BRANCH  23  24
DOCKED: ATOM     24  C   UNL     1      22.899 -10.462  -6.736 -0.29 -0.00    +0.000 A 
DOCKED: ATOM     25  C   UNL     1      22.190 -11.627  -7.015 -0.09 -0.00    +0.000 A 
DOCKED: ATOM     26  N   UNL     1      22.874 -12.396  -7.892 -0.39 -0.00    +0.000 N 
DOCKED: ATOM     27  C   UNL     1      24.013 -11.734  -8.158 -0.41 -0.00    +0.000 A 
DOCKED: ATOM     28  C   UNL     1      24.067 -10.552  -7.465 -0.28 -0.00    +0.000 A 
DOCKED: ATOM     29  C   UNL     1      25.167  -9.697  -7.552 -0.27 -0.00    +0.000 A 
DOCKED: ATOM     30  C   UNL     1      26.230 -10.082  -8.390 -0.31 -0.00    +0.000 A 
DOCKED: ATOM     31  C   UNL     1      26.173 -11.297  -9.108 -0.33 -0.00    +0.000 A 
DOCKED: ATOM     32  C   UNL     1      25.052 -12.141  -8.993 -0.39 -0.00    +0.000 A 
DOCKED: ATOM     33  H   UNL     1      22.593 -13.264  -8.262 -0.54 -0.00    +0.000 HD
DOCKED: ENDBRANCH  23  24
DOCKED: ENDBRANCH  22  23
DOCKED: ENDBRANCH   1  22
DOCKED: TORSDOF 11
DOCKED: TER
DOCKED: ENDMDL
________________________________________________________________________________


	BEGINNING GENETIC ALGORITHM DOCKING 41 of 100
Run: 41 Seed: 1774200451 149316139 [ Run 41 of 100 GA/GALS ]
Beginning LAMARCKIAN GENETIC ALGORITHM (LGA), with a maximum of 2500000 energy evaluations.

Final-Value: -14.171


	FINAL GENETIC ALGORITHM DOCKED STATE
	_______________________________________________


Detailed state:  trans 13.870 -8.467 1.399 quatxyzw 0.349306 0.380318 -0.825359 0.228314 center 0.460 0.128 -0.007 ntor 11 -0.2216 -176.9505 -24.5292 8.6198 138.9608 -131.2476 144.5664 -38.4394 49.7033 -104.3352 84.4569
State:	 13.870  -8.467   1.399   0.359  0.391 -0.848 153.604     -0.22 -176.95  -24.53    8.62  138.96 -131.25  144.57  -38.44   49.70 -104.34   84.46

DOCKED: MODEL       41
DOCKED: USER    Run = 41
DOCKED: USER    DPF = ligand_dock.biased.dpf
DOCKED: USER  
DOCKED: USER    Estimated Free Energy of Binding    =   -8.45 kcal/mol  [=(1)+(2)+(3)-(4)]
DOCKED: USER    Estimated Inhibition Constant, Ki   =  638.09 nM (nanomolar)  [Temperature = 298.15 K]
DOCKED: USER    
DOCKED: USER    (1) Final Intermolecular Energy     =  -11.73 kcal/mol
DOCKED: USER        vdW + Hbond + desolv Energy     =  -11.73 kcal/mol
DOCKED: USER        Electrostatic Energy            =   +0.00 kcal/mol
DOCKED: USER    (2) Final Total Internal Energy     =   -2.44 kcal/mol
DOCKED: USER    (3) Torsional Free Energy           =   +3.28 kcal/mol
DOCKED: USER    (4) Unbound System's Energy  [=(2)] =   -2.44 kcal/mol
DOCKED: USER    
DOCKED: USER    
DOCKED: USER    NEWDPF move ligand.pdbqt
DOCKED: USER    NEWDPF about 0.460000 0.128000 -0.007000
DOCKED: USER    NEWDPF tran0 13.869519 -8.467475 1.399210
DOCKED: USER    NEWDPF quaternion0 0.349306 0.380318 -0.825359 0.228314
DOCKED: USER    NEWDPF axisangle0 0.358782 0.390635 -0.847750 153.604309
DOCKED: USER    NEWDPF quat0 0.358782 0.390635 -0.847750 153.604309
DOCKED: USER    NEWDPF dihe0 -0.22 -176.95 -24.53 8.62 138.96 -131.25 144.57 -38.44 49.70 -104.34 84.46 
DOCKED: USER  keepresnum = 1 
DOCKED: USER  
DOCKED: REMARK  Name = 
DOCKED: REMARK  11 active torsions:
DOCKED: REMARK  status: ('A' for Active; 'I' for Inactive)
DOCKED: REMARK    1  A    between atoms: C_2  and  C_5
DOCKED: REMARK    2  A    between atoms: N_3  and  O_4
DOCKED: REMARK    3  A    between atoms: C_6  and  C_7
DOCKED: REMARK    4  A    between atoms: C_10  and  C_11
DOCKED: REMARK    5  A    between atoms: C_11  and  N_12
DOCKED: REMARK    6  A    between atoms: N_12  and  C_13
DOCKED: REMARK    7  A    between atoms: N_12  and  C_16
DOCKED: REMARK    8  A    between atoms: C_13  and  C_14
DOCKED: REMARK    9  A    between atoms: C_14  and  O_15
DOCKED: REMARK   10  A    between atoms: C_16  and  C_17
DOCKED: REMARK   11  A    between atoms: C_17  and  C_18
DOCKED: REMARK                            x       y       z     vdW  Elec       q    Type
DOCKED: REMARK                         _______ _______ _______ _____ _____    ______ ____
DOCKED: USER                              x       y       z     vdW  Elec       q    Type
DOCKED: USER                           _______ _______ _______ _____ _____    ______ ____
DOCKED: ROOT
DOCKED: ATOM      1  N   UNL     1      14.624  -8.309   2.752 -0.27 +0.00    +0.000 N 
DOCKED: ATOM      2  H   UNL     1      14.865  -7.609   2.050 -0.02 +0.00    +0.000 HD
DOCKED: ENDROOT
DOCKED: BRANCH   1   3
DOCKED: ATOM      3  C   UNL     1      13.535  -9.151   2.210 -0.23 +0.00    +0.000 C 
DOCKED: BRANCH   3   7
DOCKED: ATOM      4  C   UNL     1      14.569 -10.555  -1.751 -0.27 -0.00    +0.000 A 
DOCKED: ATOM      5  C   UNL     1      13.838 -11.372  -0.873 -0.33 +0.00    +0.000 A 
DOCKED: ATOM      6  C   UNL     1      13.510 -10.926   0.410 -0.29 +0.00    +0.000 A 
DOCKED: ATOM      7  C   UNL     1      13.901  -9.649   0.837 -0.19 +0.00    +0.000 A 
DOCKED: ATOM      8  C   UNL     1      14.612  -8.820  -0.042 -0.22 -0.00    +0.000 A 
DOCKED: ATOM      9  C   UNL     1      14.943  -9.265  -1.325 -0.22 -0.00    +0.000 A 
DOCKED: BRANCH   4  11
DOCKED: ATOM     10  C   UNL     1      13.963 -11.253  -4.065 -0.25 -0.00    +0.000 C 
DOCKED: ATOM     11  C   UNL     1      14.883 -11.073  -3.106 -0.27 -0.00    +0.000 C 
DOCKED: BRANCH  10  13
DOCKED: ATOM     12  O   UNL     1      15.123 -11.142  -6.111 -0.26 -0.00    +0.000 OA
DOCKED: ATOM     13  C   UNL     1      14.283 -11.769  -5.412 -0.30 -0.00    +0.000 C 
DOCKED: ATOM     14  N   UNL     1      13.692 -12.967  -5.935 -0.28 -0.00    +0.000 N 
DOCKED: ATOM     15  H   UNL     1      13.115 -13.520  -5.361 -0.52 -0.00    +0.000 HD
DOCKED: BRANCH  14  16
DOCKED: ATOM     16  O   UNL     1      13.928 -13.339  -7.216 -0.42 -0.00    +0.000 OA
DOCKED: ATOM     17  H   UNL     1      14.508 -12.687  -7.639 -0.01 -0.00    +0.000 HD
DOCKED: ENDBRANCH  14  16
DOCKED: ENDBRANCH  10  13
DOCKED: ENDBRANCH   4  11
DOCKED: ENDBRANCH   3   7
DOCKED: ENDBRANCH   1   3
DOCKED: BRANCH   1  18
DOCKED: ATOM     18  C   UNL     1      14.175  -7.539   3.937 -0.31 +0.00    +0.000 C 
DOCKED: BRANCH  18  19
DOCKED: ATOM     19  C   UNL     1      15.022  -6.277   4.167 -0.40 +0.00    +0.000 C 
DOCKED: BRANCH  19  20
DOCKED: ATOM     20  O   UNL     1      15.839  -6.415   5.299 -0.55 +0.00    +0.000 OA
DOCKED: ATOM     21  H   UNL     1      16.767  -6.295   5.045 -0.59 -0.00    +0.000 HD
DOCKED: ENDBRANCH  19  20
DOCKED: ENDBRANCH  18  19
DOCKED: ENDBRANCH   1  18
DOCKED: BRANCH   1  22
DOCKED: ATOM     22  C   UNL     1      15.874  -9.080   2.959 -0.40 +0.00    +0.000 C 
DOCKED: BRANCH  22  23
DOCKED: ATOM     23  C   UNL     1      15.676 -10.609   2.979 -0.48 +0.00    +0.000 C 
DOCKED: BRANCH  23  24
DOCKED: ATOM     24  C   UNL     1      16.700 -11.276   2.112 -0.40 +0.00    +0.000 A 
DOCKED: ATOM     25  C   UNL     1      16.454 -12.119   1.032 -0.42 +0.00    +0.000 A 
DOCKED: ATOM     26  N   UNL     1      17.616 -12.600   0.535 -0.52 +0.00    +0.000 N 
DOCKED: ATOM     27  C   UNL     1      18.591 -12.081   1.300 -0.53 -0.00    +0.000 A 
DOCKED: ATOM     28  C   UNL     1      18.071 -11.273   2.278 -0.44 -0.00    +0.000 A 
DOCKED: ATOM     29  C   UNL     1      18.884 -10.639   3.218 -0.43 -0.00    +0.000 A 
DOCKED: ATOM     30  C   UNL     1      20.273 -10.846   3.129 -0.65 -0.00    +0.000 A 
DOCKED: ATOM     31  C   UNL     1      20.810 -11.675   2.119 -0.58 -0.00    +0.000 A 
DOCKED: ATOM     32  C   UNL     1      19.963 -12.306   1.189 -0.50 -0.00    +0.000 A 
DOCKED: ATOM     33  H   UNL     1      17.724 -13.208  -0.232 -0.16 +0.00    +0.000 HD
DOCKED: ENDBRANCH  23  24
DOCKED: ENDBRANCH  22  23
DOCKED: ENDBRANCH   1  22
DOCKED: TORSDOF 11
DOCKED: TER
DOCKED: ENDMDL
________________________________________________________________________________


	BEGINNING GENETIC ALGORITHM DOCKING 42 of 100
Run: 42 Seed: 1632016798 906939853 [ Run 42 of 100 GA/GALS ]
Beginning LAMARCKIAN GENETIC ALGORITHM (LGA), with a maximum of 2500000 energy evaluations.

Final-Value: -14.572


	FINAL GENETIC ALGORITHM DOCKED STATE
	_______________________________________________


Detailed state:  trans 21.434 -7.508 -3.071 quatxyzw 0.577773 0.768999 0.273503 0.003943 center 0.460 0.128 -0.007 ntor 11 7.1259 -71.5080 180.0000 -83.2421 -163.0342 178.8621 -108.7126 122.9959 -143.0014 142.7958 8.9605
State:	 21.434  -7.508  -3.071   0.578  0.769  0.274 179.548      7.13  -71.51  180.00  -83.24 -163.03  178.86 -108.71  123.00 -143.00  142.80    8.96

DOCKED: MODEL       42
DOCKED: USER    Run = 42
DOCKED: USER    DPF = ligand_dock.biased.dpf
DOCKED: USER  
DOCKED: USER    Estimated Free Energy of Binding    =   -8.91 kcal/mol  [=(1)+(2)+(3)-(4)]
DOCKED: USER    Estimated Inhibition Constant, Ki   =  293.46 nM (nanomolar)  [Temperature = 298.15 K]
DOCKED: USER    
DOCKED: USER    (1) Final Intermolecular Energy     =  -12.19 kcal/mol
DOCKED: USER        vdW + Hbond + desolv Energy     =  -12.19 kcal/mol
DOCKED: USER        Electrostatic Energy            =   +0.00 kcal/mol
DOCKED: USER    (2) Final Total Internal Energy     =   -2.38 kcal/mol
DOCKED: USER    (3) Torsional Free Energy           =   +3.28 kcal/mol
DOCKED: USER    (4) Unbound System's Energy  [=(2)] =   -2.38 kcal/mol
DOCKED: USER    
DOCKED: USER    
DOCKED: USER    NEWDPF move ligand.pdbqt
DOCKED: USER    NEWDPF about 0.460000 0.128000 -0.007000
DOCKED: USER    NEWDPF tran0 21.433508 -7.508458 -3.070976
DOCKED: USER    NEWDPF quaternion0 0.577773 0.768999 0.273503 0.003943
DOCKED: USER    NEWDPF axisangle0 0.577778 0.769005 0.273505 179.548153
DOCKED: USER    NEWDPF quat0 0.577778 0.769005 0.273505 179.548153
DOCKED: USER    NEWDPF dihe0 7.13 -71.51 180.00 -83.24 -163.03 178.86 -108.71 123.00 -143.00 142.80 8.96 
DOCKED: USER  keepresnum = 1 
DOCKED: USER  
DOCKED: REMARK  Name = 
DOCKED: REMARK  11 active torsions:
DOCKED: REMARK  status: ('A' for Active; 'I' for Inactive)
DOCKED: REMARK    1  A    between atoms: C_2  and  C_5
DOCKED: REMARK    2  A    between atoms: N_3  and  O_4
DOCKED: REMARK    3  A    between atoms: C_6  and  C_7
DOCKED: REMARK    4  A    between atoms: C_10  and  C_11
DOCKED: REMARK    5  A    between atoms: C_11  and  N_12
DOCKED: REMARK    6  A    between atoms: N_12  and  C_13
DOCKED: REMARK    7  A    between atoms: N_12  and  C_16
DOCKED: REMARK    8  A    between atoms: C_13  and  C_14
DOCKED: REMARK    9  A    between atoms: C_14  and  O_15
DOCKED: REMARK   10  A    between atoms: C_16  and  C_17
DOCKED: REMARK   11  A    between atoms: C_17  and  C_18
DOCKED: REMARK                            x       y       z     vdW  Elec       q    Type
DOCKED: REMARK                         _______ _______ _______ _____ _____    ______ ____
DOCKED: USER                              x       y       z     vdW  Elec       q    Type
DOCKED: USER                           _______ _______ _______ _____ _____    ______ ____
DOCKED: ROOT
DOCKED: ATOM      1  N   UNL     1      20.632  -8.569  -3.883 -0.31 -0.00    +0.000 N 
DOCKED: ATOM      2  H   UNL     1      20.272  -8.395  -2.944 -0.01 -0.00    +0.000 HD
DOCKED: ENDROOT
DOCKED: BRANCH   1   3
DOCKED: ATOM      3  C   UNL     1      21.743  -7.625  -4.132 -0.28 -0.00    +0.000 C 
DOCKED: BRANCH   3   7
DOCKED: ATOM      4  C   UNL     1      21.330  -4.103  -1.651 -0.36 +0.00    +0.000 A 
DOCKED: ATOM      5  C   UNL     1      20.874  -5.352  -1.197 -0.27 +0.00    +0.000 A 
DOCKED: ATOM      6  C   UNL     1      20.998  -6.490  -1.999 -0.39 -0.00    +0.000 A 
DOCKED: ATOM      7  C   UNL     1      21.587  -6.402  -3.268 -0.31 -0.00    +0.000 A 
DOCKED: ATOM      8  C   UNL     1      22.063  -5.162  -3.718 -0.21 -0.00    +0.000 A 
DOCKED: ATOM      9  C   UNL     1      21.940  -4.022  -2.919 -0.21 -0.00    +0.000 A 
DOCKED: BRANCH   4  11
DOCKED: ATOM     10  C   UNL     1      21.009  -3.020   0.570 -0.39 +0.00    +0.000 C 
DOCKED: ATOM     11  C   UNL     1      21.185  -2.928  -0.756 -0.37 -0.00    +0.000 C 
DOCKED: BRANCH  10  13
DOCKED: ATOM     12  O   UNL     1      20.907  -0.697   0.940 -0.28 -0.00    +0.000 OA
DOCKED: ATOM     13  C   UNL     1      20.865  -1.845   1.455 -0.49 -0.00    +0.000 C 
DOCKED: ATOM     14  N   UNL     1      20.653  -1.971   2.868 -0.65 -0.00    +0.000 N 
DOCKED: ATOM     15  H   UNL     1      20.515  -2.860   3.266 -0.06 -0.00    +0.000 HD
DOCKED: BRANCH  14  16
DOCKED: ATOM     16  O   UNL     1      20.640  -0.868   3.655 -0.69 -0.00    +0.000 OA
DOCKED: ATOM     17  H   UNL     1      20.677  -0.075   3.099 -0.03 -0.00    +0.000 HD
DOCKED: ENDBRANCH  14  16
DOCKED: ENDBRANCH  10  13
DOCKED: ENDBRANCH   4  11
DOCKED: ENDBRANCH   3   7
DOCKED: ENDBRANCH   1   3
DOCKED: BRANCH   1  18
DOCKED: ATOM     18  C   UNL     1      19.491  -8.316  -4.794 -0.21 -0.00    +0.000 C 
DOCKED: BRANCH  18  19
DOCKED: ATOM     19  C   UNL     1      19.292  -9.453  -5.809 -0.21 -0.00    +0.000 C 
DOCKED: BRANCH  19  20
DOCKED: ATOM     20  O   UNL     1      18.329 -10.369  -5.361 -0.28 -0.00    +0.000 OA
DOCKED: ATOM     21  H   UNL     1      18.669 -11.271  -5.463 -0.03 -0.00    +0.000 HD
DOCKED: ENDBRANCH  19  20
DOCKED: ENDBRANCH  18  19
DOCKED: ENDBRANCH   1  18
DOCKED: BRANCH   1  22
DOCKED: ATOM     22  C   UNL     1      21.094  -9.977  -3.854 -0.48 -0.00    +0.000 C 
DOCKED: BRANCH  22  23
DOCKED: ATOM     23  C   UNL     1      20.261 -10.897  -2.939 -0.46 -0.00    +0.000 C 
DOCKED: BRANCH  23  24
DOCKED: ATOM     24  C   UNL     1      20.413 -10.480  -1.507 -0.50 -0.00    +0.000 A 
DOCKED: ATOM     25  C   UNL     1      21.397  -9.644  -0.985 -0.58 -0.00    +0.000 A 
DOCKED: ATOM     26  N   UNL     1      21.272  -9.552   0.358 -0.58 -0.00    +0.000 N 
DOCKED: ATOM     27  C   UNL     1      20.229 -10.333   0.690 -0.56 -0.00    +0.000 A 
DOCKED: ATOM     28  C   UNL     1      19.683 -10.921  -0.422 -0.49 -0.00    +0.000 A 
DOCKED: ATOM     29  C   UNL     1      18.604 -11.801  -0.334 -0.45 -0.00    +0.000 A 
DOCKED: ATOM     30  C   UNL     1      18.076 -12.065   0.944 -0.50 -0.00    +0.000 A 
DOCKED: ATOM     31  C   UNL     1      18.634 -11.456   2.089 -0.50 -0.00    +0.000 A 
DOCKED: ATOM     32  C   UNL     1      19.728 -10.577   1.968 -0.58 -0.00    +0.000 A 
DOCKED: ATOM     33  H   UNL     1      21.832  -9.021   0.970 -0.48 -0.00    +0.000 HD
DOCKED: ENDBRANCH  23  24
DOCKED: ENDBRANCH  22  23
DOCKED: ENDBRANCH   1  22
DOCKED: TORSDOF 11
DOCKED: TER
DOCKED: ENDMDL
________________________________________________________________________________


	BEGINNING GENETIC ALGORITHM DOCKING 43 of 100
Run: 43 Seed: 1258022191 1362287096 [ Run 43 of 100 GA/GALS ]
Beginning LAMARCKIAN GENETIC ALGORITHM (LGA), with a maximum of 2500000 energy evaluations.

Final-Value: -15.933


	FINAL GENETIC ALGORITHM DOCKED STATE
	_______________________________________________


Detailed state:  trans 15.329 -10.392 -1.929 quatxyzw 0.813917 0.362911 -0.362675 0.272583 center 0.460 0.128 -0.007 ntor 11 -2.8825 136.5322 102.2280 21.0667 -123.7769 -144.6643 -135.0723 120.3521 -148.0016 123.9948 41.5248
State:	 15.329 -10.392  -1.929   0.846  0.377 -0.377 148.364     -2.88  136.53  102.23   21.07 -123.78 -144.66 -135.07  120.35 -148.00  123.99   41.52

DOCKED: MODEL       43
DOCKED: USER    Run = 43
DOCKED: USER    DPF = ligand_dock.biased.dpf
DOCKED: USER  
DOCKED: USER    Estimated Free Energy of Binding    =   -9.10 kcal/mol  [=(1)+(2)+(3)-(4)]
DOCKED: USER    Estimated Inhibition Constant, Ki   =  212.10 nM (nanomolar)  [Temperature = 298.15 K]
DOCKED: USER    
DOCKED: USER    (1) Final Intermolecular Energy     =  -12.39 kcal/mol
DOCKED: USER        vdW + Hbond + desolv Energy     =  -12.39 kcal/mol
DOCKED: USER        Electrostatic Energy            =   +0.00 kcal/mol
DOCKED: USER    (2) Final Total Internal Energy     =   -3.55 kcal/mol
DOCKED: USER    (3) Torsional Free Energy           =   +3.28 kcal/mol
DOCKED: USER    (4) Unbound System's Energy  [=(2)] =   -3.55 kcal/mol
DOCKED: USER    
DOCKED: USER    
DOCKED: USER    NEWDPF move ligand.pdbqt
DOCKED: USER    NEWDPF about 0.460000 0.128000 -0.007000
DOCKED: USER    NEWDPF tran0 15.329497 -10.391726 -1.929334
DOCKED: USER    NEWDPF quaternion0 0.813917 0.362911 -0.362675 0.272583
DOCKED: USER    NEWDPF axisangle0 0.845951 0.377195 -0.376950 148.363981
DOCKED: USER    NEWDPF quat0 0.845951 0.377195 -0.376950 148.363981
DOCKED: USER    NEWDPF dihe0 -2.88 136.53 102.23 21.07 -123.78 -144.66 -135.07 120.35 -148.00 123.99 41.52 
DOCKED: USER  keepresnum = 1 
DOCKED: USER  
DOCKED: REMARK  Name = 
DOCKED: REMARK  11 active torsions:
DOCKED: REMARK  status: ('A' for Active; 'I' for Inactive)
DOCKED: REMARK    1  A    between atoms: C_2  and  C_5
DOCKED: REMARK    2  A    between atoms: N_3  and  O_4
DOCKED: REMARK    3  A    between atoms: C_6  and  C_7
DOCKED: REMARK    4  A    between atoms: C_10  and  C_11
DOCKED: REMARK    5  A    between atoms: C_11  and  N_12
DOCKED: REMARK    6  A    between atoms: N_12  and  C_13
DOCKED: REMARK    7  A    between atoms: N_12  and  C_16
DOCKED: REMARK    8  A    between atoms: C_13  and  C_14
DOCKED: REMARK    9  A    between atoms: C_14  and  O_15
DOCKED: REMARK   10  A    between atoms: C_16  and  C_17
DOCKED: REMARK   11  A    between atoms: C_17  and  C_18
DOCKED: REMARK                            x       y       z     vdW  Elec       q    Type
DOCKED: REMARK                         _______ _______ _______ _____ _____    ______ ____
DOCKED: USER                              x       y       z     vdW  Elec       q    Type
DOCKED: USER                           _______ _______ _______ _____ _____    ______ ____
DOCKED: ROOT
DOCKED: ATOM      1  N   UNL     1      14.405 -10.399  -0.677 -0.24 +0.00    +0.000 N 
DOCKED: ATOM      2  H   UNL     1      15.376 -10.155  -0.483 -0.00 -0.00    +0.000 HD
DOCKED: ENDROOT
DOCKED: BRANCH   1   3
DOCKED: ATOM      3  C   UNL     1      14.248 -10.543  -2.140 -0.31 -0.00    +0.000 C 
DOCKED: BRANCH   3   7
DOCKED: ATOM      4  C   UNL     1      18.105 -10.365  -4.097 -0.25 -0.00    +0.000 A 
DOCKED: ATOM      5  C   UNL     1      18.019 -10.518  -2.703 -0.23 -0.00    +0.000 A 
DOCKED: ATOM      6  C   UNL     1      16.776 -10.567  -2.066 -0.20 -0.00    +0.000 A 
DOCKED: ATOM      7  C   UNL     1      15.593 -10.471  -2.814 -0.24 -0.00    +0.000 A 
DOCKED: ATOM      8  C   UNL     1      15.672 -10.340  -4.207 -0.21 -0.00    +0.000 A 
DOCKED: ATOM      9  C   UNL     1      16.914 -10.290  -4.846 -0.21 -0.00    +0.000 A 
DOCKED: BRANCH   4  11
DOCKED: ATOM     10  C   UNL     1      20.362 -11.302  -4.584 -0.52 -0.00    +0.000 C 
DOCKED: ATOM     11  C   UNL     1      19.449 -10.330  -4.724 -0.36 -0.00    +0.000 C 
DOCKED: BRANCH  10  13
DOCKED: ATOM     12  O   UNL     1      22.312 -10.160  -5.247 -0.38 -0.00    +0.000 OA
DOCKED: ATOM     13  C   UNL     1      21.699 -11.260  -5.213 -0.56 -0.00    +0.000 C 
DOCKED: ATOM     14  N   UNL     1      22.327 -12.429  -5.756 -0.58 -0.00    +0.000 N 
DOCKED: ATOM     15  H   UNL     1      21.904 -13.310  -5.644 -0.55 -0.00    +0.000 HD
DOCKED: BRANCH  14  16
DOCKED: ATOM     16  O   UNL     1      23.501 -12.322  -6.423 -1.02 -0.00    +0.000 OA
DOCKED: ATOM     17  H   UNL     1      23.755 -11.388  -6.483 -0.03 -0.00    +0.000 HD
DOCKED: ENDBRANCH  14  16
DOCKED: ENDBRANCH  10  13
DOCKED: ENDBRANCH   4  11
DOCKED: ENDBRANCH   3   7
DOCKED: ENDBRANCH   1   3
DOCKED: BRANCH   1  18
DOCKED: ATOM     18  C   UNL     1      13.604  -9.265  -0.155 -0.20 +0.00    +0.000 C 
DOCKED: BRANCH  18  19
DOCKED: ATOM     19  C   UNL     1      14.313  -8.530   0.993 -0.25 +0.00    +0.000 C 
DOCKED: BRANCH  19  20
DOCKED: ATOM     20  O   UNL     1      15.683  -8.828   1.017 -0.29 +0.00    +0.000 OA
DOCKED: ATOM     21  H   UNL     1      16.132  -8.345   0.306 +0.01 -0.00    +0.000 HD
DOCKED: ENDBRANCH  19  20
DOCKED: ENDBRANCH  18  19
DOCKED: ENDBRANCH   1  18
DOCKED: BRANCH   1  22
DOCKED: ATOM     22  C   UNL     1      14.188 -11.681   0.035 -0.43 +0.00    +0.000 C 
DOCKED: BRANCH  22  23
DOCKED: ATOM     23  C   UNL     1      15.080 -11.871   1.278 -0.48 +0.00    +0.000 C 
DOCKED: BRANCH  23  24
DOCKED: ATOM     24  C   UNL     1      16.513 -12.031   0.870 -0.43 +0.00    +0.000 A 
DOCKED: ATOM     25  C   UNL     1      16.994 -12.788  -0.195 -0.43 +0.00    +0.000 A 
DOCKED: ATOM     26  N   UNL     1      18.346 -12.764  -0.216 -0.39 -0.00    +0.000 N 
DOCKED: ATOM     27  C   UNL     1      18.722 -12.013   0.833 -0.54 -0.00    +0.000 A 
DOCKED: ATOM     28  C   UNL     1      17.631 -11.553   1.524 -0.43 +0.00    +0.000 A 
DOCKED: ATOM     29  C   UNL     1      17.762 -10.772   2.673 -0.46 +0.00    +0.000 A 
DOCKED: ATOM     30  C   UNL     1      19.064 -10.455   3.105 -0.46 -0.00    +0.000 A 
DOCKED: ATOM     31  C   UNL     1      20.189 -10.925   2.391 -0.65 -0.00    +0.000 A 
DOCKED: ATOM     32  C   UNL     1      20.023 -11.717   1.239 -0.65 -0.00    +0.000 A 
DOCKED: ATOM     33  H   UNL     1      18.935 -13.208  -0.868 -0.44 -0.00    +0.000 HD
DOCKED: ENDBRANCH  23  24
DOCKED: ENDBRANCH  22  23
DOCKED: ENDBRANCH   1  22
DOCKED: TORSDOF 11
DOCKED: TER
DOCKED: ENDMDL
________________________________________________________________________________


	BEGINNING GENETIC ALGORITHM DOCKING 44 of 100
Run: 44 Seed: 1833223576 257280158 [ Run 44 of 100 GA/GALS ]
Beginning LAMARCKIAN GENETIC ALGORITHM (LGA), with a maximum of 2500000 energy evaluations.

Final-Value: -15.827


	FINAL GENETIC ALGORITHM DOCKED STATE
	_______________________________________________


Detailed state:  trans 21.775 -10.295 -5.753 quatxyzw 0.272425 0.693108 0.536265 0.397248 center 0.460 0.128 -0.007 ntor 11 -133.2913 -17.9818 95.8121 65.6427 -66.6891 82.5285 -0.4488 0.1893 156.4708 166.7882 10.5625
State:	 21.775 -10.295  -5.753   0.297  0.755  0.584 133.187   -133.29  -17.98   95.81   65.64  -66.69   82.53   -0.45    0.19  156.47  166.79   10.56

DOCKED: MODEL       44
DOCKED: USER    Run = 44
DOCKED: USER    DPF = ligand_dock.biased.dpf
DOCKED: USER  
DOCKED: USER    Estimated Free Energy of Binding    =  -10.29 kcal/mol  [=(1)+(2)+(3)-(4)]
DOCKED: USER    Estimated Inhibition Constant, Ki   =   28.54 nM (nanomolar)  [Temperature = 298.15 K]
DOCKED: USER    
DOCKED: USER    (1) Final Intermolecular Energy     =  -13.57 kcal/mol
DOCKED: USER        vdW + Hbond + desolv Energy     =  -13.57 kcal/mol
DOCKED: USER        Electrostatic Energy            =   +0.00 kcal/mol
DOCKED: USER    (2) Final Total Internal Energy     =   -2.25 kcal/mol
DOCKED: USER    (3) Torsional Free Energy           =   +3.28 kcal/mol
DOCKED: USER    (4) Unbound System's Energy  [=(2)] =   -2.25 kcal/mol
DOCKED: USER    
DOCKED: USER    
DOCKED: USER    NEWDPF move ligand.pdbqt
DOCKED: USER    NEWDPF about 0.460000 0.128000 -0.007000
DOCKED: USER    NEWDPF tran0 21.774879 -10.294512 -5.753431
DOCKED: USER    NEWDPF quaternion0 0.272425 0.693108 0.536265 0.397248
DOCKED: USER    NEWDPF axisangle0 0.296852 0.755257 0.584350 133.187442
DOCKED: USER    NEWDPF quat0 0.296852 0.755257 0.584350 133.187442
DOCKED: USER    NEWDPF dihe0 -133.29 -17.98 95.81 65.64 -66.69 82.53 -0.45 0.19 156.47 166.79 10.56 
DOCKED: USER  keepresnum = 1 
DOCKED: USER  
DOCKED: REMARK  Name = 
DOCKED: REMARK  11 active torsions:
DOCKED: REMARK  status: ('A' for Active; 'I' for Inactive)
DOCKED: REMARK    1  A    between atoms: C_2  and  C_5
DOCKED: REMARK    2  A    between atoms: N_3  and  O_4
DOCKED: REMARK    3  A    between atoms: C_6  and  C_7
DOCKED: REMARK    4  A    between atoms: C_10  and  C_11
DOCKED: REMARK    5  A    between atoms: C_11  and  N_12
DOCKED: REMARK    6  A    between atoms: N_12  and  C_13
DOCKED: REMARK    7  A    between atoms: N_12  and  C_16
DOCKED: REMARK    8  A    between atoms: C_13  and  C_14
DOCKED: REMARK    9  A    between atoms: C_14  and  O_15
DOCKED: REMARK   10  A    between atoms: C_16  and  C_17
DOCKED: REMARK   11  A    between atoms: C_17  and  C_18
DOCKED: REMARK                            x       y       z     vdW  Elec       q    Type
DOCKED: REMARK                         _______ _______ _______ _____ _____    ______ ____
DOCKED: USER                              x       y       z     vdW  Elec       q    Type
DOCKED: USER                           _______ _______ _______ _____ _____    ______ ____
DOCKED: ROOT
DOCKED: ATOM      1  N   UNL     1      21.278 -10.602  -7.197 -0.28 -0.00    +0.000 N 
DOCKED: ATOM      2  H   UNL     1      21.266 -11.404  -6.567 -0.25 -0.00    +0.000 HD
DOCKED: ENDROOT
DOCKED: BRANCH   1   3
DOCKED: ATOM      3  C   UNL     1      21.673  -9.409  -6.418 -0.27 -0.00    +0.000 C 
DOCKED: BRANCH   3   7
DOCKED: ATOM      4  C   UNL     1      20.832  -9.991  -2.212 -0.51 -0.00    +0.000 A 
DOCKED: ATOM      5  C   UNL     1      21.638 -10.905  -2.911 -0.21 -0.00    +0.000 A 
DOCKED: ATOM      6  C   UNL     1      21.904 -10.725  -4.271 -0.31 -0.00    +0.000 A 
DOCKED: ATOM      7  C   UNL     1      21.376  -9.622  -4.957 -0.33 -0.00    +0.000 A 
DOCKED: ATOM      8  C   UNL     1      20.588  -8.695  -4.260 -0.29 -0.00    +0.000 A 
DOCKED: ATOM      9  C   UNL     1      20.319  -8.873  -2.900 -0.32 -0.00    +0.000 A 
DOCKED: BRANCH   4  11
DOCKED: ATOM     10  C   UNL     1      19.734 -11.141  -0.294 -0.55 -0.00    +0.000 C 
DOCKED: ATOM     11  C   UNL     1      20.588 -10.222  -0.766 -0.64 -0.00    +0.000 C 
DOCKED: BRANCH  10  13
DOCKED: ATOM     12  O   UNL     1      18.508 -10.803   1.688 -0.59 -0.00    +0.000 OA
DOCKED: ATOM     13  C   UNL     1      19.497 -11.366   1.148 -0.66 -0.00    +0.000 C 
DOCKED: ATOM     14  N   UNL     1      20.334 -12.220   1.938 -0.71 -0.00    +0.000 N 
DOCKED: ATOM     15  H   UNL     1      21.046 -12.745   1.507 -0.54 -0.00    +0.000 HD
DOCKED: BRANCH  14  16
DOCKED: ATOM     16  O   UNL     1      20.146 -12.307   3.277 -1.00 -0.00    +0.000 OA
DOCKED: ATOM     17  H   UNL     1      21.002 -12.235   3.728 -0.59 -0.00    +0.000 HD
DOCKED: ENDBRANCH  14  16
DOCKED: ENDBRANCH  10  13
DOCKED: ENDBRANCH   4  11
DOCKED: ENDBRANCH   3   7
DOCKED: ENDBRANCH   1   3
DOCKED: BRANCH   1  18
DOCKED: ATOM     18  C   UNL     1      19.890 -10.482  -7.704 -0.28 -0.00    +0.000 C 
DOCKED: BRANCH  18  19
DOCKED: ATOM     19  C   UNL     1      18.882 -11.249  -6.833 -0.32 -0.00    +0.000 C 
DOCKED: BRANCH  19  20
DOCKED: ATOM     20  O   UNL     1      19.467 -11.665  -5.628 -0.51 -0.00    +0.000 OA
DOCKED: ATOM     21  H   UNL     1      20.006 -12.455  -5.786 -0.53 -0.00    +0.000 HD
DOCKED: ENDBRANCH  19  20
DOCKED: ENDBRANCH  18  19
DOCKED: ENDBRANCH   1  18
DOCKED: BRANCH   1  22
DOCKED: ATOM     22  C   UNL     1      22.282 -10.949  -8.231 -0.31 -0.00    +0.000 C 
DOCKED: BRANCH  22  23
DOCKED: ATOM     23  C   UNL     1      23.382 -11.913  -7.744 -0.50 -0.00    +0.000 C 
DOCKED: BRANCH  23  24
DOCKED: ATOM     24  C   UNL     1      24.227 -12.361  -8.897 -0.40 -0.00    +0.000 A 
DOCKED: ATOM     25  C   UNL     1      25.406 -11.770  -9.343 -0.33 -0.00    +0.000 A 
DOCKED: ATOM     26  N   UNL     1      25.855 -12.394 -10.456 -0.15 -0.00    +0.000 N 
DOCKED: ATOM     27  C   UNL     1      24.964 -13.363 -10.724 -0.26 -0.00    +0.000 A 
DOCKED: ATOM     28  C   UNL     1      23.952 -13.371  -9.798 -0.35 -0.00    +0.000 A 
DOCKED: ATOM     29  C   UNL     1      22.888 -14.270  -9.877 -0.35 +0.00    +0.000 A 
DOCKED: ATOM     30  C   UNL     1      22.885 -15.189 -10.943 -0.44 +0.00    +0.000 A 
DOCKED: ATOM     31  C   UNL     1      23.929 -15.186 -11.894 -0.27 +0.00    +0.000 A 
DOCKED: ATOM     32  C   UNL     1      24.985 -14.261 -11.790 -0.23 -0.00    +0.000 A 
DOCKED: ATOM     33  H   UNL     1      26.670 -12.181 -10.965 -0.29 -0.00    +0.000 HD
DOCKED: ENDBRANCH  23  24
DOCKED: ENDBRANCH  22  23
DOCKED: ENDBRANCH   1  22
DOCKED: TORSDOF 11
DOCKED: TER
DOCKED: ENDMDL
________________________________________________________________________________


	BEGINNING GENETIC ALGORITHM DOCKING 45 of 100
Run: 45 Seed: 683504148 1638079653 [ Run 45 of 100 GA/GALS ]
Beginning LAMARCKIAN GENETIC ALGORITHM (LGA), with a maximum of 2500000 energy evaluations.

Final-Value: -16.736


	FINAL GENETIC ALGORITHM DOCKED STATE
	_______________________________________________


Detailed state:  trans 18.780 -10.443 -0.853 quatxyzw -0.200486 0.619752 -0.738460 0.174329 center 0.460 0.128 -0.007 ntor 11 116.1443 -75.5177 -45.0278 -171.2023 -93.1454 -122.1282 -154.1903 97.9232 137.4611 -154.2615 1.2314
State:	 18.780 -10.443  -0.853  -0.204  0.629 -0.750 159.921    116.14  -75.52  -45.03 -171.20  -93.15 -122.13 -154.19   97.92  137.46 -154.26    1.23

DOCKED: MODEL       45
DOCKED: USER    Run = 45
DOCKED: USER    DPF = ligand_dock.biased.dpf
DOCKED: USER  
DOCKED: USER    Estimated Free Energy of Binding    =  -11.42 kcal/mol  [=(1)+(2)+(3)-(4)]
DOCKED: USER    Estimated Inhibition Constant, Ki   =    4.28 nM (nanomolar)  [Temperature = 298.15 K]
DOCKED: USER    
DOCKED: USER    (1) Final Intermolecular Energy     =  -14.70 kcal/mol
DOCKED: USER        vdW + Hbond + desolv Energy     =  -14.70 kcal/mol
DOCKED: USER        Electrostatic Energy            =   +0.00 kcal/mol
DOCKED: USER    (2) Final Total Internal Energy     =   -2.04 kcal/mol
DOCKED: USER    (3) Torsional Free Energy           =   +3.28 kcal/mol
DOCKED: USER    (4) Unbound System's Energy  [=(2)] =   -2.04 kcal/mol
DOCKED: USER    
DOCKED: USER    
DOCKED: USER    NEWDPF move ligand.pdbqt
DOCKED: USER    NEWDPF about 0.460000 0.128000 -0.007000
DOCKED: USER    NEWDPF tran0 18.779854 -10.443368 -0.853216
DOCKED: USER    NEWDPF quaternion0 -0.200486 0.619752 -0.738460 0.174329
DOCKED: USER    NEWDPF axisangle0 -0.203604 0.629389 -0.749943 159.920756
DOCKED: USER    NEWDPF quat0 -0.203604 0.629389 -0.749943 159.920756
DOCKED: USER    NEWDPF dihe0 116.14 -75.52 -45.03 -171.20 -93.15 -122.13 -154.19 97.92 137.46 -154.26 1.23 
DOCKED: USER  keepresnum = 1 
DOCKED: USER  
DOCKED: REMARK  Name = 
DOCKED: REMARK  11 active torsions:
DOCKED: REMARK  status: ('A' for Active; 'I' for Inactive)
DOCKED: REMARK    1  A    between atoms: C_2  and  C_5
DOCKED: REMARK    2  A    between atoms: N_3  and  O_4
DOCKED: REMARK    3  A    between atoms: C_6  and  C_7
DOCKED: REMARK    4  A    between atoms: C_10  and  C_11
DOCKED: REMARK    5  A    between atoms: C_11  and  N_12
DOCKED: REMARK    6  A    between atoms: N_12  and  C_13
DOCKED: REMARK    7  A    between atoms: N_12  and  C_16
DOCKED: REMARK    8  A    between atoms: C_13  and  C_14
DOCKED: REMARK    9  A    between atoms: C_14  and  O_15
DOCKED: REMARK   10  A    between atoms: C_16  and  C_17
DOCKED: REMARK   11  A    between atoms: C_17  and  C_18
DOCKED: REMARK                            x       y       z     vdW  Elec       q    Type
DOCKED: REMARK                         _______ _______ _______ _____ _____    ______ ____
DOCKED: USER                              x       y       z     vdW  Elec       q    Type
DOCKED: USER                           _______ _______ _______ _____ _____    ______ ____
DOCKED: ROOT
DOCKED: ATOM      1  N   UNL     1      20.212 -10.230  -0.281 -0.55 -0.00    +0.000 N 
DOCKED: ATOM      2  H   UNL     1      19.599  -9.418  -0.198 -0.02 -0.00    +0.000 HD
DOCKED: ENDROOT
DOCKED: BRANCH   1   3
DOCKED: ATOM      3  C   UNL     1      19.421 -11.351  -0.832 -0.41 -0.00    +0.000 C 
DOCKED: BRANCH   3   7
DOCKED: ATOM      4  C   UNL     1      15.315 -11.114   0.515 -0.31 +0.00    +0.000 A 
DOCKED: ATOM      5  C   UNL     1      15.692 -10.565  -0.722 -0.27 -0.00    +0.000 A 
DOCKED: ATOM      6  C   UNL     1      17.019 -10.632  -1.157 -0.26 -0.00    +0.000 A 
DOCKED: ATOM      7  C   UNL     1      17.993 -11.256  -0.365 -0.39 -0.00    +0.000 A 
DOCKED: ATOM      8  C   UNL     1      17.619 -11.824   0.861 -0.46 +0.00    +0.000 A 
DOCKED: ATOM      9  C   UNL     1      16.293 -11.758   1.299 -0.40 +0.00    +0.000 A 
DOCKED: BRANCH   4  11
DOCKED: ATOM     10  C   UNL     1      12.931 -11.837   0.459 -0.39 +0.00    +0.000 C 
DOCKED: ATOM     11  C   UNL     1      13.891 -11.025   0.925 -0.36 +0.00    +0.000 C 
DOCKED: BRANCH  10  13
DOCKED: ATOM     12  O   UNL     1      10.842 -10.751   0.487 -0.30 +0.00    +0.000 OA
DOCKED: ATOM     13  C   UNL     1      11.515 -11.743   0.872 -0.41 +0.00    +0.000 C 
DOCKED: ATOM     14  N   UNL     1      10.881 -12.753   1.668 -0.42 +0.00    +0.000 N 
DOCKED: ATOM     15  H   UNL     1      11.365 -13.581   1.888 -0.63 +0.00    +0.000 HD
DOCKED: BRANCH  14  16
DOCKED: ATOM     16  O   UNL     1       9.616 -12.570   2.118 -0.46 +0.00    +0.000 OA
DOCKED: ATOM     17  H   UNL     1       9.034 -13.239   1.724 -0.58 -0.00    +0.000 HD
DOCKED: ENDBRANCH  14  16
DOCKED: ENDBRANCH  10  13
DOCKED: ENDBRANCH   4  11
DOCKED: ENDBRANCH   3   7
DOCKED: ENDBRANCH   1   3
DOCKED: BRANCH   1  18
DOCKED: ATOM     18  C   UNL     1      20.671 -10.517   1.099 -0.66 -0.00    +0.000 C 
DOCKED: BRANCH  18  19
DOCKED: ATOM     19  C   UNL     1      20.742 -12.026   1.388 -0.67 -0.00    +0.000 C 
DOCKED: BRANCH  19  20
DOCKED: ATOM     20  O   UNL     1      20.071 -12.346   2.577 -1.42 -0.00    +0.000 OA
DOCKED: ATOM     21  H   UNL     1      20.605 -12.970   3.092 -0.56 -0.00    +0.000 HD
DOCKED: ENDBRANCH  19  20
DOCKED: ENDBRANCH  18  19
DOCKED: ENDBRANCH   1  18
DOCKED: BRANCH   1  22
DOCKED: ATOM     22  C   UNL     1      21.286  -9.798  -1.207 -0.65 -0.00    +0.000 C 
DOCKED: BRANCH  22  23
DOCKED: ATOM     23  C   UNL     1      20.777  -9.077  -2.472 -0.49 -0.00    +0.000 C 
DOCKED: BRANCH  23  24
DOCKED: ATOM     24  C   UNL     1      20.535 -10.066  -3.571 -0.42 -0.00    +0.000 A 
DOCKED: ATOM     25  C   UNL     1      21.482 -10.897  -4.165 -0.46 -0.00    +0.000 A 
DOCKED: ATOM     26  N   UNL     1      20.923 -11.600  -5.177 -0.51 -0.00    +0.000 N 
DOCKED: ATOM     27  C   UNL     1      19.638 -11.210  -5.235 -0.42 -0.00    +0.000 A 
DOCKED: ATOM     28  C   UNL     1      19.365 -10.270  -4.275 -0.32 -0.00    +0.000 A 
DOCKED: ATOM     29  C   UNL     1      18.102  -9.689  -4.152 -0.23 -0.00    +0.000 A 
DOCKED: ATOM     30  C   UNL     1      17.099 -10.107  -5.045 -0.21 -0.00    +0.000 A 
DOCKED: ATOM     31  C   UNL     1      17.377 -11.078  -6.032 -0.30 -0.00    +0.000 A 
DOCKED: ATOM     32  C   UNL     1      18.664 -11.641  -6.135 -0.25 -0.00    +0.000 A 
DOCKED: ATOM     33  H   UNL     1      21.368 -12.263  -5.752 -0.52 -0.00    +0.000 HD
DOCKED: ENDBRANCH  23  24
DOCKED: ENDBRANCH  22  23
DOCKED: ENDBRANCH   1  22
DOCKED: TORSDOF 11
DOCKED: TER
DOCKED: ENDMDL
________________________________________________________________________________


	BEGINNING GENETIC ALGORITHM DOCKING 46 of 100
Run: 46 Seed: 120710118 589506729 [ Run 46 of 100 GA/GALS ]
Beginning LAMARCKIAN GENETIC ALGORITHM (LGA), with a maximum of 2500000 energy evaluations.

Final-Value: -14.591


	FINAL GENETIC ALGORITHM DOCKED STATE
	_______________________________________________


Detailed state:  trans 15.255 -11.308 1.194 quatxyzw -0.407739 0.299440 -0.361277 0.783303 center 0.460 0.128 -0.007 ntor 11 -5.4638 175.4003 -159.3794 54.7623 119.2114 -7.1408 -169.8212 -97.0351 -175.5794 -28.6240 32.9387
State:	 15.255 -11.308   1.194  -0.656  0.482 -0.581 76.872     -5.46  175.40 -159.38   54.76  119.21   -7.14 -169.82  -97.04 -175.58  -28.62   32.94

DOCKED: MODEL       46
DOCKED: USER    Run = 46
DOCKED: USER    DPF = ligand_dock.biased.dpf
DOCKED: USER  
DOCKED: USER    Estimated Free Energy of Binding    =   -8.99 kcal/mol  [=(1)+(2)+(3)-(4)]
DOCKED: USER    Estimated Inhibition Constant, Ki   =  255.09 nM (nanomolar)  [Temperature = 298.15 K]
DOCKED: USER    
DOCKED: USER    (1) Final Intermolecular Energy     =  -12.28 kcal/mol
DOCKED: USER        vdW + Hbond + desolv Energy     =  -12.28 kcal/mol
DOCKED: USER        Electrostatic Energy            =   +0.00 kcal/mol
DOCKED: USER    (2) Final Total Internal Energy     =   -2.32 kcal/mol
DOCKED: USER    (3) Torsional Free Energy           =   +3.28 kcal/mol
DOCKED: USER    (4) Unbound System's Energy  [=(2)] =   -2.32 kcal/mol
DOCKED: USER    
DOCKED: USER    
DOCKED: USER    NEWDPF move ligand.pdbqt
DOCKED: USER    NEWDPF about 0.460000 0.128000 -0.007000
DOCKED: USER    NEWDPF tran0 15.254591 -11.307605 1.194050
DOCKED: USER    NEWDPF quaternion0 -0.407739 0.299440 -0.361277 0.783303
DOCKED: USER    NEWDPF axisangle0 -0.655909 0.481693 -0.581167 76.872003
DOCKED: USER    NEWDPF quat0 -0.655909 0.481693 -0.581167 76.872003
DOCKED: USER    NEWDPF dihe0 -5.46 175.40 -159.38 54.76 119.21 -7.14 -169.82 -97.04 -175.58 -28.62 32.94 
DOCKED: USER  keepresnum = 1 
DOCKED: USER  
DOCKED: REMARK  Name = 
DOCKED: REMARK  11 active torsions:
DOCKED: REMARK  status: ('A' for Active; 'I' for Inactive)
DOCKED: REMARK    1  A    between atoms: C_2  and  C_5
DOCKED: REMARK    2  A    between atoms: N_3  and  O_4
DOCKED: REMARK    3  A    between atoms: C_6  and  C_7
DOCKED: REMARK    4  A    between atoms: C_10  and  C_11
DOCKED: REMARK    5  A    between atoms: C_11  and  N_12
DOCKED: REMARK    6  A    between atoms: N_12  and  C_13
DOCKED: REMARK    7  A    between atoms: N_12  and  C_16
DOCKED: REMARK    8  A    between atoms: C_13  and  C_14
DOCKED: REMARK    9  A    between atoms: C_14  and  O_15
DOCKED: REMARK   10  A    between atoms: C_16  and  C_17
DOCKED: REMARK   11  A    between atoms: C_17  and  C_18
DOCKED: REMARK                            x       y       z     vdW  Elec       q    Type
DOCKED: REMARK                         _______ _______ _______ _____ _____    ______ ____
DOCKED: USER                              x       y       z     vdW  Elec       q    Type
DOCKED: USER                           _______ _______ _______ _____ _____    ______ ____
DOCKED: ROOT
DOCKED: ATOM      1  N   UNL     1      15.742 -12.107  -0.050 -0.42 +0.00    +0.000 N 
DOCKED: ATOM      2  H   UNL     1      16.128 -11.166   0.024 +0.00 +0.00    +0.000 HD
DOCKED: ENDROOT
DOCKED: BRANCH   1   3
DOCKED: ATOM      3  C   UNL     1      14.934 -12.371   1.160 -0.48 +0.00    +0.000 C 
DOCKED: BRANCH   3   7
DOCKED: ATOM      4  C   UNL     1      15.085  -8.939   3.791 -0.35 +0.00    +0.000 A 
DOCKED: ATOM      5  C   UNL     1      15.142 -10.241   4.315 -0.43 +0.00    +0.000 A 
DOCKED: ATOM      6  C   UNL     1      15.085 -11.353   3.469 -0.42 +0.00    +0.000 A 
DOCKED: ATOM      7  C   UNL     1      14.977 -11.181   2.081 -0.40 +0.00    +0.000 A 
DOCKED: ATOM      8  C   UNL     1      14.940  -9.884   1.551 -0.26 +0.00    +0.000 A 
DOCKED: ATOM      9  C   UNL     1      14.996  -8.771   2.395 -0.28 +0.00    +0.000 A 
DOCKED: BRANCH   4  11
DOCKED: ATOM     10  C   UNL     1      14.853  -6.533   4.395 -0.41 +0.00    +0.000 C 
DOCKED: ATOM     11  C   UNL     1      15.160  -7.793   4.732 -0.29 +0.00    +0.000 C 
DOCKED: BRANCH  10  13
DOCKED: ATOM     12  O   UNL     1      14.007  -5.255   6.182 -1.05 +0.00    +0.000 OA
DOCKED: ATOM     13  C   UNL     1      14.929  -5.396   5.337 -0.47 +0.00    +0.000 C 
DOCKED: ATOM     14  N   UNL     1      16.027  -4.474   5.337 -0.50 -0.00    +0.000 N 
DOCKED: ATOM     15  H   UNL     1      16.802  -4.633   4.752 -0.52 -0.00    +0.000 HD
DOCKED: BRANCH  14  16
DOCKED: ATOM     16  O   UNL     1      16.000  -3.384   6.141 -0.65 +0.00    +0.000 OA
DOCKED: ATOM     17  H   UNL     1      15.138  -3.330   6.582 -0.15 +0.00    +0.000 HD
DOCKED: ENDBRANCH  14  16
DOCKED: ENDBRANCH  10  13
DOCKED: ENDBRANCH   4  11
DOCKED: ENDBRANCH   3   7
DOCKED: ENDBRANCH   1   3
DOCKED: BRANCH   1  18
DOCKED: ATOM     18  C   UNL     1      16.916 -13.008  -0.126 -0.52 +0.00    +0.000 C 
DOCKED: BRANCH  18  19
DOCKED: ATOM     19  C   UNL     1      18.240 -12.261   0.101 -0.53 -0.00    +0.000 C 
DOCKED: BRANCH  19  20
DOCKED: ATOM     20  O   UNL     1      18.884 -12.712   1.263 -0.99 -0.00    +0.000 OA
DOCKED: ATOM     21  H   UNL     1      19.718 -13.145   1.023 -0.57 -0.00    +0.000 HD
DOCKED: ENDBRANCH  19  20
DOCKED: ENDBRANCH  18  19
DOCKED: ENDBRANCH   1  18
DOCKED: BRANCH   1  22
DOCKED: ATOM     22  C   UNL     1      14.911 -12.077  -1.278 -0.41 +0.00    +0.000 C 
DOCKED: BRANCH  22  23
DOCKED: ATOM     23  C   UNL     1      14.910 -10.719  -2.007 -0.32 -0.00    +0.000 C 
DOCKED: BRANCH  23  24
DOCKED: ATOM     24  C   UNL     1      16.209 -10.514  -2.725 -0.19 -0.00    +0.000 A 
DOCKED: ATOM     25  C   UNL     1      17.426 -10.146  -2.155 -0.07 -0.00    +0.000 A 
DOCKED: ATOM     26  N   UNL     1      18.364  -9.977  -3.114 -0.27 -0.00    +0.000 N 
DOCKED: ATOM     27  C   UNL     1      17.748 -10.219  -4.284 -0.24 -0.00    +0.000 A 
DOCKED: ATOM     28  C   UNL     1      16.430 -10.543  -4.088 -0.14 -0.00    +0.000 A 
DOCKED: ATOM     29  C   UNL     1      15.571 -10.811  -5.154 -0.22 -0.00    +0.000 A 
DOCKED: ATOM     30  C   UNL     1      16.104 -10.749  -6.456 -0.23 -0.00    +0.000 A 
DOCKED: ATOM     31  C   UNL     1      17.462 -10.419  -6.659 -0.24 -0.00    +0.000 A 
DOCKED: ATOM     32  C   UNL     1      18.301 -10.148  -5.561 -0.24 -0.00    +0.000 A 
DOCKED: ATOM     33  H   UNL     1      19.306  -9.727  -2.981 -0.01 -0.00    +0.000 HD
DOCKED: ENDBRANCH  23  24
DOCKED: ENDBRANCH  22  23
DOCKED: ENDBRANCH   1  22
DOCKED: TORSDOF 11
DOCKED: TER
DOCKED: ENDMDL
________________________________________________________________________________


	BEGINNING GENETIC ALGORITHM DOCKING 47 of 100
Run: 47 Seed: 1696319395 1181510197 [ Run 47 of 100 GA/GALS ]
Beginning LAMARCKIAN GENETIC ALGORITHM (LGA), with a maximum of 2500000 energy evaluations.

Final-Value: -14.860


	FINAL GENETIC ALGORITHM DOCKED STATE
	_______________________________________________


Detailed state:  trans 21.218 -9.193 -5.606 quatxyzw 0.726964 0.095928 0.660992 -0.159409 center 0.460 0.128 -0.007 ntor 11 6.5694 14.3959 54.3432 62.8673 43.1776 130.5626 -158.8105 144.4570 172.1806 -109.5560 23.7168
State:	 21.218  -9.193  -5.606   0.736  0.097  0.670 -161.655      6.57   14.40   54.34   62.87   43.18  130.56 -158.81  144.46  172.18 -109.56   23.72

DOCKED: MODEL       47
DOCKED: USER    Run = 47
DOCKED: USER    DPF = ligand_dock.biased.dpf
DOCKED: USER  
DOCKED: USER    Estimated Free Energy of Binding    =   -7.07 kcal/mol  [=(1)+(2)+(3)-(4)]
DOCKED: USER    Estimated Inhibition Constant, Ki   =    6.55 uM (micromolar)  [Temperature = 298.15 K]
DOCKED: USER    
DOCKED: USER    (1) Final Intermolecular Energy     =  -10.35 kcal/mol
DOCKED: USER        vdW + Hbond + desolv Energy     =  -10.35 kcal/mol
DOCKED: USER        Electrostatic Energy            =   +0.00 kcal/mol
DOCKED: USER    (2) Final Total Internal Energy     =   -4.51 kcal/mol
DOCKED: USER    (3) Torsional Free Energy           =   +3.28 kcal/mol
DOCKED: USER    (4) Unbound System's Energy  [=(2)] =   -4.51 kcal/mol
DOCKED: USER    
DOCKED: USER    
DOCKED: USER    NEWDPF move ligand.pdbqt
DOCKED: USER    NEWDPF about 0.460000 0.128000 -0.007000
DOCKED: USER    NEWDPF tran0 21.217943 -9.192685 -5.605875
DOCKED: USER    NEWDPF quaternion0 0.726964 0.095928 0.660992 -0.159409
DOCKED: USER    NEWDPF axisangle0 0.736380 0.097170 0.669554 -161.654767
DOCKED: USER    NEWDPF quat0 0.736380 0.097170 0.669554 -161.654767
DOCKED: USER    NEWDPF dihe0 6.57 14.40 54.34 62.87 43.18 130.56 -158.81 144.46 172.18 -109.56 23.72 
DOCKED: USER  keepresnum = 1 
DOCKED: USER  
DOCKED: REMARK  Name = 
DOCKED: REMARK  11 active torsions:
DOCKED: REMARK  status: ('A' for Active; 'I' for Inactive)
DOCKED: REMARK    1  A    between atoms: C_2  and  C_5
DOCKED: REMARK    2  A    between atoms: N_3  and  O_4
DOCKED: REMARK    3  A    between atoms: C_6  and  C_7
DOCKED: REMARK    4  A    between atoms: C_10  and  C_11
DOCKED: REMARK    5  A    between atoms: C_11  and  N_12
DOCKED: REMARK    6  A    between atoms: N_12  and  C_13
DOCKED: REMARK    7  A    between atoms: N_12  and  C_16
DOCKED: REMARK    8  A    between atoms: C_13  and  C_14
DOCKED: REMARK    9  A    between atoms: C_14  and  O_15
DOCKED: REMARK   10  A    between atoms: C_16  and  C_17
DOCKED: REMARK   11  A    between atoms: C_17  and  C_18
DOCKED: REMARK                            x       y       z     vdW  Elec       q    Type
DOCKED: REMARK                         _______ _______ _______ _____ _____    ______ ____
DOCKED: USER                              x       y       z     vdW  Elec       q    Type
DOCKED: USER                           _______ _______ _______ _____ _____    ______ ____
DOCKED: ROOT
DOCKED: ATOM      1  N   UNL     1      21.197  -8.360  -6.922 -0.11 -0.00    +0.000 N 
DOCKED: ATOM      2  H   UNL     1      20.423  -8.165  -6.286 +0.01 -0.00    +0.000 HD
DOCKED: ENDROOT
DOCKED: BRANCH   1   3
DOCKED: ATOM      3  C   UNL     1      22.113  -9.310  -6.254 -0.29 -0.00    +0.000 C 
DOCKED: BRANCH   3   7
DOCKED: ATOM      4  C   UNL     1      21.040  -9.739  -2.083 -0.52 -0.00    +0.000 A 
DOCKED: ATOM      5  C   UNL     1      21.426 -10.858  -2.839 -0.32 -0.00    +0.000 A 
DOCKED: ATOM      6  C   UNL     1      21.765 -10.726  -4.188 -0.43 -0.00    +0.000 A 
DOCKED: ATOM      7  C   UNL     1      21.731  -9.467  -4.806 -0.32 -0.00    +0.000 A 
DOCKED: ATOM      8  C   UNL     1      21.367  -8.343  -4.053 -0.32 -0.00    +0.000 A 
DOCKED: ATOM      9  C   UNL     1      21.027  -8.473  -2.703 -0.42 -0.00    +0.000 A 
DOCKED: BRANCH   4  11
DOCKED: ATOM     10  C   UNL     1      20.207 -11.074  -0.152 -0.59 -0.00    +0.000 C 
DOCKED: ATOM     11  C   UNL     1      20.701  -9.933  -0.652 -0.65 -0.00    +0.000 C 
DOCKED: BRANCH  10  13
DOCKED: ATOM     12  O   UNL     1      19.902 -12.426   1.752 -1.74 -0.00    +0.000 OA
DOCKED: ATOM     13  C   UNL     1      19.871 -11.260   1.275 -0.70 -0.00    +0.000 C 
DOCKED: ATOM     14  N   UNL     1      19.541 -10.161   2.134 -0.55 -0.00    +0.000 N 
DOCKED: ATOM     15  H   UNL     1      19.614  -9.238   1.800 -0.35 -0.00    +0.000 HD
DOCKED: BRANCH  14  16
DOCKED: ATOM     16  O   UNL     1      19.130 -10.390   3.405 -0.58 -0.00    +0.000 OA
DOCKED: ATOM     17  H   UNL     1      19.213 -11.335   3.605 -0.03 -0.00    +0.000 HD
DOCKED: ENDBRANCH  14  16
DOCKED: ENDBRANCH  10  13
DOCKED: ENDBRANCH   4  11
DOCKED: ENDBRANCH   3   7
DOCKED: ENDBRANCH   1   3
DOCKED: BRANCH   1  18
DOCKED: ATOM     18  C   UNL     1      21.851  -7.051  -7.157 -0.09 -0.00    +0.000 C 
DOCKED: BRANCH  18  19
DOCKED: ATOM     19  C   UNL     1      21.415  -5.989  -6.135 -0.10 -0.00    +0.000 C 
DOCKED: BRANCH  19  20
DOCKED: ATOM     20  O   UNL     1      20.105  -6.222  -5.690 -0.09 -0.00    +0.000 OA
DOCKED: ATOM     21  H   UNL     1      19.533  -6.407  -6.450 +0.00 -0.00    +0.000 HD
DOCKED: ENDBRANCH  19  20
DOCKED: ENDBRANCH  18  19
DOCKED: ENDBRANCH   1  18
DOCKED: BRANCH   1  22
DOCKED: ATOM     22  C   UNL     1      20.559  -8.952  -8.122 -0.12 -0.00    +0.000 C 
DOCKED: BRANCH  22  23
DOCKED: ATOM     23  C   UNL     1      19.079  -9.338  -7.925 -0.15 -0.00    +0.000 C 
DOCKED: BRANCH  23  24
DOCKED: ATOM     24  C   UNL     1      18.893 -10.028  -6.609 -0.22 -0.00    +0.000 A 
DOCKED: ATOM     25  C   UNL     1      19.409 -11.268  -6.240 -0.31 -0.00    +0.000 A 
DOCKED: ATOM     26  N   UNL     1      18.972 -11.612  -5.007 -0.41 -0.00    +0.000 N 
DOCKED: ATOM     27  C   UNL     1      18.176 -10.609  -4.601 -0.25 -0.00    +0.000 A 
DOCKED: ATOM     28  C   UNL     1      18.097  -9.627  -5.554 -0.18 -0.00    +0.000 A 
DOCKED: ATOM     29  C   UNL     1      17.306  -8.491  -5.378 -0.13 -0.00    +0.000 A 
DOCKED: ATOM     30  C   UNL     1      16.588  -8.373  -4.174 -0.11 -0.00    +0.000 A 
DOCKED: ATOM     31  C   UNL     1      16.672  -9.381  -3.189 -0.12 -0.00    +0.000 A 
DOCKED: ATOM     32  C   UNL     1      17.474 -10.519  -3.400 -0.11 -0.00    +0.000 A 
DOCKED: ATOM     33  H   UNL     1      19.194 -12.431  -4.508 -0.07 -0.00    +0.000 HD
DOCKED: ENDBRANCH  23  24
DOCKED: ENDBRANCH  22  23
DOCKED: ENDBRANCH   1  22
DOCKED: TORSDOF 11
DOCKED: TER
DOCKED: ENDMDL
________________________________________________________________________________


	BEGINNING GENETIC ALGORITHM DOCKING 48 of 100
Run: 48 Seed: 1051548934 1482114381 [ Run 48 of 100 GA/GALS ]
Beginning LAMARCKIAN GENETIC ALGORITHM (LGA), with a maximum of 2500000 energy evaluations.

Final-Value: -14.977


	FINAL GENETIC ALGORITHM DOCKED STATE
	_______________________________________________


Detailed state:  trans 20.755 -9.018 -4.919 quatxyzw 0.437434 -0.656680 0.005036 -0.614327 center 0.460 0.128 -0.007 ntor 11 79.8610 174.7308 -178.3180 80.0984 63.8478 139.5594 -161.5444 99.5584 167.5178 -23.3251 12.1273
State:	 20.755  -9.018  -4.919   0.554 -0.832  0.006 -104.194     79.86  174.73 -178.32   80.10   63.85  139.56 -161.54   99.56  167.52  -23.33   12.13

DOCKED: MODEL       48
DOCKED: USER    Run = 48
DOCKED: USER    DPF = ligand_dock.biased.dpf
DOCKED: USER  
DOCKED: USER    Estimated Free Energy of Binding    =   -9.29 kcal/mol  [=(1)+(2)+(3)-(4)]
DOCKED: USER    Estimated Inhibition Constant, Ki   =  153.71 nM (nanomolar)  [Temperature = 298.15 K]
DOCKED: USER    
DOCKED: USER    (1) Final Intermolecular Energy     =  -12.58 kcal/mol
DOCKED: USER        vdW + Hbond + desolv Energy     =  -12.58 kcal/mol
DOCKED: USER        Electrostatic Energy            =   +0.00 kcal/mol
DOCKED: USER    (2) Final Total Internal Energy     =   -2.40 kcal/mol
DOCKED: USER    (3) Torsional Free Energy           =   +3.28 kcal/mol
DOCKED: USER    (4) Unbound System's Energy  [=(2)] =   -2.40 kcal/mol
DOCKED: USER    
DOCKED: USER    
DOCKED: USER    NEWDPF move ligand.pdbqt
DOCKED: USER    NEWDPF about 0.460000 0.128000 -0.007000
DOCKED: USER    NEWDPF tran0 20.754534 -9.018119 -4.918648
DOCKED: USER    NEWDPF quaternion0 0.437434 -0.656680 0.005036 -0.614327
DOCKED: USER    NEWDPF axisangle0 0.554380 -0.832239 0.006383 -104.193973
DOCKED: USER    NEWDPF quat0 0.554380 -0.832239 0.006383 -104.193973
DOCKED: USER    NEWDPF dihe0 79.86 174.73 -178.32 80.10 63.85 139.56 -161.54 99.56 167.52 -23.33 12.13 
DOCKED: USER  keepresnum = 1 
DOCKED: USER  
DOCKED: REMARK  Name = 
DOCKED: REMARK  11 active torsions:
DOCKED: REMARK  status: ('A' for Active; 'I' for Inactive)
DOCKED: REMARK    1  A    between atoms: C_2  and  C_5
DOCKED: REMARK    2  A    between atoms: N_3  and  O_4
DOCKED: REMARK    3  A    between atoms: C_6  and  C_7
DOCKED: REMARK    4  A    between atoms: C_10  and  C_11
DOCKED: REMARK    5  A    between atoms: C_11  and  N_12
DOCKED: REMARK    6  A    between atoms: N_12  and  C_13
DOCKED: REMARK    7  A    between atoms: N_12  and  C_16
DOCKED: REMARK    8  A    between atoms: C_13  and  C_14
DOCKED: REMARK    9  A    between atoms: C_14  and  O_15
DOCKED: REMARK   10  A    between atoms: C_16  and  C_17
DOCKED: REMARK   11  A    between atoms: C_17  and  C_18
DOCKED: REMARK                            x       y       z     vdW  Elec       q    Type
DOCKED: REMARK                         _______ _______ _______ _____ _____    ______ ____
DOCKED: USER                              x       y       z     vdW  Elec       q    Type
DOCKED: USER                           _______ _______ _______ _____ _____    ______ ____
DOCKED: ROOT
DOCKED: ATOM      1  N   UNL     1      21.356  -9.250  -6.336 -0.21 -0.00    +0.000 N 
DOCKED: ATOM      2  H   UNL     1      22.048  -9.060  -5.610 -0.01 -0.00    +0.000 HD
DOCKED: ENDROOT
DOCKED: BRANCH   1   3
DOCKED: ATOM      3  C   UNL     1      20.026  -9.338  -5.695 -0.22 -0.00    +0.000 C 
DOCKED: BRANCH   3   7
DOCKED: ATOM      4  C   UNL     1      20.494 -10.238  -1.488 -0.52 -0.00    +0.000 A 
DOCKED: ATOM      5  C   UNL     1      19.545 -10.926  -2.263 -0.38 -0.00    +0.000 A 
DOCKED: ATOM      6  C   UNL     1      19.385 -10.632  -3.620 -0.37 -0.00    +0.000 A 
DOCKED: ATOM      7  C   UNL     1      20.177  -9.649  -4.230 -0.31 -0.00    +0.000 A 
DOCKED: ATOM      8  C   UNL     1      21.140  -8.974  -3.467 -0.38 -0.00    +0.000 A 
DOCKED: ATOM      9  C   UNL     1      21.302  -9.265  -2.109 -0.48 -0.00    +0.000 A 
DOCKED: BRANCH   4  11
DOCKED: ATOM     10  C   UNL     1      19.688 -11.243   0.645 -0.65 -0.00    +0.000 C 
DOCKED: ATOM     11  C   UNL     1      20.631 -10.596  -0.054 -0.68 -0.00    +0.000 C 
DOCKED: BRANCH  10  13
DOCKED: ATOM     12  O   UNL     1      19.538 -12.766   2.435 -1.24 -0.00    +0.000 OA
DOCKED: ATOM     13  C   UNL     1      19.832 -11.596   2.073 -0.75 -0.00    +0.000 C 
DOCKED: ATOM     14  N   UNL     1      20.320 -10.664   3.048 -0.68 -0.00    +0.000 N 
DOCKED: ATOM     15  H   UNL     1      20.649  -9.782   2.762 -0.57 -0.00    +0.000 HD
DOCKED: BRANCH  14  16
DOCKED: ATOM     16  O   UNL     1      20.327 -10.995   4.361 -0.72 -0.00    +0.000 OA
DOCKED: ATOM     17  H   UNL     1      21.095 -11.557   4.548 -0.35 -0.00    +0.000 HD
DOCKED: ENDBRANCH  14  16
DOCKED: ENDBRANCH  10  13
DOCKED: ENDBRANCH   4  11
DOCKED: ENDBRANCH   3   7
DOCKED: ENDBRANCH   1   3
DOCKED: BRANCH   1  18
DOCKED: ATOM     18  C   UNL     1      21.758 -10.548  -6.931 -0.35 -0.00    +0.000 C 
DOCKED: BRANCH  18  19
DOCKED: ATOM     19  C   UNL     1      22.421 -11.480  -5.904 -0.46 -0.00    +0.000 C 
DOCKED: BRANCH  19  20
DOCKED: ATOM     20  O   UNL     1      21.498 -12.398  -5.383 -0.80 -0.00    +0.000 OA
DOCKED: ATOM     21  H   UNL     1      21.741 -13.294  -5.661 -0.61 -0.00    +0.000 HD
DOCKED: ENDBRANCH  19  20
DOCKED: ENDBRANCH  18  19
DOCKED: ENDBRANCH   1  18
DOCKED: BRANCH   1  22
DOCKED: ATOM     22  C   UNL     1      21.453  -8.095  -7.260 -0.11 -0.00    +0.000 C 
DOCKED: BRANCH  22  23
DOCKED: ATOM     23  C   UNL     1      22.187  -6.874  -6.670 -0.12 -0.00    +0.000 C 
DOCKED: BRANCH  23  24
DOCKED: ATOM     24  C   UNL     1      21.219  -5.982  -5.956 -0.09 -0.00    +0.000 A 
DOCKED: ATOM     25  C   UNL     1      20.214  -5.212  -6.537 -0.04 -0.00    +0.000 A 
DOCKED: ATOM     26  N   UNL     1      19.585  -4.471  -5.596 -0.06 -0.00    +0.000 N 
DOCKED: ATOM     27  C   UNL     1      20.193  -4.753  -4.431 -0.13 -0.00    +0.000 A 
DOCKED: ATOM     28  C   UNL     1      21.200  -5.667  -4.611 -0.16 -0.00    +0.000 A 
DOCKED: ATOM     29  C   UNL     1      21.999  -6.101  -3.553 -0.20 -0.00    +0.000 A 
DOCKED: ATOM     30  C   UNL     1      21.734  -5.575  -2.274 -0.39 -0.00    +0.000 A 
DOCKED: ATOM     31  C   UNL     1      20.694  -4.638  -2.087 -0.35 -0.00    +0.000 A 
DOCKED: ATOM     32  C   UNL     1      19.910  -4.215  -3.177 -0.18 -0.00    +0.000 A 
DOCKED: ATOM     33  H   UNL     1      18.835  -3.850  -5.737 +0.00 -0.00    +0.000 HD
DOCKED: ENDBRANCH  23  24
DOCKED: ENDBRANCH  22  23
DOCKED: ENDBRANCH   1  22
DOCKED: TORSDOF 11
DOCKED: TER
DOCKED: ENDMDL
________________________________________________________________________________


	BEGINNING GENETIC ALGORITHM DOCKING 49 of 100
Run: 49 Seed: 68933242 1092016029 [ Run 49 of 100 GA/GALS ]
Beginning LAMARCKIAN GENETIC ALGORITHM (LGA), with a maximum of 2500000 energy evaluations.

Final-Value: -14.348


	FINAL GENETIC ALGORITHM DOCKED STATE
	_______________________________________________


Detailed state:  trans 22.685 -7.406 -4.380 quatxyzw -0.723832 -0.661737 0.075249 -0.180304 center 0.460 0.128 -0.007 ntor 11 166.2947 42.3790 49.9929 93.2385 -65.9893 167.2037 -115.1029 90.1450 -75.8195 9.9594 -179.9204
State:	 22.685  -7.406  -4.380  -0.736 -0.673  0.077 -159.225    166.29   42.38   49.99   93.24  -65.99  167.20 -115.10   90.15  -75.82    9.96 -179.92

DOCKED: MODEL       49
DOCKED: USER    Run = 49
DOCKED: USER    DPF = ligand_dock.biased.dpf
DOCKED: USER  
DOCKED: USER    Estimated Free Energy of Binding    =   -8.82 kcal/mol  [=(1)+(2)+(3)-(4)]
DOCKED: USER    Estimated Inhibition Constant, Ki   =  340.15 nM (nanomolar)  [Temperature = 298.15 K]
DOCKED: USER    
DOCKED: USER    (1) Final Intermolecular Energy     =  -12.11 kcal/mol
DOCKED: USER        vdW + Hbond + desolv Energy     =  -12.11 kcal/mol
DOCKED: USER        Electrostatic Energy            =   +0.00 kcal/mol
DOCKED: USER    (2) Final Total Internal Energy     =   -2.24 kcal/mol
DOCKED: USER    (3) Torsional Free Energy           =   +3.28 kcal/mol
DOCKED: USER    (4) Unbound System's Energy  [=(2)] =   -2.24 kcal/mol
DOCKED: USER    
DOCKED: USER    
DOCKED: USER    NEWDPF move ligand.pdbqt
DOCKED: USER    NEWDPF about 0.460000 0.128000 -0.007000
DOCKED: USER    NEWDPF tran0 22.684953 -7.406007 -4.379527
DOCKED: USER    NEWDPF quaternion0 -0.723832 -0.661737 0.075249 -0.180304
DOCKED: USER    NEWDPF axisangle0 -0.735893 -0.672762 0.076503 -159.225111
DOCKED: USER    NEWDPF quat0 -0.735893 -0.672762 0.076503 -159.225111
DOCKED: USER    NEWDPF dihe0 166.29 42.38 49.99 93.24 -65.99 167.20 -115.10 90.15 -75.82 9.96 -179.92 
DOCKED: USER  keepresnum = 1 
DOCKED: USER  
DOCKED: REMARK  Name = 
DOCKED: REMARK  11 active torsions:
DOCKED: REMARK  status: ('A' for Active; 'I' for Inactive)
DOCKED: REMARK    1  A    between atoms: C_2  and  C_5
DOCKED: REMARK    2  A    between atoms: N_3  and  O_4
DOCKED: REMARK    3  A    between atoms: C_6  and  C_7
DOCKED: REMARK    4  A    between atoms: C_10  and  C_11
DOCKED: REMARK    5  A    between atoms: C_11  and  N_12
DOCKED: REMARK    6  A    between atoms: N_12  and  C_13
DOCKED: REMARK    7  A    between atoms: N_12  and  C_16
DOCKED: REMARK    8  A    between atoms: C_13  and  C_14
DOCKED: REMARK    9  A    between atoms: C_14  and  O_15
DOCKED: REMARK   10  A    between atoms: C_16  and  C_17
DOCKED: REMARK   11  A    between atoms: C_17  and  C_18
DOCKED: REMARK                            x       y       z     vdW  Elec       q    Type
DOCKED: REMARK                         _______ _______ _______ _____ _____    ______ ____
DOCKED: USER                              x       y       z     vdW  Elec       q    Type
DOCKED: USER                           _______ _______ _______ _____ _____    ______ ____
DOCKED: ROOT
DOCKED: ATOM      1  N   UNL     1      21.424  -8.255  -4.044 -0.33 -0.00    +0.000 N 
DOCKED: ATOM      2  H   UNL     1      21.873  -7.828  -3.233 -0.04 -0.00    +0.000 HD
DOCKED: ENDROOT
DOCKED: BRANCH   1   3
DOCKED: ATOM      3  C   UNL     1      22.119  -7.782  -5.260 -0.20 -0.00    +0.000 C 
DOCKED: BRANCH   3   7
DOCKED: ATOM      4  C   UNL     1      22.117 -10.910  -8.251 -0.27 -0.00    +0.000 A 
DOCKED: ATOM      5  C   UNL     1      23.264 -10.663  -7.478 -0.33 -0.00    +0.000 A 
DOCKED: ATOM      6  C   UNL     1      23.272  -9.648  -6.517 -0.13 -0.00    +0.000 A 
DOCKED: ATOM      7  C   UNL     1      22.128  -8.865  -6.306 -0.22 -0.00    +0.000 A 
DOCKED: ATOM      8  C   UNL     1      20.974  -9.119  -7.059 -0.15 -0.00    +0.000 A 
DOCKED: ATOM      9  C   UNL     1      20.964 -10.133  -8.021 -0.21 -0.00    +0.000 A 
DOCKED: BRANCH   4  11
DOCKED: ATOM     10  C   UNL     1      23.169 -12.880  -9.355 -0.41 -0.00    +0.000 C 
DOCKED: ATOM     11  C   UNL     1      22.158 -12.006  -9.250 -0.24 -0.00    +0.000 C 
DOCKED: BRANCH  10  13
DOCKED: ATOM     12  O   UNL     1      23.843 -13.786 -11.421 -0.26 -0.00    +0.000 OA
DOCKED: ATOM     13  C   UNL     1      23.203 -13.970 -10.352 -0.45 -0.00    +0.000 C 
DOCKED: ATOM     14  N   UNL     1      22.558 -15.232 -10.131 -0.45 +0.00    +0.000 N 
DOCKED: ATOM     15  H   UNL     1      22.143 -15.425  -9.260 -0.62 +0.00    +0.000 HD
DOCKED: BRANCH  14  16
DOCKED: ATOM     16  O   UNL     1      22.519 -16.158 -11.119 -0.97 +0.00    +0.000 OA
DOCKED: ATOM     17  H   UNL     1      22.250 -17.013 -10.748 -0.36 +0.00    +0.000 HD
DOCKED: ENDBRANCH  14  16
DOCKED: ENDBRANCH  10  13
DOCKED: ENDBRANCH   4  11
DOCKED: ENDBRANCH   3   7
DOCKED: ENDBRANCH   1   3
DOCKED: BRANCH   1  18
DOCKED: ATOM     18  C   UNL     1      20.018  -7.784  -4.005 -0.25 -0.00    +0.000 C 
DOCKED: BRANCH  18  19
DOCKED: ATOM     19  C   UNL     1      19.916  -6.277  -3.722 -0.14 -0.00    +0.000 C 
DOCKED: BRANCH  19  20
DOCKED: ATOM     20  O   UNL     1      20.930  -5.855  -2.851 -0.36 -0.00    +0.000 OA
DOCKED: ATOM     21  H   UNL     1      21.298  -6.622  -2.386 -0.03 -0.00    +0.000 HD
DOCKED: ENDBRANCH  19  20
DOCKED: ENDBRANCH  18  19
DOCKED: ENDBRANCH   1  18
DOCKED: BRANCH   1  22
DOCKED: ATOM     22  C   UNL     1      21.588  -9.714  -3.841 -0.42 -0.00    +0.000 C 
DOCKED: BRANCH  22  23
DOCKED: ATOM     23  C   UNL     1      20.336 -10.419  -3.281 -0.49 -0.00    +0.000 C 
DOCKED: BRANCH  23  24
DOCKED: ATOM     24  C   UNL     1      20.462 -10.602  -1.799 -0.46 -0.00    +0.000 A 
DOCKED: ATOM     25  C   UNL     1      21.643 -10.624  -1.062 -0.47 -0.00    +0.000 A 
DOCKED: ATOM     26  N   UNL     1      21.381 -10.889   0.238 -0.66 -0.00    +0.000 N 
DOCKED: ATOM     27  C   UNL     1      20.049 -11.049   0.325 -0.58 -0.00    +0.000 A 
DOCKED: ATOM     28  C   UNL     1      19.454 -10.888  -0.899 -0.45 -0.00    +0.000 A 
DOCKED: ATOM     29  C   UNL     1      18.077 -11.033  -1.074 -0.35 -0.00    +0.000 A 
DOCKED: ATOM     30  C   UNL     1      17.303 -11.345   0.059 -0.38 -0.00    +0.000 A 
DOCKED: ATOM     31  C   UNL     1      17.914 -11.506   1.322 -0.46 -0.00    +0.000 A 
DOCKED: ATOM     32  C   UNL     1      19.307 -11.360   1.464 -0.58 -0.00    +0.000 A 
DOCKED: ATOM     33  H   UNL     1      22.034 -10.952   0.972 -0.41 -0.00    +0.000 HD
DOCKED: ENDBRANCH  23  24
DOCKED: ENDBRANCH  22  23
DOCKED: ENDBRANCH   1  22
DOCKED: TORSDOF 11
DOCKED: TER
DOCKED: ENDMDL
________________________________________________________________________________


	BEGINNING GENETIC ALGORITHM DOCKING 50 of 100
Run: 50 Seed: 782805729 1118485101 [ Run 50 of 100 GA/GALS ]
Beginning LAMARCKIAN GENETIC ALGORITHM (LGA), with a maximum of 2500000 energy evaluations.

Final-Value: -15.602


	FINAL GENETIC ALGORITHM DOCKED STATE
	_______________________________________________


Detailed state:  trans 21.308 -8.438 -5.326 quatxyzw 0.496778 0.144444 0.780473 0.351011 center 0.460 0.128 -0.007 ntor 11 48.3355 168.7087 104.4341 52.5277 -180.0000 151.4804 169.8427 -175.3510 167.2842 26.4085 -1.2022
State:	 21.308  -8.438  -5.326   0.531  0.154  0.834 138.902     48.34  168.71  104.43   52.53 -180.00  151.48  169.84 -175.35  167.28   26.41   -1.20

DOCKED: MODEL       50
DOCKED: USER    Run = 50
DOCKED: USER    DPF = ligand_dock.biased.dpf
DOCKED: USER  
DOCKED: USER    Estimated Free Energy of Binding    =   -8.52 kcal/mol  [=(1)+(2)+(3)-(4)]
DOCKED: USER    Estimated Inhibition Constant, Ki   =  564.05 nM (nanomolar)  [Temperature = 298.15 K]
DOCKED: USER    
DOCKED: USER    (1) Final Intermolecular Energy     =  -11.81 kcal/mol
DOCKED: USER        vdW + Hbond + desolv Energy     =  -11.81 kcal/mol
DOCKED: USER        Electrostatic Energy            =   +0.00 kcal/mol
DOCKED: USER    (2) Final Total Internal Energy     =   -3.80 kcal/mol
DOCKED: USER    (3) Torsional Free Energy           =   +3.28 kcal/mol
DOCKED: USER    (4) Unbound System's Energy  [=(2)] =   -3.80 kcal/mol
DOCKED: USER    
DOCKED: USER    
DOCKED: USER    NEWDPF move ligand.pdbqt
DOCKED: USER    NEWDPF about 0.460000 0.128000 -0.007000
DOCKED: USER    NEWDPF tran0 21.307885 -8.438497 -5.325723
DOCKED: USER    NEWDPF quaternion0 0.496778 0.144444 0.780473 0.351011
DOCKED: USER    NEWDPF axisangle0 0.530536 0.154259 0.833508 138.901661
DOCKED: USER    NEWDPF quat0 0.530536 0.154259 0.833508 138.901661
DOCKED: USER    NEWDPF dihe0 48.34 168.71 104.43 52.53 -180.00 151.48 169.84 -175.35 167.28 26.41 -1.20 
DOCKED: USER  keepresnum = 1 
DOCKED: USER  
DOCKED: REMARK  Name = 
DOCKED: REMARK  11 active torsions:
DOCKED: REMARK  status: ('A' for Active; 'I' for Inactive)
DOCKED: REMARK    1  A    between atoms: C_2  and  C_5
DOCKED: REMARK    2  A    between atoms: N_3  and  O_4
DOCKED: REMARK    3  A    between atoms: C_6  and  C_7
DOCKED: REMARK    4  A    between atoms: C_10  and  C_11
DOCKED: REMARK    5  A    between atoms: C_11  and  N_12
DOCKED: REMARK    6  A    between atoms: N_12  and  C_13
DOCKED: REMARK    7  A    between atoms: N_12  and  C_16
DOCKED: REMARK    8  A    between atoms: C_13  and  C_14
DOCKED: REMARK    9  A    between atoms: C_14  and  O_15
DOCKED: REMARK   10  A    between atoms: C_16  and  C_17
DOCKED: REMARK   11  A    between atoms: C_17  and  C_18
DOCKED: REMARK                            x       y       z     vdW  Elec       q    Type
DOCKED: REMARK                         _______ _______ _______ _____ _____    ______ ____
DOCKED: USER                              x       y       z     vdW  Elec       q    Type
DOCKED: USER                           _______ _______ _______ _____ _____    ______ ____
DOCKED: ROOT
DOCKED: ATOM      1  N   UNL     1      20.684  -7.179  -5.996 -0.10 -0.00    +0.000 N 
DOCKED: ATOM      2  H   UNL     1      20.041  -7.964  -5.892 +0.01 -0.00    +0.000 HD
DOCKED: ENDROOT
DOCKED: BRANCH   1   3
DOCKED: ATOM      3  C   UNL     1      21.961  -7.539  -5.342 -0.22 -0.00    +0.000 C 
DOCKED: BRANCH   3   7
DOCKED: ATOM      4  C   UNL     1      21.181  -9.982  -1.856 -0.54 -0.00    +0.000 A 
DOCKED: ATOM      5  C   UNL     1      21.134  -8.581  -1.770 -0.46 -0.00    +0.000 A 
DOCKED: ATOM      6  C   UNL     1      21.394  -7.788  -2.891 -0.38 -0.00    +0.000 A 
DOCKED: ATOM      7  C   UNL     1      21.698  -8.383  -4.123 -0.26 -0.00    +0.000 A 
DOCKED: ATOM      8  C   UNL     1      21.726  -9.781  -4.222 -0.35 -0.00    +0.000 A 
DOCKED: ATOM      9  C   UNL     1      21.468 -10.577  -3.101 -0.44 -0.00    +0.000 A 
DOCKED: BRANCH   4  11
DOCKED: ATOM     10  C   UNL     1      20.721 -10.241   0.579 -0.67 -0.00    +0.000 C 
DOCKED: ATOM     11  C   UNL     1      20.886 -10.778  -0.638 -0.60 -0.00    +0.000 C 
DOCKED: BRANCH  10  13
DOCKED: ATOM     12  O   UNL     1      20.012 -12.220   1.640 -1.71 -0.00    +0.000 OA
DOCKED: ATOM     13  C   UNL     1      20.427 -11.040   1.787 -0.73 -0.00    +0.000 C 
DOCKED: ATOM     14  N   UNL     1      20.625 -10.527   3.112 -0.64 -0.00    +0.000 N 
DOCKED: ATOM     15  H   UNL     1      21.045  -9.647   3.239 -0.60 -0.00    +0.000 HD
DOCKED: BRANCH  14  16
DOCKED: ATOM     16  O   UNL     1      20.236 -11.253   4.188 -0.80 -0.00    +0.000 OA
DOCKED: ATOM     17  H   UNL     1      20.560 -12.163   4.097 -0.46 -0.00    +0.000 HD
DOCKED: ENDBRANCH  14  16
DOCKED: ENDBRANCH  10  13
DOCKED: ENDBRANCH   4  11
DOCKED: ENDBRANCH   3   7
DOCKED: ENDBRANCH   1   3
DOCKED: BRANCH   1  18
DOCKED: ATOM     18  C   UNL     1      20.027  -6.040  -5.312 -0.12 -0.00    +0.000 C 
DOCKED: BRANCH  18  19
DOCKED: ATOM     19  C   UNL     1      18.720  -6.453  -4.616 -0.08 -0.00    +0.000 C 
DOCKED: BRANCH  19  20
DOCKED: ATOM     20  O   UNL     1      18.678  -7.838  -4.397 -0.20 -0.00    +0.000 OA
DOCKED: ATOM     21  H   UNL     1      18.794  -8.021  -3.452 -0.01 -0.00    +0.000 HD
DOCKED: ENDBRANCH  19  20
DOCKED: ENDBRANCH  18  19
DOCKED: ENDBRANCH   1  18
DOCKED: BRANCH   1  22
DOCKED: ATOM     22  C   UNL     1      20.838  -7.010  -7.461 -0.06 -0.00    +0.000 C 
DOCKED: BRANCH  22  23
DOCKED: ATOM     23  C   UNL     1      20.373  -8.225  -8.289 -0.07 -0.00    +0.000 C 
DOCKED: BRANCH  23  24
DOCKED: ATOM     24  C   UNL     1      19.953  -9.341  -7.383 -0.15 -0.00    +0.000 A 
DOCKED: ATOM     25  C   UNL     1      20.725 -10.435  -6.998 -0.26 -0.00    +0.000 A 
DOCKED: ATOM     26  N   UNL     1      19.995 -11.282  -6.238 -0.33 -0.00    +0.000 N 
DOCKED: ATOM     27  C   UNL     1      18.768 -10.741  -6.152 -0.31 -0.00    +0.000 A 
DOCKED: ATOM     28  C   UNL     1      18.701  -9.559  -6.843 -0.16 -0.00    +0.000 A 
DOCKED: ATOM     29  C   UNL     1      17.521  -8.820  -6.927 -0.08 -0.00    +0.000 A 
DOCKED: ATOM     30  C   UNL     1      16.385  -9.322  -6.264 -0.11 -0.00    +0.000 A 
DOCKED: ATOM     31  C   UNL     1      16.454 -10.537  -5.547 -0.22 -0.00    +0.000 A 
DOCKED: ATOM     32  C   UNL     1      17.658 -11.263  -5.488 -0.23 -0.00    +0.000 A 
DOCKED: ATOM     33  H   UNL     1      20.301 -12.124  -5.831 -0.46 -0.00    +0.000 HD
DOCKED: ENDBRANCH  23  24
DOCKED: ENDBRANCH  22  23
DOCKED: ENDBRANCH   1  22
DOCKED: TORSDOF 11
DOCKED: TER
DOCKED: ENDMDL
________________________________________________________________________________


	BEGINNING GENETIC ALGORITHM DOCKING 51 of 100
Run: 51 Seed: 1259775701 674803614 [ Run 51 of 100 GA/GALS ]
Beginning LAMARCKIAN GENETIC ALGORITHM (LGA), with a maximum of 2500000 energy evaluations.

Final-Value: -14.285


	FINAL GENETIC ALGORITHM DOCKED STATE
	_______________________________________________


Detailed state:  trans 20.229 -8.919 -4.861 quatxyzw -0.218681 -0.828566 -0.064018 0.511428 center 0.460 0.128 -0.007 ntor 11 -6.2724 -29.2540 63.3122 51.1645 -68.1139 -166.6707 -58.7635 33.0114 -178.9831 179.9936 85.4764
State:	 20.229  -8.919  -4.861  -0.254 -0.964 -0.074 118.482     -6.27  -29.25   63.31   51.16  -68.11 -166.67  -58.76   33.01 -178.98  179.99   85.48

DOCKED: MODEL       51
DOCKED: USER    Run = 51
DOCKED: USER    DPF = ligand_dock.biased.dpf
DOCKED: USER  
DOCKED: USER    Estimated Free Energy of Binding    =   -8.36 kcal/mol  [=(1)+(2)+(3)-(4)]
DOCKED: USER    Estimated Inhibition Constant, Ki   =  743.33 nM (nanomolar)  [Temperature = 298.15 K]
DOCKED: USER    
DOCKED: USER    (1) Final Intermolecular Energy     =  -11.64 kcal/mol
DOCKED: USER        vdW + Hbond + desolv Energy     =  -11.64 kcal/mol
DOCKED: USER        Electrostatic Energy            =   +0.00 kcal/mol
DOCKED: USER    (2) Final Total Internal Energy     =   -2.64 kcal/mol
DOCKED: USER    (3) Torsional Free Energy           =   +3.28 kcal/mol
DOCKED: USER    (4) Unbound System's Energy  [=(2)] =   -2.64 kcal/mol
DOCKED: USER    
DOCKED: USER    
DOCKED: USER    NEWDPF move ligand.pdbqt
DOCKED: USER    NEWDPF about 0.460000 0.128000 -0.007000
DOCKED: USER    NEWDPF tran0 20.228737 -8.918917 -4.861411
DOCKED: USER    NEWDPF quaternion0 -0.218681 -0.828566 -0.064018 0.511428
DOCKED: USER    NEWDPF axisangle0 -0.254480 -0.964204 -0.074497 118.482076
DOCKED: USER    NEWDPF quat0 -0.254480 -0.964204 -0.074497 118.482076
DOCKED: USER    NEWDPF dihe0 -6.27 -29.25 63.31 51.16 -68.11 -166.67 -58.76 33.01 -178.98 179.99 85.48 
DOCKED: USER  keepresnum = 1 
DOCKED: USER  
DOCKED: REMARK  Name = 
DOCKED: REMARK  11 active torsions:
DOCKED: REMARK  status: ('A' for Active; 'I' for Inactive)
DOCKED: REMARK    1  A    between atoms: C_2  and  C_5
DOCKED: REMARK    2  A    between atoms: N_3  and  O_4
DOCKED: REMARK    3  A    between atoms: C_6  and  C_7
DOCKED: REMARK    4  A    between atoms: C_10  and  C_11
DOCKED: REMARK    5  A    between atoms: C_11  and  N_12
DOCKED: REMARK    6  A    between atoms: N_12  and  C_13
DOCKED: REMARK    7  A    between atoms: N_12  and  C_16
DOCKED: REMARK    8  A    between atoms: C_13  and  C_14
DOCKED: REMARK    9  A    between atoms: C_14  and  O_15
DOCKED: REMARK   10  A    between atoms: C_16  and  C_17
DOCKED: REMARK   11  A    between atoms: C_17  and  C_18
DOCKED: REMARK                            x       y       z     vdW  Elec       q    Type
DOCKED: REMARK                         _______ _______ _______ _____ _____    ______ ____
DOCKED: USER                              x       y       z     vdW  Elec       q    Type
DOCKED: USER                           _______ _______ _______ _____ _____    ______ ____
DOCKED: ROOT
DOCKED: ATOM      1  N   UNL     1      20.208 -10.434  -4.502 -0.36 -0.00    +0.000 N 
DOCKED: ATOM      2  H   UNL     1      19.286  -9.998  -4.548 +0.00 -0.00    +0.000 HD
DOCKED: ENDROOT
DOCKED: BRANCH   1   3
DOCKED: ATOM      3  C   UNL     1      21.213  -9.433  -4.919 -0.35 -0.00    +0.000 C 
DOCKED: BRANCH   3   7
DOCKED: ATOM      4  C   UNL     1      20.716  -5.758  -2.688 -0.32 -0.00    +0.000 A 
DOCKED: ATOM      5  C   UNL     1      21.172  -6.923  -2.049 -0.41 -0.00    +0.000 A 
DOCKED: ATOM      6  C   UNL     1      21.325  -8.114  -2.764 -0.40 -0.00    +0.000 A 
DOCKED: ATOM      7  C   UNL     1      21.033  -8.160  -4.135 -0.30 -0.00    +0.000 A 
DOCKED: ATOM      8  C   UNL     1      20.597  -6.995  -4.782 -0.18 -0.00    +0.000 A 
DOCKED: ATOM      9  C   UNL     1      20.442  -5.803  -4.069 -0.19 -0.00    +0.000 A 
DOCKED: BRANCH   4  11
DOCKED: ATOM     10  C   UNL     1      21.399  -4.191  -0.875 -0.32 +0.00    +0.000 C 
DOCKED: ATOM     11  C   UNL     1      20.580  -4.516  -1.885 -0.39 -0.00    +0.000 C 
DOCKED: BRANCH  10  13
DOCKED: ATOM     12  O   UNL     1      20.618  -3.004   1.003 -1.07 +0.00    +0.000 OA
DOCKED: ATOM     13  C   UNL     1      21.259  -2.953  -0.080 -0.43 +0.00    +0.000 C 
DOCKED: ATOM     14  N   UNL     1      21.848  -1.710  -0.486 -0.24 -0.00    +0.000 N 
DOCKED: ATOM     15  H   UNL     1      22.436  -1.680  -1.274 +0.00 -0.00    +0.000 HD
DOCKED: BRANCH  14  16
DOCKED: ATOM     16  O   UNL     1      21.598  -0.577   0.214 -0.23 -0.00    +0.000 OA
DOCKED: ATOM     17  H   UNL     1      20.929  -0.759   0.892 +0.00 -0.00    +0.000 HD
DOCKED: ENDBRANCH  14  16
DOCKED: ENDBRANCH  10  13
DOCKED: ENDBRANCH   4  11
DOCKED: ENDBRANCH   3   7
DOCKED: ENDBRANCH   1   3
DOCKED: BRANCH   1  18
DOCKED: ATOM     18  C   UNL     1      20.152 -11.573  -5.449 -0.43 -0.00    +0.000 C 
DOCKED: BRANCH  18  19
DOCKED: ATOM     19  C   UNL     1      18.811 -11.644  -6.197 -0.27 -0.00    +0.000 C 
DOCKED: BRANCH  19  20
DOCKED: ATOM     20  O   UNL     1      17.807 -10.952  -5.505 -0.34 -0.00    +0.000 OA
DOCKED: ATOM     21  H   UNL     1      17.361 -11.556  -4.892 -0.02 -0.00    +0.000 HD
DOCKED: ENDBRANCH  19  20
DOCKED: ENDBRANCH  18  19
DOCKED: ENDBRANCH   1  18
DOCKED: BRANCH   1  22
DOCKED: ATOM     22  C   UNL     1      20.368 -10.824  -3.080 -0.47 -0.00    +0.000 C 
DOCKED: BRANCH  22  23
DOCKED: ATOM     23  C   UNL     1      19.194 -10.404  -2.174 -0.39 -0.00    +0.000 C 
DOCKED: BRANCH  23  24
DOCKED: ATOM     24  C   UNL     1      19.653 -10.279  -0.753 -0.39 -0.00    +0.000 A 
DOCKED: ATOM     25  C   UNL     1      20.905  -9.849  -0.319 -0.60 -0.00    +0.000 A 
DOCKED: ATOM     26  N   UNL     1      20.993  -9.939   1.027 -0.48 -0.00    +0.000 N 
DOCKED: ATOM     27  C   UNL     1      19.815 -10.435   1.445 -0.53 -0.00    +0.000 A 
DOCKED: ATOM     28  C   UNL     1      18.974 -10.662   0.387 -0.42 -0.00    +0.000 A 
DOCKED: ATOM     29  C   UNL     1      17.700 -11.203   0.561 -0.40 -0.00    +0.000 A 
DOCKED: ATOM     30  C   UNL     1      17.291 -11.505   1.874 -0.36 +0.00    +0.000 A 
DOCKED: ATOM     31  C   UNL     1      18.154 -11.267   2.965 -0.33 +0.00    +0.000 A 
DOCKED: ATOM     32  C   UNL     1      19.437 -10.727   2.755 -0.61 -0.00    +0.000 A 
DOCKED: ATOM     33  H   UNL     1      21.763  -9.691   1.588 -0.40 -0.00    +0.000 HD
DOCKED: ENDBRANCH  23  24
DOCKED: ENDBRANCH  22  23
DOCKED: ENDBRANCH   1  22
DOCKED: TORSDOF 11
DOCKED: TER
DOCKED: ENDMDL
________________________________________________________________________________


	BEGINNING GENETIC ALGORITHM DOCKING 52 of 100
Run: 52 Seed: 1038602930 1887749798 [ Run 52 of 100 GA/GALS ]
Beginning LAMARCKIAN GENETIC ALGORITHM (LGA), with a maximum of 2500000 energy evaluations.

Final-Value: -15.222


	FINAL GENETIC ALGORITHM DOCKED STATE
	_______________________________________________


Detailed state:  trans 20.815 -9.424 -6.384 quatxyzw 0.296643 0.722660 0.568118 0.258858 center 0.460 0.128 -0.007 ntor 11 -65.0734 127.9655 81.2032 41.9267 178.2633 100.1978 153.4873 36.0033 161.4962 178.3845 35.1291
State:	 20.815  -9.424  -6.384   0.307  0.748  0.588 149.995    -65.07  127.97   81.20   41.93  178.26  100.20  153.49   36.00  161.50  178.38   35.13

DOCKED: MODEL       52
DOCKED: USER    Run = 52
DOCKED: USER    DPF = ligand_dock.biased.dpf
DOCKED: USER  
DOCKED: USER    Estimated Free Energy of Binding    =   -9.30 kcal/mol  [=(1)+(2)+(3)-(4)]
DOCKED: USER    Estimated Inhibition Constant, Ki   =  151.96 nM (nanomolar)  [Temperature = 298.15 K]
DOCKED: USER    
DOCKED: USER    (1) Final Intermolecular Energy     =  -12.58 kcal/mol
DOCKED: USER        vdW + Hbond + desolv Energy     =  -12.58 kcal/mol
DOCKED: USER        Electrostatic Energy            =   +0.00 kcal/mol
DOCKED: USER    (2) Final Total Internal Energy     =   -2.64 kcal/mol
DOCKED: USER    (3) Torsional Free Energy           =   +3.28 kcal/mol
DOCKED: USER    (4) Unbound System's Energy  [=(2)] =   -2.64 kcal/mol
DOCKED: USER    
DOCKED: USER    
DOCKED: USER    NEWDPF move ligand.pdbqt
DOCKED: USER    NEWDPF about 0.460000 0.128000 -0.007000
DOCKED: USER    NEWDPF tran0 20.814723 -9.424199 -6.383757
DOCKED: USER    NEWDPF quaternion0 0.296643 0.722660 0.568118 0.258858
DOCKED: USER    NEWDPF axisangle0 0.307111 0.748161 0.588165 149.995395
DOCKED: USER    NEWDPF quat0 0.307111 0.748161 0.588165 149.995395
DOCKED: USER    NEWDPF dihe0 -65.07 127.97 81.20 41.93 178.26 100.20 153.49 36.00 161.50 178.38 35.13 
DOCKED: USER  keepresnum = 1 
DOCKED: USER  
DOCKED: REMARK  Name = 
DOCKED: REMARK  11 active torsions:
DOCKED: REMARK  status: ('A' for Active; 'I' for Inactive)
DOCKED: REMARK    1  A    between atoms: C_2  and  C_5
DOCKED: REMARK    2  A    between atoms: N_3  and  O_4
DOCKED: REMARK    3  A    between atoms: C_6  and  C_7
DOCKED: REMARK    4  A    between atoms: C_10  and  C_11
DOCKED: REMARK    5  A    between atoms: C_11  and  N_12
DOCKED: REMARK    6  A    between atoms: N_12  and  C_13
DOCKED: REMARK    7  A    between atoms: N_12  and  C_16
DOCKED: REMARK    8  A    between atoms: C_13  and  C_14
DOCKED: REMARK    9  A    between atoms: C_14  and  O_15
DOCKED: REMARK   10  A    between atoms: C_16  and  C_17
DOCKED: REMARK   11  A    between atoms: C_17  and  C_18
DOCKED: REMARK                            x       y       z     vdW  Elec       q    Type
DOCKED: REMARK                         _______ _______ _______ _____ _____    ______ ____
DOCKED: USER                              x       y       z     vdW  Elec       q    Type
DOCKED: USER                           _______ _______ _______ _____ _____    ______ ____
DOCKED: ROOT
DOCKED: ATOM      1  N   UNL     1      20.560  -9.781  -7.878 -0.18 -0.00    +0.000 N 
DOCKED: ATOM      2  H   UNL     1      20.267 -10.500  -7.216 -0.02 -0.00    +0.000 HD
DOCKED: ENDROOT
DOCKED: BRANCH   1   3
DOCKED: ATOM      3  C   UNL     1      21.022  -8.606  -7.108 -0.14 -0.00    +0.000 C 
DOCKED: BRANCH   3   7
DOCKED: ATOM      4  C   UNL     1      20.773  -9.381  -2.857 -0.44 -0.00    +0.000 A 
DOCKED: ATOM      5  C   UNL     1      21.689 -10.084  -3.657 -0.37 -0.00    +0.000 A 
DOCKED: ATOM      6  C   UNL     1      21.767  -9.843  -5.032 -0.35 -0.00    +0.000 A 
DOCKED: ATOM      7  C   UNL     1      20.934  -8.888  -5.631 -0.21 -0.00    +0.000 A 
DOCKED: ATOM      8  C   UNL     1      20.032  -8.168  -4.835 -0.19 -0.00    +0.000 A 
DOCKED: ATOM      9  C   UNL     1      19.952  -8.408  -3.460 -0.21 -0.00    +0.000 A 
DOCKED: BRANCH   4  11
DOCKED: ATOM     10  C   UNL     1      20.489 -10.880  -0.887 -0.54 -0.00    +0.000 C 
DOCKED: ATOM     11  C   UNL     1      20.739  -9.668  -1.401 -0.60 -0.00    +0.000 C 
DOCKED: BRANCH  10  13
DOCKED: ATOM     12  O   UNL     1      21.007 -10.337   1.345 -0.72 -0.00    +0.000 OA
DOCKED: ATOM     13  C   UNL     1      20.456 -11.158   0.564 -0.69 -0.00    +0.000 C 
DOCKED: ATOM     14  N   UNL     1      19.799 -12.310   1.110 -0.64 -0.00    +0.000 N 
DOCKED: ATOM     15  H   UNL     1      19.278 -12.903   0.521 -0.42 -0.00    +0.000 HD
DOCKED: BRANCH  14  16
DOCKED: ATOM     16  O   UNL     1      19.892 -12.584   2.433 -1.44 -0.00    +0.000 OA
DOCKED: ATOM     17  H   UNL     1      20.813 -12.792   2.656 -0.58 -0.00    +0.000 HD
DOCKED: ENDBRANCH  14  16
DOCKED: ENDBRANCH  10  13
DOCKED: ENDBRANCH   4  11
DOCKED: ENDBRANCH   3   7
DOCKED: ENDBRANCH   1   3
DOCKED: BRANCH   1  18
DOCKED: ATOM     18  C   UNL     1      19.351  -9.465  -8.675 -0.15 -0.00    +0.000 C 
DOCKED: BRANCH  18  19
DOCKED: ATOM     19  C   UNL     1      18.174 -10.396  -8.344 -0.23 -0.00    +0.000 C 
DOCKED: BRANCH  19  20
DOCKED: ATOM     20  O   UNL     1      18.550 -11.376  -7.414 -0.39 -0.00    +0.000 OA
DOCKED: ATOM     21  H   UNL     1      18.737 -10.957  -6.560 -0.02 -0.00    +0.000 HD
DOCKED: ENDBRANCH  19  20
DOCKED: ENDBRANCH  18  19
DOCKED: ENDBRANCH   1  18
DOCKED: BRANCH   1  22
DOCKED: ATOM     22  C   UNL     1      21.659 -10.407  -8.652 -0.23 -0.00    +0.000 C 
DOCKED: BRANCH  22  23
DOCKED: ATOM     23  C   UNL     1      22.350 -11.581  -7.931 -0.24 -0.00    +0.000 C 
DOCKED: BRANCH  23  24
DOCKED: ATOM     24  C   UNL     1      23.769 -11.713  -8.394 -0.38 -0.00    +0.000 A 
DOCKED: ATOM     25  C   UNL     1      24.312 -12.770  -9.119 -0.37 -0.00    +0.000 A 
DOCKED: ATOM     26  N   UNL     1      25.641 -12.589  -9.293 -0.30 -0.00    +0.000 N 
DOCKED: ATOM     27  C   UNL     1      25.944 -11.436  -8.673 -0.35 -0.00    +0.000 A 
DOCKED: ATOM     28  C   UNL     1      24.828 -10.875  -8.107 -0.35 -0.00    +0.000 A 
DOCKED: ATOM     29  C   UNL     1      24.890  -9.684  -7.381 -0.23 -0.00    +0.000 A 
DOCKED: ATOM     30  C   UNL     1      26.145  -9.060  -7.252 -0.31 -0.00    +0.000 A 
DOCKED: ATOM     31  C   UNL     1      27.294  -9.635  -7.839 -0.37 -0.00    +0.000 A 
DOCKED: ATOM     32  C   UNL     1      27.199 -10.840  -8.560 -0.36 -0.00    +0.000 A 
DOCKED: ATOM     33  H   UNL     1      26.260 -13.182  -9.777 -0.57 -0.00    +0.000 HD
DOCKED: ENDBRANCH  23  24
DOCKED: ENDBRANCH  22  23
DOCKED: ENDBRANCH   1  22
DOCKED: TORSDOF 11
DOCKED: TER
DOCKED: ENDMDL
________________________________________________________________________________


	BEGINNING GENETIC ALGORITHM DOCKING 53 of 100
Run: 53 Seed: 1880533836 721344089 [ Run 53 of 100 GA/GALS ]
Beginning LAMARCKIAN GENETIC ALGORITHM (LGA), with a maximum of 2500000 energy evaluations.

Final-Value: -15.695


	FINAL GENETIC ALGORITHM DOCKED STATE
	_______________________________________________


Detailed state:  trans 19.906 -11.133 -7.213 quatxyzw -0.339565 0.696244 0.625205 0.095176 center 0.460 0.128 -0.007 ntor 11 -143.9934 -160.3880 108.5514 6.3980 -94.7720 -60.3987 154.7015 -63.2009 -170.8336 -153.4978 105.6902
State:	 19.906 -11.133  -7.213  -0.341  0.699  0.628 169.077   -143.99 -160.39  108.55    6.40  -94.77  -60.40  154.70  -63.20 -170.83 -153.50  105.69

DOCKED: MODEL       53
DOCKED: USER    Run = 53
DOCKED: USER    DPF = ligand_dock.biased.dpf
DOCKED: USER  
DOCKED: USER    Estimated Free Energy of Binding    =  -10.07 kcal/mol  [=(1)+(2)+(3)-(4)]
DOCKED: USER    Estimated Inhibition Constant, Ki   =   41.86 nM (nanomolar)  [Temperature = 298.15 K]
DOCKED: USER    
DOCKED: USER    (1) Final Intermolecular Energy     =  -13.35 kcal/mol
DOCKED: USER        vdW + Hbond + desolv Energy     =  -13.35 kcal/mol
DOCKED: USER        Electrostatic Energy            =   +0.00 kcal/mol
DOCKED: USER    (2) Final Total Internal Energy     =   -2.35 kcal/mol
DOCKED: USER    (3) Torsional Free Energy           =   +3.28 kcal/mol
DOCKED: USER    (4) Unbound System's Energy  [=(2)] =   -2.35 kcal/mol
DOCKED: USER    
DOCKED: USER    
DOCKED: USER    NEWDPF move ligand.pdbqt
DOCKED: USER    NEWDPF about 0.460000 0.128000 -0.007000
DOCKED: USER    NEWDPF tran0 19.905755 -11.132796 -7.213210
DOCKED: USER    NEWDPF quaternion0 -0.339565 0.696244 0.625205 0.095176
DOCKED: USER    NEWDPF axisangle0 -0.341114 0.699419 0.628056 169.077075
DOCKED: USER    NEWDPF quat0 -0.341114 0.699419 0.628056 169.077075
DOCKED: USER    NEWDPF dihe0 -143.99 -160.39 108.55 6.40 -94.77 -60.40 154.70 -63.20 -170.83 -153.50 105.69 
DOCKED: USER  keepresnum = 1 
DOCKED: USER  
DOCKED: REMARK  Name = 
DOCKED: REMARK  11 active torsions:
DOCKED: REMARK  status: ('A' for Active; 'I' for Inactive)
DOCKED: REMARK    1  A    between atoms: C_2  and  C_5
DOCKED: REMARK    2  A    between atoms: N_3  and  O_4
DOCKED: REMARK    3  A    between atoms: C_6  and  C_7
DOCKED: REMARK    4  A    between atoms: C_10  and  C_11
DOCKED: REMARK    5  A    between atoms: C_11  and  N_12
DOCKED: REMARK    6  A    between atoms: N_12  and  C_13
DOCKED: REMARK    7  A    between atoms: N_12  and  C_16
DOCKED: REMARK    8  A    between atoms: C_13  and  C_14
DOCKED: REMARK    9  A    between atoms: C_14  and  O_15
DOCKED: REMARK   10  A    between atoms: C_16  and  C_17
DOCKED: REMARK   11  A    between atoms: C_17  and  C_18
DOCKED: REMARK                            x       y       z     vdW  Elec       q    Type
DOCKED: REMARK                         _______ _______ _______ _____ _____    ______ ____
DOCKED: USER                              x       y       z     vdW  Elec       q    Type
DOCKED: USER                           _______ _______ _______ _____ _____    ______ ____
DOCKED: ROOT
DOCKED: ATOM      1  N   UNL     1      21.054 -10.571  -8.103 -0.25 -0.00    +0.000 N 
DOCKED: ATOM      2  H   UNL     1      21.051 -11.587  -8.009 -0.39 -0.00    +0.000 HD
DOCKED: ENDROOT
DOCKED: BRANCH   1   3
DOCKED: ATOM      3  C   UNL     1      19.855 -10.041  -7.418 -0.24 -0.00    +0.000 C 
DOCKED: BRANCH   3   7
DOCKED: ATOM      4  C   UNL     1      20.285 -10.390  -3.126 -0.43 -0.00    +0.000 A 
DOCKED: ATOM      5  C   UNL     1      20.616  -9.192  -3.780 -0.35 -0.00    +0.000 A 
DOCKED: ATOM      6  C   UNL     1      20.487  -9.078  -5.167 -0.23 -0.00    +0.000 A 
DOCKED: ATOM      7  C   UNL     1      20.016 -10.160  -5.926 -0.27 -0.00    +0.000 A 
DOCKED: ATOM      8  C   UNL     1      19.665 -11.351  -5.276 -0.42 -0.00    +0.000 A 
DOCKED: ATOM      9  C   UNL     1      19.794 -11.468  -3.889 -0.37 -0.00    +0.000 A 
DOCKED: BRANCH   4  11
DOCKED: ATOM     10  C   UNL     1      19.558 -11.078  -0.844 -0.49 -0.00    +0.000 C 
DOCKED: ATOM     11  C   UNL     1      20.430 -10.456  -1.650 -0.56 -0.00    +0.000 C 
DOCKED: BRANCH  10  13
DOCKED: ATOM     12  O   UNL     1      19.578 -10.076   1.287 -0.62 -0.00    +0.000 OA
DOCKED: ATOM     13  C   UNL     1      19.710 -11.139   0.625 -0.65 -0.00    +0.000 C 
DOCKED: ATOM     14  N   UNL     1      19.972 -12.367   1.318 -0.68 -0.00    +0.000 N 
DOCKED: ATOM     15  H   UNL     1      19.975 -13.218   0.824 -0.58 -0.00    +0.000 HD
DOCKED: BRANCH  14  16
DOCKED: ATOM     16  O   UNL     1      20.216 -12.358   2.651 -1.36 -0.00    +0.000 OA
DOCKED: ATOM     17  H   UNL     1      20.878 -13.034   2.862 -0.60 -0.00    +0.000 HD
DOCKED: ENDBRANCH  14  16
DOCKED: ENDBRANCH  10  13
DOCKED: ENDBRANCH   4  11
DOCKED: ENDBRANCH   3   7
DOCKED: ENDBRANCH   1   3
DOCKED: BRANCH   1  18
DOCKED: ATOM     18  C   UNL     1      21.004 -10.312  -9.562 -0.17 -0.00    +0.000 C 
DOCKED: BRANCH  18  19
DOCKED: ATOM     19  C   UNL     1      21.913 -11.264 -10.355 -0.18 -0.00    +0.000 C 
DOCKED: BRANCH  19  20
DOCKED: ATOM     20  O   UNL     1      22.142 -12.453  -9.647 -0.35 -0.00    +0.000 OA
DOCKED: ATOM     21  H   UNL     1      22.104 -13.205 -10.257 -0.04 +0.00    +0.000 HD
DOCKED: ENDBRANCH  19  20
DOCKED: ENDBRANCH  18  19
DOCKED: ENDBRANCH   1  18
DOCKED: BRANCH   1  22
DOCKED: ATOM     22  C   UNL     1      22.309 -10.136  -7.445 -0.29 -0.00    +0.000 C 
DOCKED: BRANCH  22  23
DOCKED: ATOM     23  C   UNL     1      23.213 -11.295  -6.979 -0.44 -0.00    +0.000 C 
DOCKED: BRANCH  23  24
DOCKED: ATOM     24  C   UNL     1      24.430 -11.386  -7.849 -0.39 -0.00    +0.000 A 
DOCKED: ATOM     25  C   UNL     1      24.743 -12.414  -8.734 -0.40 -0.00    +0.000 A 
DOCKED: ATOM     26  N   UNL     1      25.957 -12.201  -9.292 -0.27 -0.00    +0.000 N 
DOCKED: ATOM     27  C   UNL     1      26.418 -11.058  -8.756 -0.35 -0.00    +0.000 A 
DOCKED: ATOM     28  C   UNL     1      25.516 -10.534  -7.866 -0.33 -0.00    +0.000 A 
DOCKED: ATOM     29  C   UNL     1      25.778  -9.361  -7.156 -0.25 -0.00    +0.000 A 
DOCKED: ATOM     30  C   UNL     1      27.007  -8.715  -7.389 -0.31 -0.00    +0.000 A 
DOCKED: ATOM     31  C   UNL     1      27.934  -9.251  -8.309 -0.27 -0.00    +0.000 A 
DOCKED: ATOM     32  C   UNL     1      27.643 -10.440  -9.005 -0.33 -0.00    +0.000 A 
DOCKED: ATOM     33  H   UNL     1      26.411 -12.769  -9.955 -0.48 -0.00    +0.000 HD
DOCKED: ENDBRANCH  23  24
DOCKED: ENDBRANCH  22  23
DOCKED: ENDBRANCH   1  22
DOCKED: TORSDOF 11
DOCKED: TER
DOCKED: ENDMDL
________________________________________________________________________________


	BEGINNING GENETIC ALGORITHM DOCKING 54 of 100
Run: 54 Seed: 955645184 1559504922 [ Run 54 of 100 GA/GALS ]
Beginning LAMARCKIAN GENETIC ALGORITHM (LGA), with a maximum of 2500000 energy evaluations.

Final-Value: -15.180


	FINAL GENETIC ALGORITHM DOCKED STATE
	_______________________________________________


Detailed state:  trans 18.773 -11.166 -0.525 quatxyzw 0.405055 -0.303249 -0.076074 0.859176 center 0.460 0.128 -0.007 ntor 11 -0.3268 -77.9940 180.0000 169.0222 96.2601 170.8300 179.5439 57.9835 176.9588 -176.8554 12.6844
State:	 18.773 -11.166  -0.525   0.792 -0.593 -0.149 61.552     -0.33  -77.99  180.00  169.02   96.26  170.83  179.54   57.98  176.96 -176.86   12.68

DOCKED: MODEL       54
DOCKED: USER    Run = 54
DOCKED: USER    DPF = ligand_dock.biased.dpf
DOCKED: USER  
DOCKED: USER    Estimated Free Energy of Binding    =   -9.59 kcal/mol  [=(1)+(2)+(3)-(4)]
DOCKED: USER    Estimated Inhibition Constant, Ki   =   93.86 nM (nanomolar)  [Temperature = 298.15 K]
DOCKED: USER    
DOCKED: USER    (1) Final Intermolecular Energy     =  -12.87 kcal/mol
DOCKED: USER        vdW + Hbond + desolv Energy     =  -12.87 kcal/mol
DOCKED: USER        Electrostatic Energy            =   +0.00 kcal/mol
DOCKED: USER    (2) Final Total Internal Energy     =   -2.31 kcal/mol
DOCKED: USER    (3) Torsional Free Energy           =   +3.28 kcal/mol
DOCKED: USER    (4) Unbound System's Energy  [=(2)] =   -2.31 kcal/mol
DOCKED: USER    
DOCKED: USER    
DOCKED: USER    NEWDPF move ligand.pdbqt
DOCKED: USER    NEWDPF about 0.460000 0.128000 -0.007000
DOCKED: USER    NEWDPF tran0 18.772614 -11.166197 -0.525406
DOCKED: USER    NEWDPF quaternion0 0.405055 -0.303249 -0.076074 0.859176
DOCKED: USER    NEWDPF axisangle0 0.791617 -0.592653 -0.148675 61.551638
DOCKED: USER    NEWDPF quat0 0.791617 -0.592653 -0.148675 61.551638
DOCKED: USER    NEWDPF dihe0 -0.33 -77.99 180.00 169.02 96.26 170.83 179.54 57.98 176.96 -176.86 12.68 
DOCKED: USER  keepresnum = 1 
DOCKED: USER  
DOCKED: REMARK  Name = 
DOCKED: REMARK  11 active torsions:
DOCKED: REMARK  status: ('A' for Active; 'I' for Inactive)
DOCKED: REMARK    1  A    between atoms: C_2  and  C_5
DOCKED: REMARK    2  A    between atoms: N_3  and  O_4
DOCKED: REMARK    3  A    between atoms: C_6  and  C_7
DOCKED: REMARK    4  A    between atoms: C_10  and  C_11
DOCKED: REMARK    5  A    between atoms: C_11  and  N_12
DOCKED: REMARK    6  A    between atoms: N_12  and  C_13
DOCKED: REMARK    7  A    between atoms: N_12  and  C_16
DOCKED: REMARK    8  A    between atoms: C_13  and  C_14
DOCKED: REMARK    9  A    between atoms: C_14  and  O_15
DOCKED: REMARK   10  A    between atoms: C_16  and  C_17
DOCKED: REMARK   11  A    between atoms: C_17  and  C_18
DOCKED: REMARK                            x       y       z     vdW  Elec       q    Type
DOCKED: REMARK                         _______ _______ _______ _____ _____    ______ ____
DOCKED: USER                              x       y       z     vdW  Elec       q    Type
DOCKED: USER                           _______ _______ _______ _____ _____    ______ ____
DOCKED: ROOT
DOCKED: ATOM      1  N   UNL     1      18.485 -11.887   0.824 -0.51 -0.00    +0.000 N 
DOCKED: ATOM      2  H   UNL     1      18.526 -12.507   0.015 -0.12 -0.00    +0.000 HD
DOCKED: ENDROOT
DOCKED: BRANCH   1   3
DOCKED: ATOM      3  C   UNL     1      18.838 -10.522   0.379 -0.43 -0.00    +0.000 C 
DOCKED: BRANCH   3   7
DOCKED: ATOM      4  C   UNL     1      21.069 -10.663  -3.327 -0.45 -0.00    +0.000 A 
DOCKED: ATOM      5  C   UNL     1      19.695 -10.952  -3.311 -0.40 -0.00    +0.000 A 
DOCKED: ATOM      6  C   UNL     1      18.972 -10.917  -2.115 -0.36 -0.00    +0.000 A 
DOCKED: ATOM      7  C   UNL     1      19.611 -10.583  -0.912 -0.45 -0.00    +0.000 A 
DOCKED: ATOM      8  C   UNL     1      20.978 -10.273  -0.925 -0.59 -0.00    +0.000 A 
DOCKED: ATOM      9  C   UNL     1      21.703 -10.309  -2.119 -0.31 -0.00    +0.000 A 
DOCKED: BRANCH   4  11
DOCKED: ATOM     10  C   UNL     1      21.172 -10.778  -5.814 -0.44 -0.00    +0.000 C 
DOCKED: ATOM     11  C   UNL     1      21.788 -10.705  -4.626 -0.48 -0.00    +0.000 C 
DOCKED: BRANCH  10  13
DOCKED: ATOM     12  O   UNL     1      21.980  -9.759  -7.777 -0.20 -0.00    +0.000 OA
DOCKED: ATOM     13  C   UNL     1      21.894 -10.819  -7.103 -0.36 -0.00    +0.000 C 
DOCKED: ATOM     14  N   UNL     1      22.519 -12.013  -7.594 -0.30 -0.00    +0.000 N 
DOCKED: ATOM     15  H   UNL     1      22.548 -12.819  -7.031 -0.59 -0.00    +0.000 HD
DOCKED: BRANCH  14  16
DOCKED: ATOM     16  O   UNL     1      23.071 -12.032  -8.831 -0.40 -0.00    +0.000 OA
DOCKED: ATOM     17  H   UNL     1      22.952 -11.166  -9.251 -0.00 -0.00    +0.000 HD
DOCKED: ENDBRANCH  14  16
DOCKED: ENDBRANCH  10  13
DOCKED: ENDBRANCH   4  11
DOCKED: ENDBRANCH   3   7
DOCKED: ENDBRANCH   1   3
DOCKED: BRANCH   1  18
DOCKED: ATOM     18  C   UNL     1      19.485 -12.422   1.779 -0.68 -0.00    +0.000 C 
DOCKED: BRANCH  18  19
DOCKED: ATOM     19  C   UNL     1      20.567 -11.388   2.130 -0.75 -0.00    +0.000 C 
DOCKED: BRANCH  19  20
DOCKED: ATOM     20  O   UNL     1      20.254 -10.710   3.317 -0.83 -0.00    +0.000 OA
DOCKED: ATOM     21  H   UNL     1      20.464  -9.769   3.218 -0.58 -0.00    +0.000 HD
DOCKED: ENDBRANCH  19  20
DOCKED: ENDBRANCH  18  19
DOCKED: ENDBRANCH   1  18
DOCKED: BRANCH   1  22
DOCKED: ATOM     22  C   UNL     1      17.081 -11.974   1.294 -0.48 +0.00    +0.000 C 
DOCKED: BRANCH  22  23
DOCKED: ATOM     23  C   UNL     1      16.152 -12.778   0.363 -0.47 +0.00    +0.000 C 
DOCKED: BRANCH  23  24
DOCKED: ATOM     24  C   UNL     1      14.905 -12.000   0.074 -0.42 +0.00    +0.000 A 
DOCKED: ATOM     25  C   UNL     1      13.735 -11.994   0.830 -0.41 +0.00    +0.000 A 
DOCKED: ATOM     26  N   UNL     1      12.789 -11.239   0.228 -0.34 +0.00    +0.000 N 
DOCKED: ATOM     27  C   UNL     1      13.345 -10.779  -0.906 -0.28 +0.00    +0.000 A 
DOCKED: ATOM     28  C   UNL     1      14.634 -11.228  -1.038 -0.32 +0.00    +0.000 A 
DOCKED: ATOM     29  C   UNL     1      15.415 -10.910  -2.150 -0.25 -0.00    +0.000 A 
DOCKED: ATOM     30  C   UNL     1      14.839 -10.095  -3.143 -0.23 -0.00    +0.000 A 
DOCKED: ATOM     31  C   UNL     1      13.513  -9.628  -3.006 -0.19 -0.00    +0.000 A 
DOCKED: ATOM     32  C   UNL     1      12.749  -9.973  -1.875 -0.21 -0.00    +0.000 A 
DOCKED: ATOM     33  H   UNL     1      11.878 -11.061   0.555 -0.01 +0.00    +0.000 HD
DOCKED: ENDBRANCH  23  24
DOCKED: ENDBRANCH  22  23
DOCKED: ENDBRANCH   1  22
DOCKED: TORSDOF 11
DOCKED: TER
DOCKED: ENDMDL
________________________________________________________________________________


	BEGINNING GENETIC ALGORITHM DOCKING 55 of 100
Run: 55 Seed: 958183624 516513255 [ Run 55 of 100 GA/GALS ]
Beginning LAMARCKIAN GENETIC ALGORITHM (LGA), with a maximum of 2500000 energy evaluations.

Final-Value: -16.221


	FINAL GENETIC ALGORITHM DOCKED STATE
	_______________________________________________


Detailed state:  trans 20.553 -8.681 -7.389 quatxyzw -0.117421 -0.043196 0.739437 -0.661498 center 0.460 0.128 -0.007 ntor 11 19.4828 9.1809 51.0620 64.8262 49.2562 123.8518 -179.2610 90.2035 -58.4761 25.2776 -127.4872
State:	 20.553  -8.681  -7.389  -0.157 -0.058  0.986 -97.172     19.48    9.18   51.06   64.83   49.26  123.85 -179.26   90.20  -58.48   25.28 -127.49

DOCKED: MODEL       55
DOCKED: USER    Run = 55
DOCKED: USER    DPF = ligand_dock.biased.dpf
DOCKED: USER  
DOCKED: USER    Estimated Free Energy of Binding    =  -10.01 kcal/mol  [=(1)+(2)+(3)-(4)]
DOCKED: USER    Estimated Inhibition Constant, Ki   =   45.82 nM (nanomolar)  [Temperature = 298.15 K]
DOCKED: USER    
DOCKED: USER    (1) Final Intermolecular Energy     =  -13.29 kcal/mol
DOCKED: USER        vdW + Hbond + desolv Energy     =  -13.29 kcal/mol
DOCKED: USER        Electrostatic Energy            =   +0.00 kcal/mol
DOCKED: USER    (2) Final Total Internal Energy     =   -2.93 kcal/mol
DOCKED: USER    (3) Torsional Free Energy           =   +3.28 kcal/mol
DOCKED: USER    (4) Unbound System's Energy  [=(2)] =   -2.93 kcal/mol
DOCKED: USER    
DOCKED: USER    
DOCKED: USER    NEWDPF move ligand.pdbqt
DOCKED: USER    NEWDPF about 0.460000 0.128000 -0.007000
DOCKED: USER    NEWDPF tran0 20.553464 -8.681297 -7.388577
DOCKED: USER    NEWDPF quaternion0 -0.117421 -0.043196 0.739437 -0.661498
DOCKED: USER    NEWDPF axisangle0 -0.156573 -0.057598 0.985985 -97.171532
DOCKED: USER    NEWDPF quat0 -0.156573 -0.057598 0.985985 -97.171532
DOCKED: USER    NEWDPF dihe0 19.48 9.18 51.06 64.83 49.26 123.85 -179.26 90.20 -58.48 25.28 -127.49 
DOCKED: USER  keepresnum = 1 
DOCKED: USER  
DOCKED: REMARK  Name = 
DOCKED: REMARK  11 active torsions:
DOCKED: REMARK  status: ('A' for Active; 'I' for Inactive)
DOCKED: REMARK    1  A    between atoms: C_2  and  C_5
DOCKED: REMARK    2  A    between atoms: N_3  and  O_4
DOCKED: REMARK    3  A    between atoms: C_6  and  C_7
DOCKED: REMARK    4  A    between atoms: C_10  and  C_11
DOCKED: REMARK    5  A    between atoms: C_11  and  N_12
DOCKED: REMARK    6  A    between atoms: N_12  and  C_13
DOCKED: REMARK    7  A    between atoms: N_12  and  C_16
DOCKED: REMARK    8  A    between atoms: C_13  and  C_14
DOCKED: REMARK    9  A    between atoms: C_14  and  O_15
DOCKED: REMARK   10  A    between atoms: C_16  and  C_17
DOCKED: REMARK   11  A    between atoms: C_17  and  C_18
DOCKED: REMARK                            x       y       z     vdW  Elec       q    Type
DOCKED: REMARK                         _______ _______ _______ _____ _____    ______ ____
DOCKED: USER                              x       y       z     vdW  Elec       q    Type
DOCKED: USER                           _______ _______ _______ _____ _____    ______ ____
DOCKED: ROOT
DOCKED: ATOM      1  N   UNL     1      21.852  -9.456  -7.015 -0.20 -0.00    +0.000 N 
DOCKED: ATOM      2  H   UNL     1      21.891  -8.975  -7.914 +0.00 -0.00    +0.000 HD
DOCKED: ENDROOT
DOCKED: BRANCH   1   3
DOCKED: ATOM      3  C   UNL     1      20.569  -9.113  -6.364 -0.19 -0.00    +0.000 C 
DOCKED: BRANCH   3   7
DOCKED: ATOM      4  C   UNL     1      20.819  -9.929  -2.121 -0.51 -0.00    +0.000 A 
DOCKED: ATOM      5  C   UNL     1      20.460 -10.945  -3.023 -0.34 -0.00    +0.000 A 
DOCKED: ATOM      6  C   UNL     1      20.370 -10.684  -4.393 -0.42 -0.00    +0.000 A 
DOCKED: ATOM      7  C   UNL     1      20.644  -9.401  -4.888 -0.28 -0.00    +0.000 A 
DOCKED: ATOM      8  C   UNL     1      21.023  -8.388  -3.997 -0.32 -0.00    +0.000 A 
DOCKED: ATOM      9  C   UNL     1      21.113  -8.647  -2.626 -0.43 -0.00    +0.000 A 
DOCKED: BRANCH   4  11
DOCKED: ATOM     10  C   UNL     1      20.102 -11.137  -0.063 -0.59 -0.00    +0.000 C 
DOCKED: ATOM     11  C   UNL     1      20.911 -10.262  -0.678 -0.68 -0.00    +0.000 C 
DOCKED: BRANCH  10  13
DOCKED: ATOM     12  O   UNL     1      19.903 -12.630   1.746 -1.64 -0.00    +0.000 OA
DOCKED: ATOM     13  C   UNL     1      20.200 -11.464   1.375 -0.75 -0.00    +0.000 C 
DOCKED: ATOM     14  N   UNL     1      20.645 -10.510   2.349 -0.58 -0.00    +0.000 N 
DOCKED: ATOM     15  H   UNL     1      20.977  -9.631   2.059 -0.56 -0.00    +0.000 HD
DOCKED: BRANCH  14  16
DOCKED: ATOM     16  O   UNL     1      20.610 -10.818   3.668 -0.82 -0.00    +0.000 OA
DOCKED: ATOM     17  H   UNL     1      20.561 -11.781   3.773 -0.37 -0.00    +0.000 HD
DOCKED: ENDBRANCH  14  16
DOCKED: ENDBRANCH  10  13
DOCKED: ENDBRANCH   4  11
DOCKED: ENDBRANCH   3   7
DOCKED: ENDBRANCH   1   3
DOCKED: BRANCH   1  18
DOCKED: ATOM     18  C   UNL     1      23.007  -8.937  -6.243 -0.14 -0.00    +0.000 C 
DOCKED: BRANCH  18  19
DOCKED: ATOM     19  C   UNL     1      23.568  -7.635  -6.837 -0.16 -0.00    +0.000 C 
DOCKED: BRANCH  19  20
DOCKED: ATOM     20  O   UNL     1      23.445  -7.621  -8.234 -0.09 -0.00    +0.000 OA
DOCKED: ATOM     21  H   UNL     1      23.821  -8.436  -8.600 +0.00 -0.00    +0.000 HD
DOCKED: ENDBRANCH  19  20
DOCKED: ENDBRANCH  18  19
DOCKED: ENDBRANCH   1  18
DOCKED: BRANCH   1  22
DOCKED: ATOM     22  C   UNL     1      21.937 -10.896  -7.354 -0.35 -0.00    +0.000 C 
DOCKED: BRANCH  22  23
DOCKED: ATOM     23  C   UNL     1      23.181 -11.607  -6.784 -0.45 -0.00    +0.000 C 
DOCKED: BRANCH  23  24
DOCKED: ATOM     24  C   UNL     1      24.249 -11.704  -7.830 -0.42 -0.00    +0.000 A 
DOCKED: ATOM     25  C   UNL     1      24.390 -12.710  -8.783 -0.32 -0.00    +0.000 A 
DOCKED: ATOM     26  N   UNL     1      25.513 -12.515  -9.511 -0.36 -0.00    +0.000 N 
DOCKED: ATOM     27  C   UNL     1      26.089 -11.405  -9.017 -0.33 -0.00    +0.000 A 
DOCKED: ATOM     28  C   UNL     1      25.350 -10.886  -7.986 -0.35 -0.00    +0.000 A 
DOCKED: ATOM     29  C   UNL     1      25.757  -9.747  -7.289 -0.27 -0.00    +0.000 A 
DOCKED: ATOM     30  C   UNL     1      26.959  -9.131  -7.686 -0.31 -0.00    +0.000 A 
DOCKED: ATOM     31  C   UNL     1      27.718  -9.662  -8.752 -0.28 -0.00    +0.000 A 
DOCKED: ATOM     32  C   UNL     1      27.283 -10.817  -9.430 -0.29 -0.00    +0.000 A 
DOCKED: ATOM     33  H   UNL     1      25.841 -13.073 -10.253 -0.50 -0.00    +0.000 HD
DOCKED: ENDBRANCH  23  24
DOCKED: ENDBRANCH  22  23
DOCKED: ENDBRANCH   1  22
DOCKED: TORSDOF 11
DOCKED: TER
DOCKED: ENDMDL
________________________________________________________________________________


	BEGINNING GENETIC ALGORITHM DOCKING 56 of 100
Run: 56 Seed: 1761670499 113032393 [ Run 56 of 100 GA/GALS ]
Beginning LAMARCKIAN GENETIC ALGORITHM (LGA), with a maximum of 2500000 energy evaluations.

Final-Value: -15.893


	FINAL GENETIC ALGORITHM DOCKED STATE
	_______________________________________________


Detailed state:  trans 18.075 -10.886 -0.595 quatxyzw -0.154231 0.535478 -0.806791 0.196378 center 0.460 0.128 -0.007 ntor 11 6.1177 178.1053 -11.3557 -136.2261 -137.7977 -153.1429 -47.8500 70.1390 160.3476 -110.4577 1.6816
State:	 18.075 -10.886  -0.595  -0.157  0.546 -0.823 157.349      6.12  178.11  -11.36 -136.23 -137.80 -153.14  -47.85   70.14  160.35 -110.46    1.68

DOCKED: MODEL       56
DOCKED: USER    Run = 56
DOCKED: USER    DPF = ligand_dock.biased.dpf
DOCKED: USER  
DOCKED: USER    Estimated Free Energy of Binding    =  -10.66 kcal/mol  [=(1)+(2)+(3)-(4)]
DOCKED: USER    Estimated Inhibition Constant, Ki   =   15.26 nM (nanomolar)  [Temperature = 298.15 K]
DOCKED: USER    
DOCKED: USER    (1) Final Intermolecular Energy     =  -13.94 kcal/mol
DOCKED: USER        vdW + Hbond + desolv Energy     =  -13.94 kcal/mol
DOCKED: USER        Electrostatic Energy            =   +0.00 kcal/mol
DOCKED: USER    (2) Final Total Internal Energy     =   -1.95 kcal/mol
DOCKED: USER    (3) Torsional Free Energy           =   +3.28 kcal/mol
DOCKED: USER    (4) Unbound System's Energy  [=(2)] =   -1.95 kcal/mol
DOCKED: USER    
DOCKED: USER    
DOCKED: USER    NEWDPF move ligand.pdbqt
DOCKED: USER    NEWDPF about 0.460000 0.128000 -0.007000
DOCKED: USER    NEWDPF tran0 18.074699 -10.886495 -0.594573
DOCKED: USER    NEWDPF quaternion0 -0.154231 0.535478 -0.806791 0.196378
DOCKED: USER    NEWDPF axisangle0 -0.157293 0.546112 -0.822813 157.349480
DOCKED: USER    NEWDPF quat0 -0.157293 0.546112 -0.822813 157.349480
DOCKED: USER    NEWDPF dihe0 6.12 178.11 -11.36 -136.23 -137.80 -153.14 -47.85 70.14 160.35 -110.46 1.68 
DOCKED: USER  keepresnum = 1 
DOCKED: USER  
DOCKED: REMARK  Name = 
DOCKED: REMARK  11 active torsions:
DOCKED: REMARK  status: ('A' for Active; 'I' for Inactive)
DOCKED: REMARK    1  A    between atoms: C_2  and  C_5
DOCKED: REMARK    2  A    between atoms: N_3  and  O_4
DOCKED: REMARK    3  A    between atoms: C_6  and  C_7
DOCKED: REMARK    4  A    between atoms: C_10  and  C_11
DOCKED: REMARK    5  A    between atoms: C_11  and  N_12
DOCKED: REMARK    6  A    between atoms: N_12  and  C_13
DOCKED: REMARK    7  A    between atoms: N_12  and  C_16
DOCKED: REMARK    8  A    between atoms: C_13  and  C_14
DOCKED: REMARK    9  A    between atoms: C_14  and  O_15
DOCKED: REMARK   10  A    between atoms: C_16  and  C_17
DOCKED: REMARK   11  A    between atoms: C_17  and  C_18
DOCKED: REMARK                            x       y       z     vdW  Elec       q    Type
DOCKED: REMARK                         _______ _______ _______ _____ _____    ______ ____
DOCKED: USER                              x       y       z     vdW  Elec       q    Type
DOCKED: USER                           _______ _______ _______ _____ _____    ______ ____
DOCKED: ROOT
DOCKED: ATOM      1  N   UNL     1      19.493 -10.585  -0.027 -0.48 -0.00    +0.000 N 
DOCKED: ATOM      2  H   UNL     1      18.908  -9.760  -0.160 -0.01 -0.00    +0.000 HD
DOCKED: ENDROOT
DOCKED: BRANCH   1   3
DOCKED: ATOM      3  C   UNL     1      18.681 -11.782  -0.336 -0.52 -0.00    +0.000 C 
DOCKED: BRANCH   3   7
DOCKED: ATOM      4  C   UNL     1      14.544 -11.096   0.733 -0.31 +0.00    +0.000 A 
DOCKED: ATOM      5  C   UNL     1      14.871 -11.758  -0.463 -0.38 +0.00    +0.000 A 
DOCKED: ATOM      6  C   UNL     1      16.206 -11.973  -0.816 -0.26 +0.00    +0.000 A 
DOCKED: ATOM      7  C   UNL     1      17.240 -11.537   0.025 -0.40 -0.00    +0.000 A 
DOCKED: ATOM      8  C   UNL     1      16.920 -10.895   1.229 -0.36 +0.00    +0.000 A 
DOCKED: ATOM      9  C   UNL     1      15.585 -10.678   1.585 -0.32 +0.00    +0.000 A 
DOCKED: BRANCH   4  11
DOCKED: ATOM     10  C   UNL     1      12.192 -11.877   0.998 -0.40 +0.00    +0.000 C 
DOCKED: ATOM     11  C   UNL     1      13.110 -10.902   1.066 -0.35 +0.00    +0.000 C 
DOCKED: BRANCH  10  13
DOCKED: ATOM     12  O   UNL     1      10.283 -10.518   1.226 -0.25 +0.00    +0.000 OA
DOCKED: ATOM     13  C   UNL     1      10.766 -11.676   1.332 -0.43 +0.00    +0.000 C 
DOCKED: ATOM     14  N   UNL     1       9.916 -12.756   1.742 -0.41 +0.00    +0.000 N 
DOCKED: ATOM     15  H   UNL     1      10.255 -13.679   1.729 -0.56 -0.00    +0.000 HD
DOCKED: BRANCH  14  16
DOCKED: ATOM     16  O   UNL     1       8.648 -12.506   2.147 -0.47 +0.00    +0.000 OA
DOCKED: ATOM     17  H   UNL     1       8.444 -11.568   2.009 -0.02 +0.00    +0.000 HD
DOCKED: ENDBRANCH  14  16
DOCKED: ENDBRANCH  10  13
DOCKED: ENDBRANCH   4  11
DOCKED: ENDBRANCH   3   7
DOCKED: ENDBRANCH   1   3
DOCKED: BRANCH   1  18
DOCKED: ATOM     18  C   UNL     1      19.893 -10.555   1.400 -0.65 -0.00    +0.000 C 
DOCKED: BRANCH  18  19
DOCKED: ATOM     19  C   UNL     1      20.706 -11.796   1.804 -0.74 -0.00    +0.000 C 
DOCKED: BRANCH  19  20
DOCKED: ATOM     20  O   UNL     1      19.884 -12.775   2.382 -1.37 -0.00    +0.000 OA
DOCKED: ATOM     21  H   UNL     1      19.897 -13.574   1.833 -0.60 -0.00    +0.000 HD
DOCKED: ENDBRANCH  19  20
DOCKED: ENDBRANCH  18  19
DOCKED: ENDBRANCH   1  18
DOCKED: BRANCH   1  22
DOCKED: ATOM     22  C   UNL     1      20.614 -10.411  -0.982 -0.63 -0.00    +0.000 C 
DOCKED: BRANCH  22  23
DOCKED: ATOM     23  C   UNL     1      20.288  -9.492  -2.176 -0.45 -0.00    +0.000 C 
DOCKED: BRANCH  23  24
DOCKED: ATOM     24  C   UNL     1      20.396 -10.253  -3.462 -0.42 -0.00    +0.000 A 
DOCKED: ATOM     25  C   UNL     1      19.894 -11.526  -3.719 -0.28 -0.00    +0.000 A 
DOCKED: ATOM     26  N   UNL     1      20.247 -11.931  -4.960 -0.53 -0.00    +0.000 N 
DOCKED: ATOM     27  C   UNL     1      20.978 -10.932  -5.483 -0.43 -0.00    +0.000 A 
DOCKED: ATOM     28  C   UNL     1      21.097  -9.893  -4.596 -0.37 -0.00    +0.000 A 
DOCKED: ATOM     29  C   UNL     1      21.836  -8.749  -4.897 -0.24 -0.00    +0.000 A 
DOCKED: ATOM     30  C   UNL     1      22.457  -8.683  -6.158 -0.21 -0.00    +0.000 A 
DOCKED: ATOM     31  C   UNL     1      22.332  -9.750  -7.075 -0.24 -0.00    +0.000 A 
DOCKED: ATOM     32  C   UNL     1      21.584 -10.895  -6.738 -0.33 -0.00    +0.000 A 
DOCKED: ATOM     33  H   UNL     1      20.014 -12.784  -5.393 -0.54 -0.00    +0.000 HD
DOCKED: ENDBRANCH  23  24
DOCKED: ENDBRANCH  22  23
DOCKED: ENDBRANCH   1  22
DOCKED: TORSDOF 11
DOCKED: TER
DOCKED: ENDMDL
________________________________________________________________________________


	BEGINNING GENETIC ALGORITHM DOCKING 57 of 100
Run: 57 Seed: 1096070611 753028119 [ Run 57 of 100 GA/GALS ]
Beginning LAMARCKIAN GENETIC ALGORITHM (LGA), with a maximum of 2500000 energy evaluations.

Final-Value: -14.524


	FINAL GENETIC ALGORITHM DOCKED STATE
	_______________________________________________


Detailed state:  trans 21.091 -11.049 -6.412 quatxyzw 0.114506 -0.846285 -0.513467 -0.083909 center 0.460 0.128 -0.007 ntor 11 -142.5741 3.3255 164.5545 180.0000 -116.8025 156.5834 -164.8943 -43.1163 -25.3993 -168.6253 62.7514
State:	 21.091 -11.049  -6.412   0.115 -0.849 -0.515 -170.373   -142.57    3.33  164.55  180.00 -116.80  156.58 -164.89  -43.12  -25.40 -168.63   62.75

DOCKED: MODEL       57
DOCKED: USER    Run = 57
DOCKED: USER    DPF = ligand_dock.biased.dpf
DOCKED: USER  
DOCKED: USER    Estimated Free Energy of Binding    =   -9.52 kcal/mol  [=(1)+(2)+(3)-(4)]
DOCKED: USER    Estimated Inhibition Constant, Ki   =  104.58 nM (nanomolar)  [Temperature = 298.15 K]
DOCKED: USER    
DOCKED: USER    (1) Final Intermolecular Energy     =  -12.80 kcal/mol
DOCKED: USER        vdW + Hbond + desolv Energy     =  -12.80 kcal/mol
DOCKED: USER        Electrostatic Energy            =   +0.00 kcal/mol
DOCKED: USER    (2) Final Total Internal Energy     =   -1.72 kcal/mol
DOCKED: USER    (3) Torsional Free Energy           =   +3.28 kcal/mol
DOCKED: USER    (4) Unbound System's Energy  [=(2)] =   -1.72 kcal/mol
DOCKED: USER    
DOCKED: USER    
DOCKED: USER    NEWDPF move ligand.pdbqt
DOCKED: USER    NEWDPF about 0.460000 0.128000 -0.007000
DOCKED: USER    NEWDPF tran0 21.090705 -11.048507 -6.412497
DOCKED: USER    NEWDPF quaternion0 0.114506 -0.846285 -0.513467 -0.083909
DOCKED: USER    NEWDPF axisangle0 0.114911 -0.849281 -0.515284 -170.373387
DOCKED: USER    NEWDPF quat0 0.114911 -0.849281 -0.515284 -170.373387
DOCKED: USER    NEWDPF dihe0 -142.57 3.33 164.55 180.00 -116.80 156.58 -164.89 -43.12 -25.40 -168.63 62.75 
DOCKED: USER  keepresnum = 1 
DOCKED: USER  
DOCKED: REMARK  Name = 
DOCKED: REMARK  11 active torsions:
DOCKED: REMARK  status: ('A' for Active; 'I' for Inactive)
DOCKED: REMARK    1  A    between atoms: C_2  and  C_5
DOCKED: REMARK    2  A    between atoms: N_3  and  O_4
DOCKED: REMARK    3  A    between atoms: C_6  and  C_7
DOCKED: REMARK    4  A    between atoms: C_10  and  C_11
DOCKED: REMARK    5  A    between atoms: C_11  and  N_12
DOCKED: REMARK    6  A    between atoms: N_12  and  C_13
DOCKED: REMARK    7  A    between atoms: N_12  and  C_16
DOCKED: REMARK    8  A    between atoms: C_13  and  C_14
DOCKED: REMARK    9  A    between atoms: C_14  and  O_15
DOCKED: REMARK   10  A    between atoms: C_16  and  C_17
DOCKED: REMARK   11  A    between atoms: C_17  and  C_18
DOCKED: REMARK                            x       y       z     vdW  Elec       q    Type
DOCKED: REMARK                         _______ _______ _______ _____ _____    ______ ____
DOCKED: USER                              x       y       z     vdW  Elec       q    Type
DOCKED: USER                           _______ _______ _______ _____ _____    ______ ____
DOCKED: ROOT
DOCKED: ATOM      1  N   UNL     1      22.124 -11.350  -7.537 -0.32 -0.00    +0.000 N 
DOCKED: ATOM      2  H   UNL     1      21.778 -12.177  -7.050 -0.56 -0.00    +0.000 HD
DOCKED: ENDROOT
DOCKED: BRANCH   1   3
DOCKED: ATOM      3  C   UNL     1      21.390 -10.172  -7.027 -0.29 -0.00    +0.000 C 
DOCKED: BRANCH   3   7
DOCKED: ATOM      4  C   UNL     1      20.145 -10.814  -2.932 -0.41 -0.00    +0.000 A 
DOCKED: ATOM      5  C   UNL     1      21.462 -10.422  -3.224 -0.45 -0.00    +0.000 A 
DOCKED: ATOM      6  C   UNL     1      21.871 -10.222  -4.545 -0.30 -0.00    +0.000 A 
DOCKED: ATOM      7  C   UNL     1      20.966 -10.404  -5.601 -0.35 -0.00    +0.000 A 
DOCKED: ATOM      8  C   UNL     1      19.645 -10.775  -5.316 -0.36 -0.00    +0.000 A 
DOCKED: ATOM      9  C   UNL     1      19.233 -10.976  -3.995 -0.36 -0.00    +0.000 A 
DOCKED: BRANCH   4  11
DOCKED: ATOM     10  C   UNL     1      20.611 -10.867  -0.485 -0.61 -0.00    +0.000 C 
DOCKED: ATOM     11  C   UNL     1      19.759 -11.003  -1.512 -0.39 -0.00    +0.000 C 
DOCKED: BRANCH  10  13
DOCKED: ATOM     12  O   UNL     1      19.533 -12.068   1.230 -1.41 -0.00    +0.000 OA
DOCKED: ATOM     13  C   UNL     1      20.219 -11.056   0.927 -0.70 -0.00    +0.000 C 
DOCKED: ATOM     14  N   UNL     1      20.617 -10.146   1.961 -0.33 -0.00    +0.000 N 
DOCKED: ATOM     15  H   UNL     1      21.238  -9.410   1.755 -0.55 -0.00    +0.000 HD
DOCKED: BRANCH  14  16
DOCKED: ATOM     16  O   UNL     1      20.141 -10.296   3.221 -0.76 -0.00    +0.000 OA
DOCKED: ATOM     17  H   UNL     1      19.979  -9.423   3.611 -0.59 -0.00    +0.000 HD
DOCKED: ENDBRANCH  14  16
DOCKED: ENDBRANCH  10  13
DOCKED: ENDBRANCH   4  11
DOCKED: ENDBRANCH   3   7
DOCKED: ENDBRANCH   1   3
DOCKED: BRANCH   1  18
DOCKED: ATOM     18  C   UNL     1      21.835 -11.590  -8.971 -0.19 -0.00    +0.000 C 
DOCKED: BRANCH  18  19
DOCKED: ATOM     19  C   UNL     1      21.166 -10.379  -9.642 -0.17 -0.00    +0.000 C 
DOCKED: BRANCH  19  20
DOCKED: ATOM     20  O   UNL     1      22.111  -9.401  -9.980 -0.09 -0.00    +0.000 OA
DOCKED: ATOM     21  H   UNL     1      22.593  -9.127  -9.184 +0.00 -0.00    +0.000 HD
DOCKED: ENDBRANCH  19  20
DOCKED: ENDBRANCH  18  19
DOCKED: ENDBRANCH   1  18
DOCKED: BRANCH   1  22
DOCKED: ATOM     22  C   UNL     1      23.568 -11.294  -7.204 -0.43 -0.00    +0.000 C 
DOCKED: BRANCH  22  23
DOCKED: ATOM     23  C   UNL     1      24.443 -10.641  -8.293 -0.34 -0.00    +0.000 C 
DOCKED: BRANCH  23  24
DOCKED: ATOM     24  C   UNL     1      25.301  -9.568  -7.695 -0.28 -0.00    +0.000 A 
DOCKED: ATOM     25  C   UNL     1      24.877  -8.322  -7.241 -0.20 -0.00    +0.000 A 
DOCKED: ATOM     26  N   UNL     1      25.935  -7.582  -6.840 -0.22 -0.00    +0.000 N 
DOCKED: ATOM     27  C   UNL     1      27.023  -8.343  -7.050 -0.31 -0.00    +0.000 A 
DOCKED: ATOM     28  C   UNL     1      26.676  -9.560  -7.577 -0.35 -0.00    +0.000 A 
DOCKED: ATOM     29  C   UNL     1      27.635 -10.519  -7.910 -0.39 -0.00    +0.000 A 
DOCKED: ATOM     30  C   UNL     1      28.986 -10.202  -7.677 -0.47 -0.00    +0.000 A 
DOCKED: ATOM     31  C   UNL     1      29.344  -8.951  -7.129 -0.33 -0.00    +0.000 A 
DOCKED: ATOM     32  C   UNL     1      28.353  -8.002  -6.810 -0.30 -0.00    +0.000 A 
DOCKED: ATOM     33  H   UNL     1      25.913  -6.671  -6.468 -0.01 -0.00    +0.000 HD
DOCKED: ENDBRANCH  23  24
DOCKED: ENDBRANCH  22  23
DOCKED: ENDBRANCH   1  22
DOCKED: TORSDOF 11
DOCKED: TER
DOCKED: ENDMDL
________________________________________________________________________________


	BEGINNING GENETIC ALGORITHM DOCKING 58 of 100
Run: 58 Seed: 1744993476 421922619 [ Run 58 of 100 GA/GALS ]
Beginning LAMARCKIAN GENETIC ALGORITHM (LGA), with a maximum of 2500000 energy evaluations.

Final-Value: -15.928


	FINAL GENETIC ALGORITHM DOCKED STATE
	_______________________________________________


Detailed state:  trans 18.276 -11.313 0.347 quatxyzw -0.015633 -0.415721 0.894801 -0.162056 center 0.460 0.128 -0.007 ntor 11 12.9690 147.9559 122.5265 -158.2345 180.0000 -149.8480 -47.6664 125.9180 -174.9869 -97.6217 -5.2137
State:	 18.276 -11.313   0.347  -0.016 -0.421  0.907 -161.348     12.97  147.96  122.53 -158.23  180.00 -149.85  -47.67  125.92 -174.99  -97.62   -5.21

DOCKED: MODEL       58
DOCKED: USER    Run = 58
DOCKED: USER    DPF = ligand_dock.biased.dpf
DOCKED: USER  
DOCKED: USER    Estimated Free Energy of Binding    =  -10.77 kcal/mol  [=(1)+(2)+(3)-(4)]
DOCKED: USER    Estimated Inhibition Constant, Ki   =   12.73 nM (nanomolar)  [Temperature = 298.15 K]
DOCKED: USER    
DOCKED: USER    (1) Final Intermolecular Energy     =  -14.05 kcal/mol
DOCKED: USER        vdW + Hbond + desolv Energy     =  -14.05 kcal/mol
DOCKED: USER        Electrostatic Energy            =   +0.00 kcal/mol
DOCKED: USER    (2) Final Total Internal Energy     =   -1.88 kcal/mol
DOCKED: USER    (3) Torsional Free Energy           =   +3.28 kcal/mol
DOCKED: USER    (4) Unbound System's Energy  [=(2)] =   -1.88 kcal/mol
DOCKED: USER    
DOCKED: USER    
DOCKED: USER    NEWDPF move ligand.pdbqt
DOCKED: USER    NEWDPF about 0.460000 0.128000 -0.007000
DOCKED: USER    NEWDPF tran0 18.275756 -11.313012 0.347351
DOCKED: USER    NEWDPF quaternion0 -0.015633 -0.415721 0.894801 -0.162056
DOCKED: USER    NEWDPF axisangle0 -0.015842 -0.421290 0.906788 -161.347530
DOCKED: USER    NEWDPF quat0 -0.015842 -0.421290 0.906788 -161.347530
DOCKED: USER    NEWDPF dihe0 12.97 147.96 122.53 -158.23 180.00 -149.85 -47.67 125.92 -174.99 -97.62 -5.21 
DOCKED: USER  keepresnum = 1 
DOCKED: USER  
DOCKED: REMARK  Name = 
DOCKED: REMARK  11 active torsions:
DOCKED: REMARK  status: ('A' for Active; 'I' for Inactive)
DOCKED: REMARK    1  A    between atoms: C_2  and  C_5
DOCKED: REMARK    2  A    between atoms: N_3  and  O_4
DOCKED: REMARK    3  A    between atoms: C_6  and  C_7
DOCKED: REMARK    4  A    between atoms: C_10  and  C_11
DOCKED: REMARK    5  A    between atoms: C_11  and  N_12
DOCKED: REMARK    6  A    between atoms: N_12  and  C_13
DOCKED: REMARK    7  A    between atoms: N_12  and  C_16
DOCKED: REMARK    8  A    between atoms: C_13  and  C_14
DOCKED: REMARK    9  A    between atoms: C_14  and  O_15
DOCKED: REMARK   10  A    between atoms: C_16  and  C_17
DOCKED: REMARK   11  A    between atoms: C_17  and  C_18
DOCKED: REMARK                            x       y       z     vdW  Elec       q    Type
DOCKED: REMARK                         _______ _______ _______ _____ _____    ______ ____
DOCKED: USER                              x       y       z     vdW  Elec       q    Type
DOCKED: USER                           _______ _______ _______ _____ _____    ______ ____
DOCKED: ROOT
DOCKED: ATOM      1  N   UNL     1      19.508 -10.840   1.174 -0.54 -0.00    +0.000 N 
DOCKED: ATOM      2  H   UNL     1      19.070 -10.109   0.613 -0.02 -0.00    +0.000 HD
DOCKED: ENDROOT
DOCKED: BRANCH   1   3
DOCKED: ATOM      3  C   UNL     1      18.692 -12.068   1.049 -0.62 -0.00    +0.000 C 
DOCKED: BRANCH   3   7
DOCKED: ATOM      4  C   UNL     1      14.483 -11.062   1.062 -0.32 +0.00    +0.000 A 
DOCKED: ATOM      5  C   UNL     1      14.941 -12.205   0.386 -0.44 +0.00    +0.000 A 
DOCKED: ATOM      6  C   UNL     1      16.300 -12.529   0.372 -0.45 +0.00    +0.000 A 
DOCKED: ATOM      7  C   UNL     1      17.228 -11.718   1.042 -0.43 +0.00    +0.000 A 
DOCKED: ATOM      8  C   UNL     1      16.775 -10.587   1.736 -0.37 +0.00    +0.000 A 
DOCKED: ATOM      9  C   UNL     1      15.415 -10.261   1.751 -0.30 +0.00    +0.000 A 
DOCKED: BRANCH   4  11
DOCKED: ATOM     10  C   UNL     1      12.087 -11.665   1.390 -0.44 +0.00    +0.000 C 
DOCKED: ATOM     11  C   UNL     1      13.027 -10.770   1.055 -0.33 +0.00    +0.000 C 
DOCKED: BRANCH  10  13
DOCKED: ATOM     12  O   UNL     1      10.276 -10.160   1.362 -0.21 +0.00    +0.000 OA
DOCKED: ATOM     13  C   UNL     1      10.640 -11.366   1.382 -0.39 +0.00    +0.000 C 
DOCKED: ATOM     14  N   UNL     1       9.644 -12.398   1.367 -0.43 +0.00    +0.000 N 
DOCKED: ATOM     15  H   UNL     1       9.915 -13.340   1.278 -0.61 -0.00    +0.000 HD
DOCKED: BRANCH  14  16
DOCKED: ATOM     16  O   UNL     1       8.332 -12.079   1.474 -0.42 +0.00    +0.000 OA
DOCKED: ATOM     17  H   UNL     1       8.221 -11.124   1.347 -0.00 +0.00    +0.000 HD
DOCKED: ENDBRANCH  14  16
DOCKED: ENDBRANCH  10  13
DOCKED: ENDBRANCH   4  11
DOCKED: ENDBRANCH   3   7
DOCKED: ENDBRANCH   1   3
DOCKED: BRANCH   1  18
DOCKED: ATOM     18  C   UNL     1      19.502 -10.325   2.564 -0.60 -0.00    +0.000 C 
DOCKED: BRANCH  18  19
DOCKED: ATOM     19  C   UNL     1      19.508 -11.456   3.606 -0.67 -0.00    +0.000 C 
DOCKED: BRANCH  19  20
DOCKED: ATOM     20  O   UNL     1      20.322 -12.520   3.193 -0.97 -0.00    +0.000 OA
DOCKED: ATOM     21  H   UNL     1      21.235 -12.358   3.474 -0.60 -0.00    +0.000 HD
DOCKED: ENDBRANCH  19  20
DOCKED: ENDBRANCH  18  19
DOCKED: ENDBRANCH   1  18
DOCKED: BRANCH   1  22
DOCKED: ATOM     22  C   UNL     1      20.859 -11.008   0.587 -0.69 -0.00    +0.000 C 
DOCKED: BRANCH  22  23
DOCKED: ATOM     23  C   UNL     1      21.157 -10.060  -0.592 -0.70 -0.00    +0.000 C 
DOCKED: BRANCH  23  24
DOCKED: ATOM     24  C   UNL     1      20.215 -10.330  -1.725 -0.47 -0.00    +0.000 A 
DOCKED: ATOM     25  C   UNL     1      18.838 -10.519  -1.635 -0.33 -0.00    +0.000 A 
DOCKED: ATOM     26  N   UNL     1      18.323 -10.818  -2.849 -0.26 -0.00    +0.000 N 
DOCKED: ATOM     27  C   UNL     1      19.362 -10.834  -3.701 -0.38 -0.00    +0.000 A 
DOCKED: ATOM     28  C   UNL     1      20.535 -10.547  -3.051 -0.45 -0.00    +0.000 A 
DOCKED: ATOM     29  C   UNL     1      21.761 -10.530  -3.716 -0.40 -0.00    +0.000 A 
DOCKED: ATOM     30  C   UNL     1      21.761 -10.810  -5.096 -0.45 -0.00    +0.000 A 
DOCKED: ATOM     31  C   UNL     1      20.554 -11.101  -5.768 -0.38 -0.00    +0.000 A 
DOCKED: ATOM     32  C   UNL     1      19.333 -11.117  -5.066 -0.40 -0.00    +0.000 A 
DOCKED: ATOM     33  H   UNL     1      17.378 -10.990  -3.065 +0.00 -0.00    +0.000 HD
DOCKED: ENDBRANCH  23  24
DOCKED: ENDBRANCH  22  23
DOCKED: ENDBRANCH   1  22
DOCKED: TORSDOF 11
DOCKED: TER
DOCKED: ENDMDL
________________________________________________________________________________


	BEGINNING GENETIC ALGORITHM DOCKING 59 of 100
Run: 59 Seed: 1342209897 1762939012 [ Run 59 of 100 GA/GALS ]
Beginning LAMARCKIAN GENETIC ALGORITHM (LGA), with a maximum of 2500000 energy evaluations.

Final-Value: -13.864


	FINAL GENETIC ALGORITHM DOCKED STATE
	_______________________________________________


Detailed state:  trans 14.370 -5.884 4.952 quatxyzw 0.268830 0.551794 0.041559 0.788370 center 0.460 0.128 -0.007 ntor 11 -0.7986 -77.1087 94.6548 5.7934 -31.6800 150.2540 -52.4870 -28.5689 172.3736 -165.1254 63.1978
State:	 14.370  -5.884   4.952   0.437  0.897  0.068 75.933     -0.80  -77.11   94.65    5.79  -31.68  150.25  -52.49  -28.57  172.37 -165.13   63.20

DOCKED: MODEL       59
DOCKED: USER    Run = 59
DOCKED: USER    DPF = ligand_dock.biased.dpf
DOCKED: USER  
DOCKED: USER    Estimated Free Energy of Binding    =   -7.66 kcal/mol  [=(1)+(2)+(3)-(4)]
DOCKED: USER    Estimated Inhibition Constant, Ki   =    2.42 uM (micromolar)  [Temperature = 298.15 K]
DOCKED: USER    
DOCKED: USER    (1) Final Intermolecular Energy     =  -10.94 kcal/mol
DOCKED: USER        vdW + Hbond + desolv Energy     =  -10.94 kcal/mol
DOCKED: USER        Electrostatic Energy            =   +0.00 kcal/mol
DOCKED: USER    (2) Final Total Internal Energy     =   -2.92 kcal/mol
DOCKED: USER    (3) Torsional Free Energy           =   +3.28 kcal/mol
DOCKED: USER    (4) Unbound System's Energy  [=(2)] =   -2.92 kcal/mol
DOCKED: USER    
DOCKED: USER    
DOCKED: USER    NEWDPF move ligand.pdbqt
DOCKED: USER    NEWDPF about 0.460000 0.128000 -0.007000
DOCKED: USER    NEWDPF tran0 14.369895 -5.883575 4.951940
DOCKED: USER    NEWDPF quaternion0 0.268830 0.551794 0.041559 0.788370
DOCKED: USER    NEWDPF axisangle0 0.436978 0.896932 0.067553 75.933105
DOCKED: USER    NEWDPF quat0 0.436978 0.896932 0.067553 75.933105
DOCKED: USER    NEWDPF dihe0 -0.80 -77.11 94.65 5.79 -31.68 150.25 -52.49 -28.57 172.37 -165.13 63.20 
DOCKED: USER  keepresnum = 1 
DOCKED: USER  
DOCKED: REMARK  Name = 
DOCKED: REMARK  11 active torsions:
DOCKED: REMARK  status: ('A' for Active; 'I' for Inactive)
DOCKED: REMARK    1  A    between atoms: C_2  and  C_5
DOCKED: REMARK    2  A    between atoms: N_3  and  O_4
DOCKED: REMARK    3  A    between atoms: C_6  and  C_7
DOCKED: REMARK    4  A    between atoms: C_10  and  C_11
DOCKED: REMARK    5  A    between atoms: C_11  and  N_12
DOCKED: REMARK    6  A    between atoms: N_12  and  C_13
DOCKED: REMARK    7  A    between atoms: N_12  and  C_16
DOCKED: REMARK    8  A    between atoms: C_13  and  C_14
DOCKED: REMARK    9  A    between atoms: C_14  and  O_15
DOCKED: REMARK   10  A    between atoms: C_16  and  C_17
DOCKED: REMARK   11  A    between atoms: C_17  and  C_18
DOCKED: REMARK                            x       y       z     vdW  Elec       q    Type
DOCKED: REMARK                         _______ _______ _______ _____ _____    ______ ____
DOCKED: USER                              x       y       z     vdW  Elec       q    Type
DOCKED: USER                           _______ _______ _______ _____ _____    ______ ____
DOCKED: ROOT
DOCKED: ATOM      1  N   UNL     1      13.564  -7.165   4.586 -0.27 +0.00    +0.000 N 
DOCKED: ATOM      2  H   UNL     1      14.533  -7.338   4.856 -0.01 +0.00    +0.000 HD
DOCKED: ENDROOT
DOCKED: BRANCH   1   3
DOCKED: ATOM      3  C   UNL     1      13.285  -5.724   4.768 -0.30 +0.00    +0.000 C 
DOCKED: BRANCH   3   7
DOCKED: ATOM      4  C   UNL     1      16.894  -3.399   4.220 -0.42 -0.00    +0.000 A 
DOCKED: ATOM      5  C   UNL     1      16.124  -3.791   3.113 -0.26 -0.00    +0.000 A 
DOCKED: ATOM      6  C   UNL     1      14.963  -4.549   3.284 -0.28 -0.00    +0.000 A 
DOCKED: ATOM      7  C   UNL     1      14.545  -4.924   4.570 -0.34 +0.00    +0.000 A 
DOCKED: ATOM      8  C   UNL     1      15.298  -4.518   5.681 -0.43 +0.00    +0.000 A 
DOCKED: ATOM      9  C   UNL     1      16.461  -3.760   5.511 -0.44 -0.00    +0.000 A 
DOCKED: BRANCH   4  11
DOCKED: ATOM     10  C   UNL     1      18.621  -2.342   2.767 -0.48 -0.00    +0.000 C 
DOCKED: ATOM     11  C   UNL     1      18.113  -2.585   3.984 -0.25 -0.00    +0.000 C 
DOCKED: BRANCH  10  13
DOCKED: ATOM     12  O   UNL     1      20.730  -1.990   1.782 -0.58 -0.00    +0.000 OA
DOCKED: ATOM     13  C   UNL     1      19.835  -1.531   2.539 -0.55 -0.00    +0.000 C 
DOCKED: ATOM     14  N   UNL     1      20.011  -0.234   3.126 -0.46 -0.00    +0.000 N 
DOCKED: ATOM     15  H   UNL     1      19.277   0.179   3.634 -0.50 -0.00    +0.000 HD
DOCKED: BRANCH  14  16
DOCKED: ATOM     16  O   UNL     1      21.187   0.424   2.981 -0.49 -0.00    +0.000 OA
DOCKED: ATOM     17  H   UNL     1      21.802  -0.124   2.469 -0.11 -0.00    +0.000 HD
DOCKED: ENDBRANCH  14  16
DOCKED: ENDBRANCH  10  13
DOCKED: ENDBRANCH   4  11
DOCKED: ENDBRANCH   3   7
DOCKED: ENDBRANCH   1   3
DOCKED: BRANCH   1  18
DOCKED: ATOM     18  C   UNL     1      12.747  -7.995   5.503 -0.37 +0.00    +0.000 C 
DOCKED: BRANCH  18  19
DOCKED: ATOM     19  C   UNL     1      13.347  -9.394   5.714 -0.46 +0.00    +0.000 C 
DOCKED: BRANCH  19  20
DOCKED: ATOM     20  O   UNL     1      14.639  -9.478   5.176 -0.50 +0.00    +0.000 OA
DOCKED: ATOM     21  H   UNL     1      14.745 -10.325   4.717 -0.03 +0.00    +0.000 HD
DOCKED: ENDBRANCH  19  20
DOCKED: ENDBRANCH  18  19
DOCKED: ENDBRANCH   1  18
DOCKED: BRANCH   1  22
DOCKED: ATOM     22  C   UNL     1      13.491  -7.571   3.162 -0.21 +0.00    +0.000 C 
DOCKED: BRANCH  22  23
DOCKED: ATOM     23  C   UNL     1      14.864  -7.822   2.506 -0.29 +0.00    +0.000 C 
DOCKED: BRANCH  23  24
DOCKED: ATOM     24  C   UNL     1      14.779  -8.974   1.551 -0.24 +0.00    +0.000 A 
DOCKED: ATOM     25  C   UNL     1      13.735  -9.250   0.673 -0.17 +0.00    +0.000 A 
DOCKED: ATOM     26  N   UNL     1      13.963 -10.413   0.021 -0.22 +0.00    +0.000 N 
DOCKED: ATOM     27  C   UNL     1      15.133 -10.879   0.489 -0.29 +0.00    +0.000 A 
DOCKED: ATOM     28  C   UNL     1      15.659 -10.031   1.430 -0.29 +0.00    +0.000 A 
DOCKED: ATOM     29  C   UNL     1      16.858 -10.311   2.086 -0.39 +0.00    +0.000 A 
DOCKED: ATOM     30  C   UNL     1      17.529 -11.500   1.744 -0.41 +0.00    +0.000 A 
DOCKED: ATOM     31  C   UNL     1      16.991 -12.372   0.772 -0.45 +0.00    +0.000 A 
DOCKED: ATOM     32  C   UNL     1      15.775 -12.064   0.133 -0.43 +0.00    +0.000 A 
DOCKED: ATOM     33  H   UNL     1      13.388 -10.832  -0.659 -0.00 +0.00    +0.000 HD
DOCKED: ENDBRANCH  23  24
DOCKED: ENDBRANCH  22  23
DOCKED: ENDBRANCH   1  22
DOCKED: TORSDOF 11
DOCKED: TER
DOCKED: ENDMDL
________________________________________________________________________________


	BEGINNING GENETIC ALGORITHM DOCKING 60 of 100
Run: 60 Seed: 1999972666 1751194941 [ Run 60 of 100 GA/GALS ]
Beginning LAMARCKIAN GENETIC ALGORITHM (LGA), with a maximum of 2500000 energy evaluations.

Final-Value: -15.644


	FINAL GENETIC ALGORITHM DOCKED STATE
	_______________________________________________


Detailed state:  trans 15.132 -10.065 3.599 quatxyzw 0.268574 0.812011 0.512769 0.074666 center 0.460 0.128 -0.007 ntor 11 -1.8081 -123.9365 145.9708 12.7328 11.8345 111.8385 -76.4059 -39.1974 -27.7856 15.9685 -5.7479
State:	 15.132 -10.065   3.599   0.269  0.814  0.514 171.436     -1.81 -123.94  145.97   12.73   11.83  111.84  -76.41  -39.20  -27.79   15.97   -5.75

DOCKED: MODEL       60
DOCKED: USER    Run = 60
DOCKED: USER    DPF = ligand_dock.biased.dpf
DOCKED: USER  
DOCKED: USER    Estimated Free Energy of Binding    =   -9.96 kcal/mol  [=(1)+(2)+(3)-(4)]
DOCKED: USER    Estimated Inhibition Constant, Ki   =   49.76 nM (nanomolar)  [Temperature = 298.15 K]
DOCKED: USER    
DOCKED: USER    (1) Final Intermolecular Energy     =  -13.24 kcal/mol
DOCKED: USER        vdW + Hbond + desolv Energy     =  -13.24 kcal/mol
DOCKED: USER        Electrostatic Energy            =   +0.00 kcal/mol
DOCKED: USER    (2) Final Total Internal Energy     =   -2.40 kcal/mol
DOCKED: USER    (3) Torsional Free Energy           =   +3.28 kcal/mol
DOCKED: USER    (4) Unbound System's Energy  [=(2)] =   -2.40 kcal/mol
DOCKED: USER    
DOCKED: USER    
DOCKED: USER    NEWDPF move ligand.pdbqt
DOCKED: USER    NEWDPF about 0.460000 0.128000 -0.007000
DOCKED: USER    NEWDPF tran0 15.132333 -10.064561 3.598753
DOCKED: USER    NEWDPF quaternion0 0.268574 0.812011 0.512769 0.074666
DOCKED: USER    NEWDPF axisangle0 0.269325 0.814283 0.514204 171.435963
DOCKED: USER    NEWDPF quat0 0.269325 0.814283 0.514204 171.435963
DOCKED: USER    NEWDPF dihe0 -1.81 -123.94 145.97 12.73 11.83 111.84 -76.41 -39.20 -27.79 15.97 -5.75 
DOCKED: USER  keepresnum = 1 
DOCKED: USER  
DOCKED: REMARK  Name = 
DOCKED: REMARK  11 active torsions:
DOCKED: REMARK  status: ('A' for Active; 'I' for Inactive)
DOCKED: REMARK    1  A    between atoms: C_2  and  C_5
DOCKED: REMARK    2  A    between atoms: N_3  and  O_4
DOCKED: REMARK    3  A    between atoms: C_6  and  C_7
DOCKED: REMARK    4  A    between atoms: C_10  and  C_11
DOCKED: REMARK    5  A    between atoms: C_11  and  N_12
DOCKED: REMARK    6  A    between atoms: N_12  and  C_13
DOCKED: REMARK    7  A    between atoms: N_12  and  C_16
DOCKED: REMARK    8  A    between atoms: C_13  and  C_14
DOCKED: REMARK    9  A    between atoms: C_14  and  O_15
DOCKED: REMARK   10  A    between atoms: C_16  and  C_17
DOCKED: REMARK   11  A    between atoms: C_17  and  C_18
DOCKED: REMARK                            x       y       z     vdW  Elec       q    Type
DOCKED: REMARK                         _______ _______ _______ _____ _____    ______ ____
DOCKED: USER                              x       y       z     vdW  Elec       q    Type
DOCKED: USER                           _______ _______ _______ _____ _____    ______ ____
DOCKED: ROOT
DOCKED: ATOM      1  N   UNL     1      15.282 -10.819   2.245 -0.36 +0.00    +0.000 N 
DOCKED: ATOM      2  H   UNL     1      14.719 -11.309   2.941 -0.03 +0.00    +0.000 HD
DOCKED: ENDROOT
DOCKED: BRANCH   1   3
DOCKED: ATOM      3  C   UNL     1      15.646  -9.495   2.794 -0.40 +0.00    +0.000 C 
DOCKED: BRANCH   3   7
DOCKED: ATOM      4  C   UNL     1      12.285  -7.841   4.962 -0.25 +0.00    +0.000 A 
DOCKED: ATOM      5  C   UNL     1      12.505  -7.497   3.618 -0.13 +0.00    +0.000 A 
DOCKED: ATOM      6  C   UNL     1      13.595  -8.021   2.917 -0.18 +0.00    +0.000 A 
DOCKED: ATOM      7  C   UNL     1      14.480  -8.908   3.546 -0.30 +0.00    +0.000 A 
DOCKED: ATOM      8  C   UNL     1      14.254  -9.273   4.880 -0.41 +0.00    +0.000 A 
DOCKED: ATOM      9  C   UNL     1      13.165  -8.748   5.584 -0.41 +0.00    +0.000 A 
DOCKED: BRANCH   4  11
DOCKED: ATOM     10  C   UNL     1      10.780  -5.965   5.613 -0.24 +0.00    +0.000 C 
DOCKED: ATOM     11  C   UNL     1      11.107  -7.264   5.658 -0.13 +0.00    +0.000 C 
DOCKED: BRANCH  10  13
DOCKED: ATOM     12  O   UNL     1       9.438  -4.149   6.282 -1.09 +0.00    +0.000 OA
DOCKED: ATOM     13  C   UNL     1       9.606  -5.397   6.308 -0.37 +0.00    +0.000 C 
DOCKED: ATOM     14  N   UNL     1       8.643  -6.219   6.982 -0.40 +0.00    +0.000 N 
DOCKED: ATOM     15  H   UNL     1       8.706  -7.199   6.922 -0.01 +0.00    +0.000 HD
DOCKED: BRANCH  14  16
DOCKED: ATOM     16  O   UNL     1       7.646  -5.649   7.701 -0.88 +0.00    +0.000 OA
DOCKED: ATOM     17  H   UNL     1       7.745  -4.684   7.681 -0.00 +0.00    +0.000 HD
DOCKED: ENDBRANCH  14  16
DOCKED: ENDBRANCH  10  13
DOCKED: ENDBRANCH   4  11
DOCKED: ENDBRANCH   3   7
DOCKED: ENDBRANCH   1   3
DOCKED: BRANCH   1  18
DOCKED: ATOM     18  C   UNL     1      14.410 -10.691   1.053 -0.32 +0.00    +0.000 C 
DOCKED: BRANCH  18  19
DOCKED: ATOM     19  C   UNL     1      13.491 -11.910   0.870 -0.45 +0.00    +0.000 C 
DOCKED: BRANCH  19  20
DOCKED: ATOM     20  O   UNL     1      12.627 -12.062   1.964 -0.44 +0.00    +0.000 OA
DOCKED: ATOM     21  H   UNL     1      12.010 -12.789   1.791 -0.59 +0.00    +0.000 HD
DOCKED: ENDBRANCH  19  20
DOCKED: ENDBRANCH  18  19
DOCKED: ENDBRANCH   1  18
DOCKED: BRANCH   1  22
DOCKED: ATOM     22  C   UNL     1      16.470 -11.684   2.046 -0.40 +0.00    +0.000 C 
DOCKED: BRANCH  22  23
DOCKED: ATOM     23  C   UNL     1      17.053 -11.638   0.620 -0.48 +0.00    +0.000 C 
DOCKED: BRANCH  23  24
DOCKED: ATOM     24  C   UNL     1      18.540 -11.456   0.673 -0.48 -0.00    +0.000 A 
DOCKED: ATOM     25  C   UNL     1      19.363 -11.654   1.779 -0.62 -0.00    +0.000 A 
DOCKED: ATOM     26  N   UNL     1      20.639 -11.318   1.482 -0.69 -0.00    +0.000 N 
DOCKED: ATOM     27  C   UNL     1      20.626 -10.896   0.206 -0.61 -0.00    +0.000 A 
DOCKED: ATOM     28  C   UNL     1      19.361 -10.960  -0.320 -0.48 -0.00    +0.000 A 
DOCKED: ATOM     29  C   UNL     1      19.084 -10.549  -1.624 -0.36 -0.00    +0.000 A 
DOCKED: ATOM     30  C   UNL     1      20.156 -10.069  -2.401 -0.43 -0.00    +0.000 A 
DOCKED: ATOM     31  C   UNL     1      21.460 -10.008  -1.862 -0.48 -0.00    +0.000 A 
DOCKED: ATOM     32  C   UNL     1      21.705 -10.424  -0.540 -0.58 -0.00    +0.000 A 
DOCKED: ATOM     33  H   UNL     1      21.419 -11.371   2.080 -0.23 -0.00    +0.000 HD
DOCKED: ENDBRANCH  23  24
DOCKED: ENDBRANCH  22  23
DOCKED: ENDBRANCH   1  22
DOCKED: TORSDOF 11
DOCKED: TER
DOCKED: ENDMDL
________________________________________________________________________________


	BEGINNING GENETIC ALGORITHM DOCKING 61 of 100
Run: 61 Seed: 699513702 186495737 [ Run 61 of 100 GA/GALS ]
Beginning LAMARCKIAN GENETIC ALGORITHM (LGA), with a maximum of 2500000 energy evaluations.

Final-Value: -15.817


	FINAL GENETIC ALGORITHM DOCKED STATE
	_______________________________________________


Detailed state:  trans 20.125 -10.117 -7.067 quatxyzw -0.298861 0.363541 0.830383 -0.298301 center 0.460 0.128 -0.007 ntor 11 30.4818 -87.9749 76.4410 46.9984 59.5934 -43.8904 131.2807 -104.4793 172.8947 179.9421 165.5379
State:	 20.125 -10.117  -7.067  -0.313  0.381  0.870 -145.289     30.48  -87.97   76.44   47.00   59.59  -43.89  131.28 -104.48  172.89  179.94  165.54

DOCKED: MODEL       61
DOCKED: USER    Run = 61
DOCKED: USER    DPF = ligand_dock.biased.dpf
DOCKED: USER  
DOCKED: USER    Estimated Free Energy of Binding    =   -9.39 kcal/mol  [=(1)+(2)+(3)-(4)]
DOCKED: USER    Estimated Inhibition Constant, Ki   =  130.33 nM (nanomolar)  [Temperature = 298.15 K]
DOCKED: USER    
DOCKED: USER    (1) Final Intermolecular Energy     =  -12.67 kcal/mol
DOCKED: USER        vdW + Hbond + desolv Energy     =  -12.67 kcal/mol
DOCKED: USER        Electrostatic Energy            =   +0.00 kcal/mol
DOCKED: USER    (2) Final Total Internal Energy     =   -3.14 kcal/mol
DOCKED: USER    (3) Torsional Free Energy           =   +3.28 kcal/mol
DOCKED: USER    (4) Unbound System's Energy  [=(2)] =   -3.14 kcal/mol
DOCKED: USER    
DOCKED: USER    
DOCKED: USER    NEWDPF move ligand.pdbqt
DOCKED: USER    NEWDPF about 0.460000 0.128000 -0.007000
DOCKED: USER    NEWDPF tran0 20.124857 -10.117366 -7.066736
DOCKED: USER    NEWDPF quaternion0 -0.298861 0.363541 0.830383 -0.298301
DOCKED: USER    NEWDPF axisangle0 -0.313117 0.380881 0.869993 -145.288776
DOCKED: USER    NEWDPF quat0 -0.313117 0.380881 0.869993 -145.288776
DOCKED: USER    NEWDPF dihe0 30.48 -87.97 76.44 47.00 59.59 -43.89 131.28 -104.48 172.89 179.94 165.54 
DOCKED: USER  keepresnum = 1 
DOCKED: USER  
DOCKED: REMARK  Name = 
DOCKED: REMARK  11 active torsions:
DOCKED: REMARK  status: ('A' for Active; 'I' for Inactive)
DOCKED: REMARK    1  A    between atoms: C_2  and  C_5
DOCKED: REMARK    2  A    between atoms: N_3  and  O_4
DOCKED: REMARK    3  A    between atoms: C_6  and  C_7
DOCKED: REMARK    4  A    between atoms: C_10  and  C_11
DOCKED: REMARK    5  A    between atoms: C_11  and  N_12
DOCKED: REMARK    6  A    between atoms: N_12  and  C_13
DOCKED: REMARK    7  A    between atoms: N_12  and  C_16
DOCKED: REMARK    8  A    between atoms: C_13  and  C_14
DOCKED: REMARK    9  A    between atoms: C_14  and  O_15
DOCKED: REMARK   10  A    between atoms: C_16  and  C_17
DOCKED: REMARK   11  A    between atoms: C_17  and  C_18
DOCKED: REMARK                            x       y       z     vdW  Elec       q    Type
DOCKED: REMARK                         _______ _______ _______ _____ _____    ______ ____
DOCKED: USER                              x       y       z     vdW  Elec       q    Type
DOCKED: USER                           _______ _______ _______ _____ _____    ______ ____
DOCKED: ROOT
DOCKED: ATOM      1  N   UNL     1      21.616  -9.690  -6.935 -0.22 -0.00    +0.000 N 
DOCKED: ATOM      2  H   UNL     1      21.407 -10.240  -7.768 -0.01 -0.00    +0.000 HD
DOCKED: ENDROOT
DOCKED: BRANCH   1   3
DOCKED: ATOM      3  C   UNL     1      20.346  -9.423  -6.227 -0.22 -0.00    +0.000 C 
DOCKED: BRANCH   3   7
DOCKED: ATOM      4  C   UNL     1      20.734 -10.327  -2.012 -0.50 -0.00    +0.000 A 
DOCKED: ATOM      5  C   UNL     1      21.418  -9.236  -2.573 -0.44 -0.00    +0.000 A 
DOCKED: ATOM      6  C   UNL     1      21.303  -8.946  -3.936 -0.35 -0.00    +0.000 A 
DOCKED: ATOM      7  C   UNL     1      20.493  -9.739  -4.762 -0.30 -0.00    +0.000 A 
DOCKED: ATOM      8  C   UNL     1      19.790 -10.816  -4.204 -0.40 -0.00    +0.000 A 
DOCKED: ATOM      9  C   UNL     1      19.905 -11.109  -2.842 -0.29 -0.00    +0.000 A 
DOCKED: BRANCH   4  11
DOCKED: ATOM     10  C   UNL     1      19.989 -11.269   0.171 -0.62 -0.00    +0.000 C 
DOCKED: ATOM     11  C   UNL     1      20.883 -10.586  -0.558 -0.66 -0.00    +0.000 C 
DOCKED: BRANCH  10  13
DOCKED: ATOM     12  O   UNL     1      19.868 -12.670   2.060 -1.56 -0.00    +0.000 OA
DOCKED: ATOM     13  C   UNL     1      20.144 -11.523   1.619 -0.76 -0.00    +0.000 C 
DOCKED: ATOM     14  N   UNL     1      20.622 -10.521   2.526 -0.60 -0.00    +0.000 N 
DOCKED: ATOM     15  H   UNL     1      20.939  -9.656   2.179 -0.56 -0.00    +0.000 HD
DOCKED: BRANCH  14  16
DOCKED: ATOM     16  O   UNL     1      20.640 -10.762   3.859 -0.81 -0.00    +0.000 OA
DOCKED: ATOM     17  H   UNL     1      20.776 -11.710   4.013 -0.49 -0.00    +0.000 HD
DOCKED: ENDBRANCH  14  16
DOCKED: ENDBRANCH  10  13
DOCKED: ENDBRANCH   4  11
DOCKED: ENDBRANCH   3   7
DOCKED: ENDBRANCH   1   3
DOCKED: BRANCH   1  18
DOCKED: ATOM     18  C   UNL     1      22.231  -8.437  -7.435 -0.15 -0.00    +0.000 C 
DOCKED: BRANCH  18  19
DOCKED: ATOM     19  C   UNL     1      22.353  -8.419  -8.968 -0.07 -0.00    +0.000 C 
DOCKED: BRANCH  19  20
DOCKED: ATOM     20  O   UNL     1      22.020  -9.666  -9.517 -0.12 -0.00    +0.000 OA
DOCKED: ATOM     21  H   UNL     1      22.533  -9.811 -10.326 +0.00 -0.00    +0.000 HD
DOCKED: ENDBRANCH  19  20
DOCKED: ENDBRANCH  18  19
DOCKED: ENDBRANCH   1  18
DOCKED: BRANCH   1  22
DOCKED: ATOM     22  C   UNL     1      22.528 -10.545  -6.138 -0.34 -0.00    +0.000 C 
DOCKED: BRANCH  22  23
DOCKED: ATOM     23  C   UNL     1      22.635 -11.998  -6.644 -0.39 -0.00    +0.000 C 
DOCKED: BRANCH  23  24
DOCKED: ATOM     24  C   UNL     1      23.307 -12.033  -7.983 -0.43 -0.00    +0.000 A 
DOCKED: ATOM     25  C   UNL     1      22.915 -12.781  -9.090 -0.34 -0.00    +0.000 A 
DOCKED: ATOM     26  N   UNL     1      23.800 -12.627 -10.100 -0.29 -0.00    +0.000 N 
DOCKED: ATOM     27  C   UNL     1      24.754 -11.801  -9.637 -0.28 -0.00    +0.000 A 
DOCKED: ATOM     28  C   UNL     1      24.491 -11.422  -8.345 -0.38 -0.00    +0.000 A 
DOCKED: ATOM     29  C   UNL     1      25.352 -10.587  -7.632 -0.29 -0.00    +0.000 A 
DOCKED: ATOM     30  C   UNL     1      26.510 -10.128  -8.288 -0.34 -0.00    +0.000 A 
DOCKED: ATOM     31  C   UNL     1      26.780 -10.513  -9.619 -0.25 -0.00    +0.000 A 
DOCKED: ATOM     32  C   UNL     1      25.894 -11.363 -10.309 -0.21 -0.00    +0.000 A 
DOCKED: ATOM     33  H   UNL     1      23.755 -13.036 -10.994 +0.00 -0.00    +0.000 HD
DOCKED: ENDBRANCH  23  24
DOCKED: ENDBRANCH  22  23
DOCKED: ENDBRANCH   1  22
DOCKED: TORSDOF 11
DOCKED: TER
DOCKED: ENDMDL
________________________________________________________________________________


	BEGINNING GENETIC ALGORITHM DOCKING 62 of 100
Run: 62 Seed: 1483496650 346978505 [ Run 62 of 100 GA/GALS ]
Beginning LAMARCKIAN GENETIC ALGORITHM (LGA), with a maximum of 2500000 energy evaluations.

Final-Value: -15.004


	FINAL GENETIC ALGORITHM DOCKED STATE
	_______________________________________________


Detailed state:  trans 20.455 -7.909 -5.115 quatxyzw -0.064479 -0.615715 -0.774016 0.132805 center 0.460 0.128 -0.007 ntor 11 37.8548 -177.9381 76.0533 60.7680 -144.8286 159.0110 -175.0013 -88.9616 -177.7787 -102.4508 89.6081
State:	 20.455  -7.909  -5.115  -0.065 -0.621 -0.781 164.737     37.85 -177.94   76.05   60.77 -144.83  159.01 -175.00  -88.96 -177.78 -102.45   89.61

DOCKED: MODEL       62
DOCKED: USER    Run = 62
DOCKED: USER    DPF = ligand_dock.biased.dpf
DOCKED: USER  
DOCKED: USER    Estimated Free Energy of Binding    =   -8.96 kcal/mol  [=(1)+(2)+(3)-(4)]
DOCKED: USER    Estimated Inhibition Constant, Ki   =  272.31 nM (nanomolar)  [Temperature = 298.15 K]
DOCKED: USER    
DOCKED: USER    (1) Final Intermolecular Energy     =  -12.24 kcal/mol
DOCKED: USER        vdW + Hbond + desolv Energy     =  -12.24 kcal/mol
DOCKED: USER        Electrostatic Energy            =   +0.00 kcal/mol
DOCKED: USER    (2) Final Total Internal Energy     =   -2.77 kcal/mol
DOCKED: USER    (3) Torsional Free Energy           =   +3.28 kcal/mol
DOCKED: USER    (4) Unbound System's Energy  [=(2)] =   -2.77 kcal/mol
DOCKED: USER    
DOCKED: USER    
DOCKED: USER    NEWDPF move ligand.pdbqt
DOCKED: USER    NEWDPF about 0.460000 0.128000 -0.007000
DOCKED: USER    NEWDPF tran0 20.454522 -7.909051 -5.115429
DOCKED: USER    NEWDPF quaternion0 -0.064479 -0.615715 -0.774016 0.132805
DOCKED: USER    NEWDPF axisangle0 -0.065056 -0.621218 -0.780933 164.736584
DOCKED: USER    NEWDPF quat0 -0.065056 -0.621218 -0.780933 164.736584
DOCKED: USER    NEWDPF dihe0 37.85 -177.94 76.05 60.77 -144.83 159.01 -175.00 -88.96 -177.78 -102.45 89.61 
DOCKED: USER  keepresnum = 1 
DOCKED: USER  
DOCKED: REMARK  Name = 
DOCKED: REMARK  11 active torsions:
DOCKED: REMARK  status: ('A' for Active; 'I' for Inactive)
DOCKED: REMARK    1  A    between atoms: C_2  and  C_5
DOCKED: REMARK    2  A    between atoms: N_3  and  O_4
DOCKED: REMARK    3  A    between atoms: C_6  and  C_7
DOCKED: REMARK    4  A    between atoms: C_10  and  C_11
DOCKED: REMARK    5  A    between atoms: C_11  and  N_12
DOCKED: REMARK    6  A    between atoms: N_12  and  C_13
DOCKED: REMARK    7  A    between atoms: N_12  and  C_16
DOCKED: REMARK    8  A    between atoms: C_13  and  C_14
DOCKED: REMARK    9  A    between atoms: C_14  and  O_15
DOCKED: REMARK   10  A    between atoms: C_16  and  C_17
DOCKED: REMARK   11  A    between atoms: C_17  and  C_18
DOCKED: REMARK                            x       y       z     vdW  Elec       q    Type
DOCKED: REMARK                         _______ _______ _______ _____ _____    ______ ____
DOCKED: USER                              x       y       z     vdW  Elec       q    Type
DOCKED: USER                           _______ _______ _______ _____ _____    ______ ____
DOCKED: ROOT
DOCKED: ATOM      1  N   UNL     1      21.503  -7.927  -6.266 -0.14 -0.00    +0.000 N 
DOCKED: ATOM      2  H   UNL     1      20.720  -8.566  -6.400 +0.01 -0.00    +0.000 HD
DOCKED: ENDROOT
DOCKED: BRANCH   1   3
DOCKED: ATOM      3  C   UNL     1      21.252  -7.138  -5.040 -0.21 -0.00    +0.000 C 
DOCKED: BRANCH   3   7
DOCKED: ATOM      4  C   UNL     1      20.585  -9.783  -1.680 -0.51 -0.00    +0.000 A 
DOCKED: ATOM      5  C   UNL     1      21.223  -8.545  -1.497 -0.46 -0.00    +0.000 A 
DOCKED: ATOM      6  C   UNL     1      21.448  -7.692  -2.581 -0.38 -0.00    +0.000 A 
DOCKED: ATOM      7  C   UNL     1      21.032  -8.058  -3.869 -0.31 -0.00    +0.000 A 
DOCKED: ATOM      8  C   UNL     1      20.376  -9.283  -4.055 -0.31 -0.00    +0.000 A 
DOCKED: ATOM      9  C   UNL     1      20.150 -10.139  -2.972 -0.42 -0.00    +0.000 A 
DOCKED: BRANCH   4  11
DOCKED: ATOM     10  C   UNL     1      20.734 -10.314   0.750 -0.65 -0.00    +0.000 C 
DOCKED: ATOM     11  C   UNL     1      20.360 -10.647  -0.494 -0.62 -0.00    +0.000 C 
DOCKED: BRANCH  10  13
DOCKED: ATOM     12  O   UNL     1      20.266 -12.401   1.736 -1.70 -0.00    +0.000 OA
DOCKED: ATOM     13  C   UNL     1      20.507 -11.179   1.926 -0.73 -0.00    +0.000 C 
DOCKED: ATOM     14  N   UNL     1      20.579 -10.681   3.269 -0.67 -0.00    +0.000 N 
DOCKED: ATOM     15  H   UNL     1      20.866  -9.755   3.434 -0.57 -0.00    +0.000 HD
DOCKED: BRANCH  14  16
DOCKED: ATOM     16  O   UNL     1      20.252 -11.484   4.311 -0.77 -0.00    +0.000 OA
DOCKED: ATOM     17  H   UNL     1      20.564 -12.385   4.134 -0.46 -0.00    +0.000 HD
DOCKED: ENDBRANCH  14  16
DOCKED: ENDBRANCH  10  13
DOCKED: ENDBRANCH   4  11
DOCKED: ENDBRANCH   3   7
DOCKED: ENDBRANCH   1   3
DOCKED: BRANCH   1  18
DOCKED: ATOM     18  C   UNL     1      21.517  -7.065  -7.472 -0.07 -0.00    +0.000 C 
DOCKED: BRANCH  18  19
DOCKED: ATOM     19  C   UNL     1      20.228  -7.200  -8.299 -0.04 -0.00    +0.000 C 
DOCKED: BRANCH  19  20
DOCKED: ATOM     20  O   UNL     1      19.426  -8.245  -7.821 -0.07 -0.00    +0.000 OA
DOCKED: ATOM     21  H   UNL     1      18.558  -7.897  -7.565 +0.00 -0.00    +0.000 HD
DOCKED: ENDBRANCH  19  20
DOCKED: ENDBRANCH  18  19
DOCKED: ENDBRANCH   1  18
DOCKED: BRANCH   1  22
DOCKED: ATOM     22  C   UNL     1      22.688  -8.807  -6.128 -0.22 -0.00    +0.000 C 
DOCKED: BRANCH  22  23
DOCKED: ATOM     23  C   UNL     1      22.365 -10.314  -6.184 -0.36 -0.00    +0.000 C 
DOCKED: BRANCH  23  24
DOCKED: ATOM     24  C   UNL     1      22.253 -10.769  -7.607 -0.30 -0.00    +0.000 A 
DOCKED: ATOM     25  C   UNL     1      21.138 -10.649  -8.432 -0.21 -0.00    +0.000 A 
DOCKED: ATOM     26  N   UNL     1      21.370 -11.240  -9.626 -0.16 -0.00    +0.000 N 
DOCKED: ATOM     27  C   UNL     1      22.614 -11.744  -9.556 -0.26 -0.00    +0.000 A 
DOCKED: ATOM     28  C   UNL     1      23.183 -11.482  -8.337 -0.34 -0.00    +0.000 A 
DOCKED: ATOM     29  C   UNL     1      24.464 -11.929  -8.010 -0.43 -0.00    +0.000 A 
DOCKED: ATOM     30  C   UNL     1      25.172 -12.657  -8.985 -0.31 -0.00    +0.000 A 
DOCKED: ATOM     31  C   UNL     1      24.589 -12.923 -10.243 -0.31 -0.00    +0.000 A 
DOCKED: ATOM     32  C   UNL     1      23.291 -12.465 -10.539 -0.24 -0.00    +0.000 A 
DOCKED: ATOM     33  H   UNL     1      20.752 -11.291 -10.391 -0.01 -0.00    +0.000 HD
DOCKED: ENDBRANCH  23  24
DOCKED: ENDBRANCH  22  23
DOCKED: ENDBRANCH   1  22
DOCKED: TORSDOF 11
DOCKED: TER
DOCKED: ENDMDL
________________________________________________________________________________


	BEGINNING GENETIC ALGORITHM DOCKING 63 of 100
Run: 63 Seed: 1231757761 1214761664 [ Run 63 of 100 GA/GALS ]
Beginning LAMARCKIAN GENETIC ALGORITHM (LGA), with a maximum of 2500000 energy evaluations.

Final-Value: -14.855


	FINAL GENETIC ALGORITHM DOCKED STATE
	_______________________________________________


Detailed state:  trans 21.020 -8.971 -4.234 quatxyzw 0.581789 -0.622477 -0.035346 -0.522297 center 0.460 0.128 -0.007 ntor 11 -23.2422 -86.2853 -85.0256 125.0763 -55.9891 101.7019 -96.8332 103.7838 -170.6886 -33.9366 28.3201
State:	 21.020  -8.971  -4.234   0.682 -0.730 -0.041 -117.027    -23.24  -86.29  -85.03  125.08  -55.99  101.70  -96.83  103.78 -170.69  -33.94   28.32

DOCKED: MODEL       63
DOCKED: USER    Run = 63
DOCKED: USER    DPF = ligand_dock.biased.dpf
DOCKED: USER  
DOCKED: USER    Estimated Free Energy of Binding    =   -9.32 kcal/mol  [=(1)+(2)+(3)-(4)]
DOCKED: USER    Estimated Inhibition Constant, Ki   =  147.22 nM (nanomolar)  [Temperature = 298.15 K]
DOCKED: USER    
DOCKED: USER    (1) Final Intermolecular Energy     =  -12.60 kcal/mol
DOCKED: USER        vdW + Hbond + desolv Energy     =  -12.60 kcal/mol
DOCKED: USER        Electrostatic Energy            =   +0.00 kcal/mol
DOCKED: USER    (2) Final Total Internal Energy     =   -2.25 kcal/mol
DOCKED: USER    (3) Torsional Free Energy           =   +3.28 kcal/mol
DOCKED: USER    (4) Unbound System's Energy  [=(2)] =   -2.25 kcal/mol
DOCKED: USER    
DOCKED: USER    
DOCKED: USER    NEWDPF move ligand.pdbqt
DOCKED: USER    NEWDPF about 0.460000 0.128000 -0.007000
DOCKED: USER    NEWDPF tran0 21.019931 -8.971156 -4.233719
DOCKED: USER    NEWDPF quaternion0 0.581789 -0.622477 -0.035346 -0.522297
DOCKED: USER    NEWDPF axisangle0 0.682239 -0.729953 -0.041448 -117.027037
DOCKED: USER    NEWDPF quat0 0.682239 -0.729953 -0.041448 -117.027037
DOCKED: USER    NEWDPF dihe0 -23.24 -86.29 -85.03 125.08 -55.99 101.70 -96.83 103.78 -170.69 -33.94 28.32 
DOCKED: USER  keepresnum = 1 
DOCKED: USER  
DOCKED: REMARK  Name = 
DOCKED: REMARK  11 active torsions:
DOCKED: REMARK  status: ('A' for Active; 'I' for Inactive)
DOCKED: REMARK    1  A    between atoms: C_2  and  C_5
DOCKED: REMARK    2  A    between atoms: N_3  and  O_4
DOCKED: REMARK    3  A    between atoms: C_6  and  C_7
DOCKED: REMARK    4  A    between atoms: C_10  and  C_11
DOCKED: REMARK    5  A    between atoms: C_11  and  N_12
DOCKED: REMARK    6  A    between atoms: N_12  and  C_13
DOCKED: REMARK    7  A    between atoms: N_12  and  C_16
DOCKED: REMARK    8  A    between atoms: C_13  and  C_14
DOCKED: REMARK    9  A    between atoms: C_14  and  O_15
DOCKED: REMARK   10  A    between atoms: C_16  and  C_17
DOCKED: REMARK   11  A    between atoms: C_17  and  C_18
DOCKED: REMARK                            x       y       z     vdW  Elec       q    Type
DOCKED: REMARK                         _______ _______ _______ _____ _____    ______ ____
DOCKED: USER                              x       y       z     vdW  Elec       q    Type
DOCKED: USER                           _______ _______ _______ _____ _____    ______ ____
DOCKED: ROOT
DOCKED: ATOM      1  N   UNL     1      21.674  -8.653  -5.611 -0.24 -0.00    +0.000 N 
DOCKED: ATOM      2  H   UNL     1      22.311  -8.588  -4.816 -0.03 -0.00    +0.000 HD
DOCKED: ENDROOT
DOCKED: BRANCH   1   3
DOCKED: ATOM      3  C   UNL     1      20.370  -9.149  -5.118 -0.26 -0.00    +0.000 C 
DOCKED: BRANCH   3   7
DOCKED: ATOM      4  C   UNL     1      20.693 -10.185  -0.929 -0.57 -0.00    +0.000 A 
DOCKED: ATOM      5  C   UNL     1      19.865 -10.929  -1.785 -0.35 -0.00    +0.000 A 
DOCKED: ATOM      6  C   UNL     1      19.751 -10.593  -3.137 -0.40 -0.00    +0.000 A 
DOCKED: ATOM      7  C   UNL     1      20.471  -9.508  -3.659 -0.37 -0.00    +0.000 A 
DOCKED: ATOM      8  C   UNL     1      21.315  -8.774  -2.815 -0.42 -0.00    +0.000 A 
DOCKED: ATOM      9  C   UNL     1      21.430  -9.109  -1.462 -0.47 -0.00    +0.000 A 
DOCKED: BRANCH   4  11
DOCKED: ATOM     10  C   UNL     1      19.728 -10.683   1.314 -0.64 -0.00    +0.000 C 
DOCKED: ATOM     11  C   UNL     1      20.786 -10.591   0.496 -0.69 -0.00    +0.000 C 
DOCKED: BRANCH  10  13
DOCKED: ATOM     12  O   UNL     1      19.675 -10.208   3.620 -0.64 -0.00    +0.000 OA
DOCKED: ATOM     13  C   UNL     1      19.829 -11.088   2.732 -0.74 -0.00    +0.000 C 
DOCKED: ATOM     14  N   UNL     1      20.067 -12.446   3.126 -0.67 -0.00    +0.000 N 
DOCKED: ATOM     15  H   UNL     1      20.086 -13.158   2.447 -0.54 -0.00    +0.000 HD
DOCKED: BRANCH  14  16
DOCKED: ATOM     16  O   UNL     1      20.264 -12.752   4.431 -0.61 -0.00    +0.000 OA
DOCKED: ATOM     17  H   UNL     1      20.577 -11.964   4.903 -0.31 -0.00    +0.000 HD
DOCKED: ENDBRANCH  14  16
DOCKED: ENDBRANCH  10  13
DOCKED: ENDBRANCH   4  11
DOCKED: ENDBRANCH   3   7
DOCKED: ENDBRANCH   1   3
DOCKED: BRANCH   1  18
DOCKED: ATOM     18  C   UNL     1      22.305  -9.620  -6.541 -0.30 -0.00    +0.000 C 
DOCKED: BRANCH  18  19
DOCKED: ATOM     19  C   UNL     1      22.122 -11.076  -6.081 -0.49 -0.00    +0.000 C 
DOCKED: BRANCH  19  20
DOCKED: ATOM     20  O   UNL     1      22.919 -11.949  -6.835 -0.63 -0.00    +0.000 OA
DOCKED: ATOM     21  H   UNL     1      22.467 -12.801  -6.930 -0.61 -0.00    +0.000 HD
DOCKED: ENDBRANCH  19  20
DOCKED: ENDBRANCH  18  19
DOCKED: ENDBRANCH   1  18
DOCKED: BRANCH   1  22
DOCKED: ATOM     22  C   UNL     1      21.582  -7.269  -6.134 -0.15 -0.00    +0.000 C 
DOCKED: BRANCH  22  23
DOCKED: ATOM     23  C   UNL     1      22.525  -6.267  -5.439 -0.17 -0.00    +0.000 C 
DOCKED: BRANCH  23  24
DOCKED: ATOM     24  C   UNL     1      21.890  -5.738  -4.189 -0.20 -0.00    +0.000 A 
DOCKED: ATOM     25  C   UNL     1      20.604  -6.012  -3.730 -0.23 -0.00    +0.000 A 
DOCKED: ATOM     26  N   UNL     1      20.342  -5.299  -2.611 -0.29 -0.00    +0.000 N 
DOCKED: ATOM     27  C   UNL     1      21.443  -4.567  -2.369 -0.32 -0.00    +0.000 A 
DOCKED: ATOM     28  C   UNL     1      22.407  -4.803  -3.314 -0.22 -0.00    +0.000 A 
DOCKED: ATOM     29  C   UNL     1      23.635  -4.140  -3.296 -0.19 -0.00    +0.000 A 
DOCKED: ATOM     30  C   UNL     1      23.865  -3.216  -2.259 -0.23 -0.00    +0.000 A 
DOCKED: ATOM     31  C   UNL     1      22.874  -2.976  -1.282 -0.27 +0.00    +0.000 A 
DOCKED: ATOM     32  C   UNL     1      21.643  -3.656  -1.332 -0.33 +0.00    +0.000 A 
DOCKED: ATOM     33  H   UNL     1      19.512  -5.313  -2.081 -0.01 -0.00    +0.000 HD
DOCKED: ENDBRANCH  23  24
DOCKED: ENDBRANCH  22  23
DOCKED: ENDBRANCH   1  22
DOCKED: TORSDOF 11
DOCKED: TER
DOCKED: ENDMDL
________________________________________________________________________________


	BEGINNING GENETIC ALGORITHM DOCKING 64 of 100
Run: 64 Seed: 1858222124 1635678486 [ Run 64 of 100 GA/GALS ]
Beginning LAMARCKIAN GENETIC ALGORITHM (LGA), with a maximum of 2500000 energy evaluations.

Final-Value: -14.697


	FINAL GENETIC ALGORITHM DOCKED STATE
	_______________________________________________


Detailed state:  trans 20.781 -7.628 -6.324 quatxyzw -0.288283 -0.401245 -0.035077 0.868714 center 0.460 0.128 -0.007 ntor 11 33.4602 63.3593 -141.9505 142.1971 126.5840 179.7045 137.5744 -38.2059 -135.6903 16.5603 -164.8851
State:	 20.781  -7.628  -6.324  -0.582 -0.810 -0.071 59.381     33.46   63.36 -141.95  142.20  126.58  179.70  137.57  -38.21 -135.69   16.56 -164.89

DOCKED: MODEL       64
DOCKED: USER    Run = 64
DOCKED: USER    DPF = ligand_dock.biased.dpf
DOCKED: USER  
DOCKED: USER    Estimated Free Energy of Binding    =   -9.22 kcal/mol  [=(1)+(2)+(3)-(4)]
DOCKED: USER    Estimated Inhibition Constant, Ki   =  173.70 nM (nanomolar)  [Temperature = 298.15 K]
DOCKED: USER    
DOCKED: USER    (1) Final Intermolecular Energy     =  -12.50 kcal/mol
DOCKED: USER        vdW + Hbond + desolv Energy     =  -12.50 kcal/mol
DOCKED: USER        Electrostatic Energy            =   +0.00 kcal/mol
DOCKED: USER    (2) Final Total Internal Energy     =   -2.19 kcal/mol
DOCKED: USER    (3) Torsional Free Energy           =   +3.28 kcal/mol
DOCKED: USER    (4) Unbound System's Energy  [=(2)] =   -2.19 kcal/mol
DOCKED: USER    
DOCKED: USER    
DOCKED: USER    NEWDPF move ligand.pdbqt
DOCKED: USER    NEWDPF about 0.460000 0.128000 -0.007000
DOCKED: USER    NEWDPF tran0 20.780759 -7.628476 -6.324130
DOCKED: USER    NEWDPF quaternion0 -0.288283 -0.401245 -0.035077 0.868714
DOCKED: USER    NEWDPF axisangle0 -0.582022 -0.810084 -0.070818 59.380850
DOCKED: USER    NEWDPF quat0 -0.582022 -0.810084 -0.070818 59.380850
DOCKED: USER    NEWDPF dihe0 33.46 63.36 -141.95 142.20 126.58 179.70 137.57 -38.21 -135.69 16.56 -164.89 
DOCKED: USER  keepresnum = 1 
DOCKED: USER  
DOCKED: REMARK  Name = 
DOCKED: REMARK  11 active torsions:
DOCKED: REMARK  status: ('A' for Active; 'I' for Inactive)
DOCKED: REMARK    1  A    between atoms: C_2  and  C_5
DOCKED: REMARK    2  A    between atoms: N_3  and  O_4
DOCKED: REMARK    3  A    between atoms: C_6  and  C_7
DOCKED: REMARK    4  A    between atoms: C_10  and  C_11
DOCKED: REMARK    5  A    between atoms: C_11  and  N_12
DOCKED: REMARK    6  A    between atoms: N_12  and  C_13
DOCKED: REMARK    7  A    between atoms: N_12  and  C_16
DOCKED: REMARK    8  A    between atoms: C_13  and  C_14
DOCKED: REMARK    9  A    between atoms: C_14  and  O_15
DOCKED: REMARK   10  A    between atoms: C_16  and  C_17
DOCKED: REMARK   11  A    between atoms: C_17  and  C_18
DOCKED: REMARK                            x       y       z     vdW  Elec       q    Type
DOCKED: REMARK                         _______ _______ _______ _____ _____    ______ ____
DOCKED: USER                              x       y       z     vdW  Elec       q    Type
DOCKED: USER                           _______ _______ _______ _____ _____    ______ ____
DOCKED: ROOT
DOCKED: ATOM      1  N   UNL     1      19.931  -8.933  -6.354 -0.13 -0.00    +0.000 N 
DOCKED: ATOM      2  H   UNL     1      19.737  -8.285  -7.119 +0.01 -0.00    +0.000 HD
DOCKED: ENDROOT
DOCKED: BRANCH   1   3
DOCKED: ATOM      3  C   UNL     1      21.059  -8.393  -5.566 -0.23 -0.00    +0.000 C 
DOCKED: BRANCH   3   7
DOCKED: ATOM      4  C   UNL     1      21.148 -10.270  -1.668 -0.55 -0.00    +0.000 A 
DOCKED: ATOM      5  C   UNL     1      20.495  -9.040  -1.852 -0.30 -0.00    +0.000 A 
DOCKED: ATOM      6  C   UNL     1      20.472  -8.426  -3.107 -0.32 -0.00    +0.000 A 
DOCKED: ATOM      7  C   UNL     1      21.095  -9.036  -4.205 -0.33 -0.00    +0.000 A 
DOCKED: ATOM      8  C   UNL     1      21.730 -10.274  -4.033 -0.39 -0.00    +0.000 A 
DOCKED: ATOM      9  C   UNL     1      21.756 -10.889  -2.778 -0.18 -0.00    +0.000 A 
DOCKED: BRANCH   4  11
DOCKED: ATOM     10  C   UNL     1      20.238 -10.577   0.631 -0.66 -0.00    +0.000 C 
DOCKED: ATOM     11  C   UNL     1      21.134 -10.885  -0.317 -0.62 -0.00    +0.000 C 
DOCKED: BRANCH  10  13
DOCKED: ATOM     12  O   UNL     1      19.896 -12.404   2.077 -1.70 -0.00    +0.000 OA
DOCKED: ATOM     13  C   UNL     1      20.230 -11.193   1.974 -0.75 -0.00    +0.000 C 
DOCKED: ATOM     14  N   UNL     1      20.614 -10.470   3.152 -0.61 -0.00    +0.000 N 
DOCKED: ATOM     15  H   UNL     1      20.974  -9.558   3.072 -0.60 -0.00    +0.000 HD
DOCKED: BRANCH  14  16
DOCKED: ATOM     16  O   UNL     1      20.483 -11.041   4.374 -0.69 -0.00    +0.000 OA
DOCKED: ATOM     17  H   UNL     1      20.638 -11.996   4.302 -0.48 -0.00    +0.000 HD
DOCKED: ENDBRANCH  14  16
DOCKED: ENDBRANCH  10  13
DOCKED: ENDBRANCH   4  11
DOCKED: ENDBRANCH   3   7
DOCKED: ENDBRANCH   1   3
DOCKED: BRANCH   1  18
DOCKED: ATOM     18  C   UNL     1      20.289 -10.214  -7.008 -0.28 -0.00    +0.000 C 
DOCKED: BRANCH  18  19
DOCKED: ATOM     19  C   UNL     1      21.808 -10.374  -7.184 -0.32 -0.00    +0.000 C 
DOCKED: BRANCH  19  20
DOCKED: ATOM     20  O   UNL     1      22.234 -11.648  -6.781 -0.47 -0.00    +0.000 OA
DOCKED: ATOM     21  H   UNL     1      21.467 -12.175  -6.511 -0.53 -0.00    +0.000 HD
DOCKED: ENDBRANCH  19  20
DOCKED: ENDBRANCH  18  19
DOCKED: ENDBRANCH   1  18
DOCKED: BRANCH   1  22
DOCKED: ATOM     22  C   UNL     1      18.673  -8.975  -5.569 -0.17 -0.00    +0.000 C 
DOCKED: BRANCH  22  23
DOCKED: ATOM     23  C   UNL     1      17.393  -8.990  -6.428 -0.12 -0.00    +0.000 C 
DOCKED: BRANCH  23  24
DOCKED: ATOM     24  C   UNL     1      16.448 -10.042  -5.933 -0.17 -0.00    +0.000 A 
DOCKED: ATOM     25  C   UNL     1      15.820 -11.022  -6.697 -0.24 -0.00    +0.000 A 
DOCKED: ATOM     26  N   UNL     1      14.976 -11.748  -5.931 -0.29 -0.00    +0.000 N 
DOCKED: ATOM     27  C   UNL     1      15.053 -11.227  -4.694 -0.24 -0.00    +0.000 A 
DOCKED: ATOM     28  C   UNL     1      15.937 -10.179  -4.657 -0.20 -0.00    +0.000 A 
DOCKED: ATOM     29  C   UNL     1      16.171  -9.454  -3.488 -0.20 -0.00    +0.000 A 
DOCKED: ATOM     30  C   UNL     1      15.473  -9.838  -2.328 -0.23 -0.00    +0.000 A 
DOCKED: ATOM     31  C   UNL     1      14.566 -10.920  -2.364 -0.29 -0.00    +0.000 A 
DOCKED: ATOM     32  C   UNL     1      14.347 -11.628  -3.561 -0.19 -0.00    +0.000 A 
DOCKED: ATOM     33  H   UNL     1      14.417 -12.505  -6.220 -0.02 -0.00    +0.000 HD
DOCKED: ENDBRANCH  23  24
DOCKED: ENDBRANCH  22  23
DOCKED: ENDBRANCH   1  22
DOCKED: TORSDOF 11
DOCKED: TER
DOCKED: ENDMDL
________________________________________________________________________________


	BEGINNING GENETIC ALGORITHM DOCKING 65 of 100
Run: 65 Seed: 1165451412 1754308250 [ Run 65 of 100 GA/GALS ]
Beginning LAMARCKIAN GENETIC ALGORITHM (LGA), with a maximum of 2500000 energy evaluations.

Final-Value: -14.977


	FINAL GENETIC ALGORITHM DOCKED STATE
	_______________________________________________


Detailed state:  trans 14.528 -11.177 -5.287 quatxyzw -0.000238 0.760380 0.463398 0.455066 center 0.460 0.128 -0.007 ntor 11 -163.9921 166.6888 68.4620 71.6251 156.8508 -77.0641 -145.6297 53.8899 177.9284 16.9368 62.6515
State:	 14.528 -11.177  -5.287  -0.000  0.854  0.520 125.862   -163.99  166.69   68.46   71.63  156.85  -77.06 -145.63   53.89  177.93   16.94   62.65

DOCKED: MODEL       65
DOCKED: USER    Run = 65
DOCKED: USER    DPF = ligand_dock.biased.dpf
DOCKED: USER  
DOCKED: USER    Estimated Free Energy of Binding    =   -8.50 kcal/mol  [=(1)+(2)+(3)-(4)]
DOCKED: USER    Estimated Inhibition Constant, Ki   =  586.76 nM (nanomolar)  [Temperature = 298.15 K]
DOCKED: USER    
DOCKED: USER    (1) Final Intermolecular Energy     =  -11.78 kcal/mol
DOCKED: USER        vdW + Hbond + desolv Energy     =  -11.78 kcal/mol
DOCKED: USER        Electrostatic Energy            =   +0.00 kcal/mol
DOCKED: USER    (2) Final Total Internal Energy     =   -3.19 kcal/mol
DOCKED: USER    (3) Torsional Free Energy           =   +3.28 kcal/mol
DOCKED: USER    (4) Unbound System's Energy  [=(2)] =   -3.19 kcal/mol
DOCKED: USER    
DOCKED: USER    
DOCKED: USER    NEWDPF move ligand.pdbqt
DOCKED: USER    NEWDPF about 0.460000 0.128000 -0.007000
DOCKED: USER    NEWDPF tran0 14.528448 -11.176513 -5.287428
DOCKED: USER    NEWDPF quaternion0 -0.000238 0.760380 0.463398 0.455066
DOCKED: USER    NEWDPF axisangle0 -0.000268 0.853920 0.520404 125.861590
DOCKED: USER    NEWDPF quat0 -0.000268 0.853920 0.520404 125.861590
DOCKED: USER    NEWDPF dihe0 -163.99 166.69 68.46 71.63 156.85 -77.06 -145.63 53.89 177.93 16.94 62.65 
DOCKED: USER  keepresnum = 1 
DOCKED: USER  
DOCKED: REMARK  Name = 
DOCKED: REMARK  11 active torsions:
DOCKED: REMARK  status: ('A' for Active; 'I' for Inactive)
DOCKED: REMARK    1  A    between atoms: C_2  and  C_5
DOCKED: REMARK    2  A    between atoms: N_3  and  O_4
DOCKED: REMARK    3  A    between atoms: C_6  and  C_7
DOCKED: REMARK    4  A    between atoms: C_10  and  C_11
DOCKED: REMARK    5  A    between atoms: C_11  and  N_12
DOCKED: REMARK    6  A    between atoms: N_12  and  C_13
DOCKED: REMARK    7  A    between atoms: N_12  and  C_16
DOCKED: REMARK    8  A    between atoms: C_13  and  C_14
DOCKED: REMARK    9  A    between atoms: C_14  and  O_15
DOCKED: REMARK   10  A    between atoms: C_16  and  C_17
DOCKED: REMARK   11  A    between atoms: C_17  and  C_18
DOCKED: REMARK                            x       y       z     vdW  Elec       q    Type
DOCKED: REMARK                         _______ _______ _______ _____ _____    ______ ____
DOCKED: USER                              x       y       z     vdW  Elec       q    Type
DOCKED: USER                           _______ _______ _______ _____ _____    ______ ____
DOCKED: ROOT
DOCKED: ATOM      1  N   UNL     1      14.558 -11.498  -6.811 -0.22 -0.00    +0.000 N 
DOCKED: ATOM      2  H   UNL     1      14.842 -12.273  -6.210 -0.02 -0.00    +0.000 HD
DOCKED: ENDROOT
DOCKED: BRANCH   1   3
DOCKED: ATOM      3  C   UNL     1      14.114 -10.383  -5.947 -0.18 -0.00    +0.000 C 
DOCKED: BRANCH   3   7
DOCKED: ATOM      4  C   UNL     1      16.220 -10.535  -2.169 -0.23 -0.00    +0.000 A 
DOCKED: ATOM      5  C   UNL     1      14.958 -11.136  -2.306 -0.27 -0.00    +0.000 A 
DOCKED: ATOM      6  C   UNL     1      14.271 -11.082  -3.522 -0.27 -0.00    +0.000 A 
DOCKED: ATOM      7  C   UNL     1      14.837 -10.431  -4.627 -0.22 -0.00    +0.000 A 
DOCKED: ATOM      8  C   UNL     1      16.105  -9.847  -4.503 -0.19 -0.00    +0.000 A 
DOCKED: ATOM      9  C   UNL     1      16.795  -9.899  -3.288 -0.21 -0.00    +0.000 A 
DOCKED: BRANCH   4  11
DOCKED: ATOM     10  C   UNL     1      18.142 -11.141  -0.704 -0.44 -0.00    +0.000 C 
DOCKED: ATOM     11  C   UNL     1      16.913 -10.631  -0.860 -0.32 -0.00    +0.000 C 
DOCKED: BRANCH  10  13
DOCKED: ATOM     12  O   UNL     1      18.711 -10.272   1.409 -0.54 -0.00    +0.000 OA
DOCKED: ATOM     13  C   UNL     1      18.826 -11.233   0.603 -0.56 -0.00    +0.000 C 
DOCKED: ATOM     14  N   UNL     1      19.587 -12.384   0.991 -0.62 -0.00    +0.000 N 
DOCKED: ATOM     15  H   UNL     1      19.599 -13.182   0.414 -0.53 -0.00    +0.000 HD
DOCKED: BRANCH  14  16
DOCKED: ATOM     16  O   UNL     1      20.289 -12.377   2.150 -1.62 -0.00    +0.000 OA
DOCKED: ATOM     17  H   UNL     1      20.932 -13.104   2.142 -0.60 -0.00    +0.000 HD
DOCKED: ENDBRANCH  14  16
DOCKED: ENDBRANCH  10  13
DOCKED: ENDBRANCH   4  11
DOCKED: ENDBRANCH   3   7
DOCKED: ENDBRANCH   1   3
DOCKED: BRANCH   1  18
DOCKED: ATOM     18  C   UNL     1      13.441 -12.027  -7.630 -0.23 -0.00    +0.000 C 
DOCKED: BRANCH  18  19
DOCKED: ATOM     19  C   UNL     1      12.735 -13.215  -6.958 -0.33 -0.00    +0.000 C 
DOCKED: BRANCH  19  20
DOCKED: ATOM     20  O   UNL     1      13.516 -13.748  -5.922 -0.33 -0.00    +0.000 OA
DOCKED: ATOM     21  H   UNL     1      13.138 -13.492  -5.067 -0.59 -0.00    +0.000 HD
DOCKED: ENDBRANCH  19  20
DOCKED: ENDBRANCH  18  19
DOCKED: ENDBRANCH   1  18
DOCKED: BRANCH   1  22
DOCKED: ATOM     22  C   UNL     1      15.776 -11.154  -7.582 -0.27 -0.00    +0.000 C 
DOCKED: BRANCH  22  23
DOCKED: ATOM     23  C   UNL     1      17.039 -11.924  -7.146 -0.32 -0.00    +0.000 C 
DOCKED: BRANCH  23  24
DOCKED: ATOM     24  C   UNL     1      18.202 -10.987  -7.026 -0.32 -0.00    +0.000 A 
DOCKED: ATOM     25  C   UNL     1      18.658 -10.100  -7.998 -0.21 -0.00    +0.000 A 
DOCKED: ATOM     26  N   UNL     1      19.778  -9.471  -7.574 -0.15 -0.00    +0.000 N 
DOCKED: ATOM     27  C   UNL     1      20.041  -9.964  -6.351 -0.23 -0.00    +0.000 A 
DOCKED: ATOM     28  C   UNL     1      19.105 -10.896  -5.985 -0.34 -0.00    +0.000 A 
DOCKED: ATOM     29  C   UNL     1      19.176 -11.574  -4.767 -0.33 -0.00    +0.000 A 
DOCKED: ATOM     30  C   UNL     1      20.245 -11.262  -3.907 -0.41 -0.00    +0.000 A 
DOCKED: ATOM     31  C   UNL     1      21.208 -10.298  -4.280 -0.43 -0.00    +0.000 A 
DOCKED: ATOM     32  C   UNL     1      21.111  -9.637  -5.519 -0.28 -0.00    +0.000 A 
DOCKED: ATOM     33  H   UNL     1      20.295  -8.791  -8.062 +0.00 -0.00    +0.000 HD
DOCKED: ENDBRANCH  23  24
DOCKED: ENDBRANCH  22  23
DOCKED: ENDBRANCH   1  22
DOCKED: TORSDOF 11
DOCKED: TER
DOCKED: ENDMDL
________________________________________________________________________________


	BEGINNING GENETIC ALGORITHM DOCKING 66 of 100
Run: 66 Seed: 1530658985 687171329 [ Run 66 of 100 GA/GALS ]
Beginning LAMARCKIAN GENETIC ALGORITHM (LGA), with a maximum of 2500000 energy evaluations.

Final-Value: -15.813


	FINAL GENETIC ALGORITHM DOCKED STATE
	_______________________________________________


Detailed state:  trans 11.707 -7.973 4.572 quatxyzw -0.391575 -0.251367 -0.880608 -0.089519 center 0.460 0.128 -0.007 ntor 11 -3.2085 180.0000 -86.4695 -150.2111 -84.5665 114.2882 16.1064 77.8730 -167.4438 -162.0194 140.5710
State:	 11.707  -7.973   4.572  -0.393 -0.252 -0.884 -169.728     -3.21  180.00  -86.47 -150.21  -84.57  114.29   16.11   77.87 -167.44 -162.02  140.57

DOCKED: MODEL       66
DOCKED: USER    Run = 66
DOCKED: USER    DPF = ligand_dock.biased.dpf
DOCKED: USER  
DOCKED: USER    Estimated Free Energy of Binding    =   -8.84 kcal/mol  [=(1)+(2)+(3)-(4)]
DOCKED: USER    Estimated Inhibition Constant, Ki   =  329.09 nM (nanomolar)  [Temperature = 298.15 K]
DOCKED: USER    
DOCKED: USER    (1) Final Intermolecular Energy     =  -12.13 kcal/mol
DOCKED: USER        vdW + Hbond + desolv Energy     =  -12.13 kcal/mol
DOCKED: USER        Electrostatic Energy            =   +0.00 kcal/mol
DOCKED: USER    (2) Final Total Internal Energy     =   -3.69 kcal/mol
DOCKED: USER    (3) Torsional Free Energy           =   +3.28 kcal/mol
DOCKED: USER    (4) Unbound System's Energy  [=(2)] =   -3.69 kcal/mol
DOCKED: USER    
DOCKED: USER    
DOCKED: USER    NEWDPF move ligand.pdbqt
DOCKED: USER    NEWDPF about 0.460000 0.128000 -0.007000
DOCKED: USER    NEWDPF tran0 11.707399 -7.973060 4.571682
DOCKED: USER    NEWDPF quaternion0 -0.391575 -0.251367 -0.880608 -0.089519
DOCKED: USER    NEWDPF axisangle0 -0.393153 -0.252380 -0.884158 -169.728152
DOCKED: USER    NEWDPF quat0 -0.393153 -0.252380 -0.884158 -169.728152
DOCKED: USER    NEWDPF dihe0 -3.21 180.00 -86.47 -150.21 -84.57 114.29 16.11 77.87 -167.44 -162.02 140.57 
DOCKED: USER  keepresnum = 1 
DOCKED: USER  
DOCKED: REMARK  Name = 
DOCKED: REMARK  11 active torsions:
DOCKED: REMARK  status: ('A' for Active; 'I' for Inactive)
DOCKED: REMARK    1  A    between atoms: C_2  and  C_5
DOCKED: REMARK    2  A    between atoms: N_3  and  O_4
DOCKED: REMARK    3  A    between atoms: C_6  and  C_7
DOCKED: REMARK    4  A    between atoms: C_10  and  C_11
DOCKED: REMARK    5  A    between atoms: C_11  and  N_12
DOCKED: REMARK    6  A    between atoms: N_12  and  C_13
DOCKED: REMARK    7  A    between atoms: N_12  and  C_16
DOCKED: REMARK    8  A    between atoms: C_13  and  C_14
DOCKED: REMARK    9  A    between atoms: C_14  and  O_15
DOCKED: REMARK   10  A    between atoms: C_16  and  C_17
DOCKED: REMARK   11  A    between atoms: C_17  and  C_18
DOCKED: REMARK                            x       y       z     vdW  Elec       q    Type
DOCKED: REMARK                         _______ _______ _______ _____ _____    ______ ____
DOCKED: USER                              x       y       z     vdW  Elec       q    Type
DOCKED: USER                           _______ _______ _______ _____ _____    ______ ____
DOCKED: ROOT
DOCKED: ATOM      1  N   UNL     1      11.894  -6.947   3.416 -0.10 +0.00    +0.000 N 
DOCKED: ATOM      2  H   UNL     1      11.000  -7.439   3.403 +0.00 +0.00    +0.000 HD
DOCKED: ENDROOT
DOCKED: BRANCH   1   3
DOCKED: ATOM      3  C   UNL     1      12.624  -7.348   4.637 -0.26 +0.00    +0.000 C 
DOCKED: BRANCH   3   7
DOCKED: ATOM      4  C   UNL     1      15.898  -9.999   3.646 -0.41 +0.00    +0.000 A 
DOCKED: ATOM      5  C   UNL     1      16.076  -8.605   3.620 -0.26 +0.00    +0.000 A 
DOCKED: ATOM      6  C   UNL     1      15.019  -7.746   3.931 -0.35 +0.00    +0.000 A 
DOCKED: ATOM      7  C   UNL     1      13.764  -8.264   4.282 -0.29 +0.00    +0.000 A 
DOCKED: ATOM      8  C   UNL     1      13.586  -9.654   4.330 -0.30 +0.00    +0.000 A 
DOCKED: ATOM      9  C   UNL     1      14.641 -10.516   4.018 -0.38 +0.00    +0.000 A 
DOCKED: BRANCH   4  11
DOCKED: ATOM     10  C   UNL     1      17.880 -10.649   2.283 -0.53 -0.00    +0.000 C 
DOCKED: ATOM     11  C   UNL     1      17.056 -10.868   3.317 -0.46 +0.00    +0.000 C 
DOCKED: BRANCH  10  13
DOCKED: ATOM     12  O   UNL     1      18.814 -12.607   1.367 -1.02 -0.00    +0.000 OA
DOCKED: ATOM     13  C   UNL     1      19.031 -11.518   1.962 -0.65 -0.00    +0.000 C 
DOCKED: ATOM     14  N   UNL     1      20.381 -11.151   2.279 -0.68 -0.00    +0.000 N 
DOCKED: ATOM     15  H   UNL     1      20.573 -10.260   2.649 -0.32 -0.00    +0.000 HD
DOCKED: BRANCH  14  16
DOCKED: ATOM     16  O   UNL     1      21.392 -12.028   2.069 -0.95 -0.00    +0.000 OA
DOCKED: ATOM     17  H   UNL     1      21.028 -12.869   1.751 -0.60 -0.00    +0.000 HD
DOCKED: ENDBRANCH  14  16
DOCKED: ENDBRANCH  10  13
DOCKED: ENDBRANCH   4  11
DOCKED: ENDBRANCH   3   7
DOCKED: ENDBRANCH   1   3
DOCKED: BRANCH   1  18
DOCKED: ATOM     18  C   UNL     1      11.546  -5.505   3.440 -0.12 +0.00    +0.000 C 
DOCKED: BRANCH  18  19
DOCKED: ATOM     19  C   UNL     1      12.721  -4.630   3.904 -0.23 +0.00    +0.000 C 
DOCKED: BRANCH  19  20
DOCKED: ATOM     20  O   UNL     1      12.314  -3.305   4.116 -0.49 +0.00    +0.000 OA
DOCKED: ATOM     21  H   UNL     1      12.465  -3.064   5.043 -0.28 +0.00    +0.000 HD
DOCKED: ENDBRANCH  19  20
DOCKED: ENDBRANCH  18  19
DOCKED: ENDBRANCH   1  18
DOCKED: BRANCH   1  22
DOCKED: ATOM     22  C   UNL     1      12.586  -7.390   2.182 -0.11 +0.00    +0.000 C 
DOCKED: BRANCH  22  23
DOCKED: ATOM     23  C   UNL     1      11.707  -8.223   1.228 -0.09 +0.00    +0.000 C 
DOCKED: BRANCH  23  24
DOCKED: ATOM     24  C   UNL     1      12.171  -9.647   1.205 -0.16 +0.00    +0.000 A 
DOCKED: ATOM     25  C   UNL     1      11.514 -10.745   1.755 -0.23 +0.00    +0.000 A 
DOCKED: ATOM     26  N   UNL     1      12.264 -11.861   1.614 -0.44 +0.00    +0.000 N 
DOCKED: ATOM     27  C   UNL     1      13.392 -11.476   0.993 -0.38 +0.00    +0.000 A 
DOCKED: ATOM     28  C   UNL     1      13.376 -10.130   0.733 -0.20 +0.00    +0.000 A 
DOCKED: ATOM     29  C   UNL     1      14.450  -9.485   0.119 -0.22 +0.00    +0.000 A 
DOCKED: ATOM     30  C   UNL     1      15.564 -10.267  -0.241 -0.26 +0.00    +0.000 A 
DOCKED: ATOM     31  C   UNL     1      15.580 -11.654   0.022 -0.37 +0.00    +0.000 A 
DOCKED: ATOM     32  C   UNL     1      14.483 -12.274   0.650 -0.42 +0.00    +0.000 A 
DOCKED: ATOM     33  H   UNL     1      12.030 -12.772   1.906 -0.59 +0.00    +0.000 HD
DOCKED: ENDBRANCH  23  24
DOCKED: ENDBRANCH  22  23
DOCKED: ENDBRANCH   1  22
DOCKED: TORSDOF 11
DOCKED: TER
DOCKED: ENDMDL
________________________________________________________________________________


	BEGINNING GENETIC ALGORITHM DOCKING 67 of 100
Run: 67 Seed: 934415676 1039040784 [ Run 67 of 100 GA/GALS ]
Beginning LAMARCKIAN GENETIC ALGORITHM (LGA), with a maximum of 2500000 energy evaluations.

Final-Value: -15.626


	FINAL GENETIC ALGORITHM DOCKED STATE
	_______________________________________________


Detailed state:  trans 21.562 -10.634 -0.250 quatxyzw 0.532580 -0.105929 0.177121 0.820833 center 0.460 0.128 -0.007 ntor 11 14.5913 94.5313 121.7890 -17.7649 -116.7377 110.1196 173.4650 -33.6577 160.8592 59.6214 88.2435
State:	 21.562 -10.634  -0.250   0.932 -0.185  0.310 69.664     14.59   94.53  121.79  -17.76 -116.74  110.12  173.46  -33.66  160.86   59.62   88.24

DOCKED: MODEL       67
DOCKED: USER    Run = 67
DOCKED: USER    DPF = ligand_dock.biased.dpf
DOCKED: USER  
DOCKED: USER    Estimated Free Energy of Binding    =   -9.76 kcal/mol  [=(1)+(2)+(3)-(4)]
DOCKED: USER    Estimated Inhibition Constant, Ki   =   69.94 nM (nanomolar)  [Temperature = 298.15 K]
DOCKED: USER    
DOCKED: USER    (1) Final Intermolecular Energy     =  -13.04 kcal/mol
DOCKED: USER        vdW + Hbond + desolv Energy     =  -13.04 kcal/mol
DOCKED: USER        Electrostatic Energy            =   +0.00 kcal/mol
DOCKED: USER    (2) Final Total Internal Energy     =   -2.58 kcal/mol
DOCKED: USER    (3) Torsional Free Energy           =   +3.28 kcal/mol
DOCKED: USER    (4) Unbound System's Energy  [=(2)] =   -2.58 kcal/mol
DOCKED: USER    
DOCKED: USER    
DOCKED: USER    NEWDPF move ligand.pdbqt
DOCKED: USER    NEWDPF about 0.460000 0.128000 -0.007000
DOCKED: USER    NEWDPF tran0 21.561572 -10.633850 -0.249806
DOCKED: USER    NEWDPF quaternion0 0.532580 -0.105929 0.177121 0.820833
DOCKED: USER    NEWDPF axisangle0 0.932439 -0.185459 0.310102 69.663521
DOCKED: USER    NEWDPF quat0 0.932439 -0.185459 0.310102 69.663521
DOCKED: USER    NEWDPF dihe0 14.59 94.53 121.79 -17.76 -116.74 110.12 173.46 -33.66 160.86 59.62 88.24 
DOCKED: USER  keepresnum = 1 
DOCKED: USER  
DOCKED: REMARK  Name = 
DOCKED: REMARK  11 active torsions:
DOCKED: REMARK  status: ('A' for Active; 'I' for Inactive)
DOCKED: REMARK    1  A    between atoms: C_2  and  C_5
DOCKED: REMARK    2  A    between atoms: N_3  and  O_4
DOCKED: REMARK    3  A    between atoms: C_6  and  C_7
DOCKED: REMARK    4  A    between atoms: C_10  and  C_11
DOCKED: REMARK    5  A    between atoms: C_11  and  N_12
DOCKED: REMARK    6  A    between atoms: N_12  and  C_13
DOCKED: REMARK    7  A    between atoms: N_12  and  C_16
DOCKED: REMARK    8  A    between atoms: C_13  and  C_14
DOCKED: REMARK    9  A    between atoms: C_14  and  O_15
DOCKED: REMARK   10  A    between atoms: C_16  and  C_17
DOCKED: REMARK   11  A    between atoms: C_17  and  C_18
DOCKED: REMARK                            x       y       z     vdW  Elec       q    Type
DOCKED: REMARK                         _______ _______ _______ _____ _____    ______ ____
DOCKED: USER                              x       y       z     vdW  Elec       q    Type
DOCKED: USER                           _______ _______ _______ _____ _____    ______ ____
DOCKED: ROOT
DOCKED: ATOM      1  N   UNL     1      20.481 -10.725   0.868 -0.62 -0.00    +0.000 N 
DOCKED: ATOM      2  H   UNL     1      20.723 -11.619   0.441 -0.04 -0.00    +0.000 HD
DOCKED: ENDROOT
DOCKED: BRANCH   1   3
DOCKED: ATOM      3  C   UNL     1      21.371  -9.688   0.302 -0.56 -0.00    +0.000 C 
DOCKED: BRANCH   3   7
DOCKED: ATOM      4  C   UNL     1      21.099  -9.704  -4.017 -0.39 -0.00    +0.000 A 
DOCKED: ATOM      5  C   UNL     1      21.356 -10.893  -3.315 -0.38 -0.00    +0.000 A 
DOCKED: ATOM      6  C   UNL     1      21.453 -10.891  -1.920 -0.28 -0.00    +0.000 A 
DOCKED: ATOM      7  C   UNL     1      21.288  -9.698  -1.201 -0.57 -0.00    +0.000 A 
DOCKED: ATOM      8  C   UNL     1      21.011  -8.512  -1.895 -0.45 -0.00    +0.000 A 
DOCKED: ATOM      9  C   UNL     1      20.914  -8.512  -3.290 -0.37 -0.00    +0.000 A 
DOCKED: BRANCH   4  11
DOCKED: ATOM     10  C   UNL     1      21.894 -10.374  -6.282 -0.38 -0.00    +0.000 C 
DOCKED: ATOM     11  C   UNL     1      20.995  -9.763  -5.497 -0.33 -0.00    +0.000 C 
DOCKED: BRANCH  10  13
DOCKED: ATOM     12  O   UNL     1      21.504  -9.370  -8.376 -0.14 -0.00    +0.000 OA
DOCKED: ATOM     13  C   UNL     1      21.784 -10.430  -7.755 -0.29 -0.00    +0.000 C 
DOCKED: ATOM     14  N   UNL     1      22.011 -11.636  -8.495 -0.27 -0.00    +0.000 N 
DOCKED: ATOM     15  H   UNL     1      22.331 -12.443  -8.032 -0.54 -0.00    +0.000 HD
DOCKED: BRANCH  14  16
DOCKED: ATOM     16  O   UNL     1      21.788 -11.667  -9.831 -0.28 -0.00    +0.000 OA
DOCKED: ATOM     17  H   UNL     1      21.705 -10.760 -10.165 -0.01 -0.00    +0.000 HD
DOCKED: ENDBRANCH  14  16
DOCKED: ENDBRANCH  10  13
DOCKED: ENDBRANCH   4  11
DOCKED: ENDBRANCH   3   7
DOCKED: ENDBRANCH   1   3
DOCKED: BRANCH   1  18
DOCKED: ATOM     18  C   UNL     1      20.717 -10.907   2.321 -0.52 -0.00    +0.000 C 
DOCKED: BRANCH  18  19
DOCKED: ATOM     19  C   UNL     1      19.755 -11.932   2.943 -0.72 -0.00    +0.000 C 
DOCKED: BRANCH  19  20
DOCKED: ATOM     20  O   UNL     1      19.511 -12.997   2.063 -1.24 -0.00    +0.000 OA
DOCKED: ATOM     21  H   UNL     1      20.308 -13.174   1.541 -0.60 -0.00    +0.000 HD
DOCKED: ENDBRANCH  19  20
DOCKED: ENDBRANCH  18  19
DOCKED: ENDBRANCH   1  18
DOCKED: BRANCH   1  22
DOCKED: ATOM     22  C   UNL     1      19.063 -10.503   0.499 -0.46 -0.00    +0.000 C 
DOCKED: BRANCH  22  23
DOCKED: ATOM     23  C   UNL     1      18.610 -11.268  -0.760 -0.48 -0.00    +0.000 C 
DOCKED: BRANCH  23  24
DOCKED: ATOM     24  C   UNL     1      17.247 -11.854  -0.551 -0.35 -0.00    +0.000 A 
DOCKED: ATOM     25  C   UNL     1      16.955 -13.139  -0.101 -0.43 +0.00    +0.000 A 
DOCKED: ATOM     26  N   UNL     1      15.619 -13.348  -0.109 -0.58 +0.00    +0.000 N 
DOCKED: ATOM     27  C   UNL     1      15.067 -12.213  -0.572 -0.43 +0.00    +0.000 A 
DOCKED: ATOM     28  C   UNL     1      16.030 -11.280  -0.859 -0.31 +0.00    +0.000 A 
DOCKED: ATOM     29  C   UNL     1      15.708 -10.027  -1.382 -0.24 -0.00    +0.000 A 
DOCKED: ATOM     30  C   UNL     1      14.348  -9.738  -1.600 -0.22 -0.00    +0.000 A 
DOCKED: ATOM     31  C   UNL     1      13.355 -10.696  -1.300 -0.27 -0.00    +0.000 A 
DOCKED: ATOM     32  C   UNL     1      13.713 -11.955  -0.780 -0.27 +0.00    +0.000 A 
DOCKED: ATOM     33  H   UNL     1      15.147 -14.166   0.169 -0.05 +0.00    +0.000 HD
DOCKED: ENDBRANCH  23  24
DOCKED: ENDBRANCH  22  23
DOCKED: ENDBRANCH   1  22
DOCKED: TORSDOF 11
DOCKED: TER
DOCKED: ENDMDL
________________________________________________________________________________


	BEGINNING GENETIC ALGORITHM DOCKING 68 of 100
Run: 68 Seed: 1767042573 989330497 [ Run 68 of 100 GA/GALS ]
Beginning LAMARCKIAN GENETIC ALGORITHM (LGA), with a maximum of 2500000 energy evaluations.

Final-Value: -13.562


	FINAL GENETIC ALGORITHM DOCKED STATE
	_______________________________________________


Detailed state:  trans 22.612 -11.430 -9.030 quatxyzw 0.566909 -0.182318 -0.782321 -0.182615 center 0.460 0.128 -0.007 ntor 11 -1.7473 16.5585 67.4262 41.9653 119.0574 8.0531 -170.9747 -93.8599 134.3277 180.0000 176.5228
State:	 22.612 -11.430  -9.030   0.577 -0.185 -0.796 -158.956     -1.75   16.56   67.43   41.97  119.06    8.05 -170.97  -93.86  134.33  180.00  176.52

DOCKED: MODEL       68
DOCKED: USER    Run = 68
DOCKED: USER    DPF = ligand_dock.biased.dpf
DOCKED: USER  
DOCKED: USER    Estimated Free Energy of Binding    =   -7.35 kcal/mol  [=(1)+(2)+(3)-(4)]
DOCKED: USER    Estimated Inhibition Constant, Ki   =    4.07 uM (micromolar)  [Temperature = 298.15 K]
DOCKED: USER    
DOCKED: USER    (1) Final Intermolecular Energy     =  -10.64 kcal/mol
DOCKED: USER        vdW + Hbond + desolv Energy     =  -10.64 kcal/mol
DOCKED: USER        Electrostatic Energy            =   +0.00 kcal/mol
DOCKED: USER    (2) Final Total Internal Energy     =   -2.93 kcal/mol
DOCKED: USER    (3) Torsional Free Energy           =   +3.28 kcal/mol
DOCKED: USER    (4) Unbound System's Energy  [=(2)] =   -2.93 kcal/mol
DOCKED: USER    
DOCKED: USER    
DOCKED: USER    NEWDPF move ligand.pdbqt
DOCKED: USER    NEWDPF about 0.460000 0.128000 -0.007000
DOCKED: USER    NEWDPF tran0 22.612330 -11.430441 -9.030166
DOCKED: USER    NEWDPF quaternion0 0.566909 -0.182318 -0.782321 -0.182615
DOCKED: USER    NEWDPF axisangle0 0.576605 -0.185436 -0.795701 -158.955779
DOCKED: USER    NEWDPF quat0 0.576605 -0.185436 -0.795701 -158.955779
DOCKED: USER    NEWDPF dihe0 -1.75 16.56 67.43 41.97 119.06 8.05 -170.97 -93.86 134.33 180.00 176.52 
DOCKED: USER  keepresnum = 1 
DOCKED: USER  
DOCKED: REMARK  Name = 
DOCKED: REMARK  11 active torsions:
DOCKED: REMARK  status: ('A' for Active; 'I' for Inactive)
DOCKED: REMARK    1  A    between atoms: C_2  and  C_5
DOCKED: REMARK    2  A    between atoms: N_3  and  O_4
DOCKED: REMARK    3  A    between atoms: C_6  and  C_7
DOCKED: REMARK    4  A    between atoms: C_10  and  C_11
DOCKED: REMARK    5  A    between atoms: C_11  and  N_12
DOCKED: REMARK    6  A    between atoms: N_12  and  C_13
DOCKED: REMARK    7  A    between atoms: N_12  and  C_16
DOCKED: REMARK    8  A    between atoms: C_13  and  C_14
DOCKED: REMARK    9  A    between atoms: C_14  and  O_15
DOCKED: REMARK   10  A    between atoms: C_16  and  C_17
DOCKED: REMARK   11  A    between atoms: C_17  and  C_18
DOCKED: REMARK                            x       y       z     vdW  Elec       q    Type
DOCKED: REMARK                         _______ _______ _______ _____ _____    ______ ____
DOCKED: USER                              x       y       z     vdW  Elec       q    Type
DOCKED: USER                           _______ _______ _______ _____ _____    ______ ____
DOCKED: ROOT
DOCKED: ATOM      1  N   UNL     1      22.794  -9.892  -8.879 -0.14 -0.00    +0.000 N 
DOCKED: ATOM      2  H   UNL     1      23.432 -10.328  -9.545 +0.01 -0.00    +0.000 HD
DOCKED: ENDROOT
DOCKED: BRANCH   1   3
DOCKED: ATOM      3  C   UNL     1      21.852 -10.924  -8.397 -0.28 -0.00    +0.000 C 
DOCKED: BRANCH   3   7
DOCKED: ATOM      4  C   UNL     1      20.976 -10.343  -4.198 -0.43 -0.00    +0.000 A 
DOCKED: ATOM      5  C   UNL     1      20.515  -9.425  -5.157 -0.25 -0.00    +0.000 A 
DOCKED: ATOM      6  C   UNL     1      20.803  -9.605  -6.512 -0.21 -0.00    +0.000 A 
DOCKED: ATOM      7  C   UNL     1      21.552 -10.711  -6.937 -0.30 -0.00    +0.000 A 
DOCKED: ATOM      8  C   UNL     1      21.998 -11.642  -5.988 -0.41 -0.00    +0.000 A 
DOCKED: ATOM      9  C   UNL     1      21.712 -11.464  -4.631 -0.33 -0.00    +0.000 A 
DOCKED: BRANCH   4  11
DOCKED: ATOM     10  C   UNL     1      21.401 -10.514  -1.749 -0.60 -0.00    +0.000 C 
DOCKED: ATOM     11  C   UNL     1      20.634 -10.112  -2.773 -0.52 -0.00    +0.000 C 
DOCKED: BRANCH  10  13
DOCKED: ATOM     12  O   UNL     1      21.244  -9.132   0.151 -0.62 -0.00    +0.000 OA
DOCKED: ATOM     13  C   UNL     1      21.054 -10.280  -0.332 -0.70 -0.00    +0.000 C 
DOCKED: ATOM     14  N   UNL     1      20.485 -11.303   0.497 -0.62 -0.00    +0.000 N 
DOCKED: ATOM     15  H   UNL     1      20.236 -12.170   0.105 -0.06 -0.00    +0.000 HD
DOCKED: BRANCH  14  16
DOCKED: ATOM     16  O   UNL     1      20.288 -11.077   1.818 -1.10 -0.00    +0.000 OA
DOCKED: ATOM     17  H   UNL     1      20.611 -10.191   2.046 -0.32 -0.00    +0.000 HD
DOCKED: ENDBRANCH  14  16
DOCKED: ENDBRANCH  10  13
DOCKED: ENDBRANCH   4  11
DOCKED: ENDBRANCH   3   7
DOCKED: ENDBRANCH   1   3
DOCKED: BRANCH   1  18
DOCKED: ATOM     18  C   UNL     1      22.093  -8.833  -9.644 -0.07 -0.00    +0.000 C 
DOCKED: BRANCH  18  19
DOCKED: ATOM     19  C   UNL     1      22.656  -8.671 -11.065 -0.03 -0.00    +0.000 C 
DOCKED: BRANCH  19  20
DOCKED: ATOM     20  O   UNL     1      23.919  -9.269 -11.181 -0.04 -0.00    +0.000 OA
DOCKED: ATOM     21  H   UNL     1      24.458  -9.041 -10.409 +0.00 -0.00    +0.000 HD
DOCKED: ENDBRANCH  19  20
DOCKED: ENDBRANCH  18  19
DOCKED: ENDBRANCH   1  18
DOCKED: BRANCH   1  22
DOCKED: ATOM     22  C   UNL     1      23.670  -9.387  -7.794 -0.23 -0.00    +0.000 C 
DOCKED: BRANCH  22  23
DOCKED: ATOM     23  C   UNL     1      24.672 -10.428  -7.255 -0.16 -0.00    +0.000 C 
DOCKED: BRANCH  23  24
DOCKED: ATOM     24  C   UNL     1      25.826 -10.575  -8.200 -0.35 -0.00    +0.000 A 
DOCKED: ATOM     25  C   UNL     1      25.836 -11.291  -9.394 -0.31 -0.00    +0.000 A 
DOCKED: ATOM     26  N   UNL     1      27.071 -11.269  -9.945 -0.26 -0.00    +0.000 N 
DOCKED: ATOM     27  C   UNL     1      27.842 -10.560  -9.103 -0.33 -0.00    +0.000 A 
DOCKED: ATOM     28  C   UNL     1      27.119 -10.124  -8.023 -0.39 -0.00    +0.000 A 
DOCKED: ATOM     29  C   UNL     1      27.705  -9.388  -6.992 -0.44 -0.00    +0.000 A 
DOCKED: ATOM     30  C   UNL     1      29.077  -9.091  -7.098 -0.37 -0.00    +0.000 A 
DOCKED: ATOM     31  C   UNL     1      29.822  -9.535  -8.213 -0.30 -0.00    +0.000 A 
DOCKED: ATOM     32  C   UNL     1      29.202 -10.282  -9.233 -0.31 -0.00    +0.000 A 
DOCKED: ATOM     33  H   UNL     1      27.349 -11.689 -10.791 -0.15 -0.00    +0.000 HD
DOCKED: ENDBRANCH  23  24
DOCKED: ENDBRANCH  22  23
DOCKED: ENDBRANCH   1  22
DOCKED: TORSDOF 11
DOCKED: TER
DOCKED: ENDMDL
________________________________________________________________________________


	BEGINNING GENETIC ALGORITHM DOCKING 69 of 100
Run: 69 Seed: 855231139 838590516 [ Run 69 of 100 GA/GALS ]
Beginning LAMARCKIAN GENETIC ALGORITHM (LGA), with a maximum of 2500000 energy evaluations.

Final-Value: -15.262


	FINAL GENETIC ALGORITHM DOCKED STATE
	_______________________________________________


Detailed state:  trans 18.805 -10.527 -0.238 quatxyzw 0.280036 -0.612483 0.716076 -0.183521 center 0.460 0.128 -0.007 ntor 11 113.4853 -115.5293 -4.3034 179.7843 -104.0500 -174.1368 134.0216 -81.2180 52.8418 -106.0981 14.4560
State:	 18.805 -10.527  -0.238   0.285 -0.623  0.728 -158.850    113.49 -115.53   -4.30  179.78 -104.05 -174.14  134.02  -81.22   52.84 -106.10   14.46

DOCKED: MODEL       69
DOCKED: USER    Run = 69
DOCKED: USER    DPF = ligand_dock.biased.dpf
DOCKED: USER  
DOCKED: USER    Estimated Free Energy of Binding    =  -10.11 kcal/mol  [=(1)+(2)+(3)-(4)]
DOCKED: USER    Estimated Inhibition Constant, Ki   =   38.52 nM (nanomolar)  [Temperature = 298.15 K]
DOCKED: USER    
DOCKED: USER    (1) Final Intermolecular Energy     =  -13.40 kcal/mol
DOCKED: USER        vdW + Hbond + desolv Energy     =  -13.40 kcal/mol
DOCKED: USER        Electrostatic Energy            =   +0.00 kcal/mol
DOCKED: USER    (2) Final Total Internal Energy     =   -1.87 kcal/mol
DOCKED: USER    (3) Torsional Free Energy           =   +3.28 kcal/mol
DOCKED: USER    (4) Unbound System's Energy  [=(2)] =   -1.87 kcal/mol
DOCKED: USER    
DOCKED: USER    
DOCKED: USER    NEWDPF move ligand.pdbqt
DOCKED: USER    NEWDPF about 0.460000 0.128000 -0.007000
DOCKED: USER    NEWDPF tran0 18.804559 -10.527492 -0.238102
DOCKED: USER    NEWDPF quaternion0 0.280036 -0.612483 0.716076 -0.183521
DOCKED: USER    NEWDPF axisangle0 0.284874 -0.623065 0.728448 -158.850134
DOCKED: USER    NEWDPF quat0 0.284874 -0.623065 0.728448 -158.850134
DOCKED: USER    NEWDPF dihe0 113.49 -115.53 -4.30 179.78 -104.05 -174.14 134.02 -81.22 52.84 -106.10 14.46 
DOCKED: USER  keepresnum = 1 
DOCKED: USER  
DOCKED: REMARK  Name = 
DOCKED: REMARK  11 active torsions:
DOCKED: REMARK  status: ('A' for Active; 'I' for Inactive)
DOCKED: REMARK    1  A    between atoms: C_2  and  C_5
DOCKED: REMARK    2  A    between atoms: N_3  and  O_4
DOCKED: REMARK    3  A    between atoms: C_6  and  C_7
DOCKED: REMARK    4  A    between atoms: C_10  and  C_11
DOCKED: REMARK    5  A    between atoms: C_11  and  N_12
DOCKED: REMARK    6  A    between atoms: N_12  and  C_13
DOCKED: REMARK    7  A    between atoms: N_12  and  C_16
DOCKED: REMARK    8  A    between atoms: C_13  and  C_14
DOCKED: REMARK    9  A    between atoms: C_14  and  O_15
DOCKED: REMARK   10  A    between atoms: C_16  and  C_17
DOCKED: REMARK   11  A    between atoms: C_17  and  C_18
DOCKED: REMARK                            x       y       z     vdW  Elec       q    Type
DOCKED: REMARK                         _______ _______ _______ _____ _____    ______ ____
DOCKED: USER                              x       y       z     vdW  Elec       q    Type
DOCKED: USER                           _______ _______ _______ _____ _____    ______ ____
DOCKED: ROOT
DOCKED: ATOM      1  N   UNL     1      20.283 -10.217   0.140 -0.57 -0.00    +0.000 N 
DOCKED: ATOM      2  H   UNL     1      19.627  -9.462   0.345 -0.03 -0.00    +0.000 HD
DOCKED: ENDROOT
DOCKED: BRANCH   1   3
DOCKED: ATOM      3  C   UNL     1      19.510 -11.379  -0.348 -0.51 -0.00    +0.000 C 
DOCKED: BRANCH   3   7
DOCKED: ATOM      4  C   UNL     1      15.365 -11.021   0.842 -0.31 +0.00    +0.000 A 
DOCKED: ATOM      5  C   UNL     1      15.703 -11.560  -0.410 -0.35 +0.00    +0.000 A 
DOCKED: ATOM      6  C   UNL     1      17.040 -11.670  -0.802 -0.28 -0.00    +0.000 A 
DOCKED: ATOM      7  C   UNL     1      18.066 -11.248   0.056 -0.41 -0.00    +0.000 A 
DOCKED: ATOM      8  C   UNL     1      17.736 -10.728   1.315 -0.39 -0.00    +0.000 A 
DOCKED: ATOM      9  C   UNL     1      16.399 -10.617   1.709 -0.36 +0.00    +0.000 A 
DOCKED: BRANCH   4  11
DOCKED: ATOM     10  C   UNL     1      12.987 -11.757   0.730 -0.43 +0.00    +0.000 C 
DOCKED: ATOM     11  C   UNL     1      13.930 -10.936   1.214 -0.36 +0.00    +0.000 C 
DOCKED: BRANCH  10  13
DOCKED: ATOM     12  O   UNL     1      10.946 -10.592   0.876 -0.27 +0.00    +0.000 OA
DOCKED: ATOM     13  C   UNL     1      11.560 -11.668   1.105 -0.43 +0.00    +0.000 C 
DOCKED: ATOM     14  N   UNL     1      10.851 -12.768   1.691 -0.43 +0.00    +0.000 N 
DOCKED: ATOM     15  H   UNL     1      11.291 -13.644   1.779 -0.62 +0.00    +0.000 HD
DOCKED: BRANCH  14  16
DOCKED: ATOM     16  O   UNL     1       9.577 -12.604   2.122 -0.47 +0.00    +0.000 OA
DOCKED: ATOM     17  H   UNL     1       8.980 -13.134   1.571 -0.57 -0.00    +0.000 HD
DOCKED: ENDBRANCH  14  16
DOCKED: ENDBRANCH  10  13
DOCKED: ENDBRANCH   4  11
DOCKED: ENDBRANCH   3   7
DOCKED: ENDBRANCH   1   3
DOCKED: BRANCH   1  18
DOCKED: ATOM     18  C   UNL     1      20.953 -10.514   1.429 -0.36 -0.00    +0.000 C 
DOCKED: BRANCH  18  19
DOCKED: ATOM     19  C   UNL     1      20.982 -12.019   1.738 -0.64 -0.00    +0.000 C 
DOCKED: BRANCH  19  20
DOCKED: ATOM     20  O   UNL     1      19.832 -12.415   2.436 -1.50 -0.00    +0.000 OA
DOCKED: ATOM     21  H   UNL     1      19.901 -13.354   2.668 -0.51 -0.00    +0.000 HD
DOCKED: ENDBRANCH  19  20
DOCKED: ENDBRANCH  18  19
DOCKED: ENDBRANCH   1  18
DOCKED: BRANCH   1  22
DOCKED: ATOM     22  C   UNL     1      21.178  -9.665  -0.905 -0.66 -0.00    +0.000 C 
DOCKED: BRANCH  22  23
DOCKED: ATOM     23  C   UNL     1      21.374 -10.591  -2.122 -0.54 -0.00    +0.000 C 
DOCKED: BRANCH  23  24
DOCKED: ATOM     24  C   UNL     1      20.341 -10.300  -3.167 -0.43 -0.00    +0.000 A 
DOCKED: ATOM     25  C   UNL     1      19.570 -11.233  -3.856 -0.41 -0.00    +0.000 A 
DOCKED: ATOM     26  N   UNL     1      18.800 -10.617  -4.781 -0.31 -0.00    +0.000 N 
DOCKED: ATOM     27  C   UNL     1      19.088  -9.307  -4.693 -0.21 -0.00    +0.000 A 
DOCKED: ATOM     28  C   UNL     1      20.030  -9.076  -3.724 -0.29 -0.00    +0.000 A 
DOCKED: ATOM     29  C   UNL     1      20.517  -7.794  -3.461 -0.30 -0.00    +0.000 A 
DOCKED: ATOM     30  C   UNL     1      20.000  -6.729  -4.222 -0.19 -0.00    +0.000 A 
DOCKED: ATOM     31  C   UNL     1      19.027  -6.966  -5.217 -0.12 -0.00    +0.000 A 
DOCKED: ATOM     32  C   UNL     1      18.561  -8.272  -5.463 -0.13 -0.00    +0.000 A 
DOCKED: ATOM     33  H   UNL     1      18.158 -11.042  -5.394 -0.02 -0.00    +0.000 HD
DOCKED: ENDBRANCH  23  24
DOCKED: ENDBRANCH  22  23
DOCKED: ENDBRANCH   1  22
DOCKED: TORSDOF 11
DOCKED: TER
DOCKED: ENDMDL
________________________________________________________________________________


	BEGINNING GENETIC ALGORITHM DOCKING 70 of 100
Run: 70 Seed: 1637902760 1307316204 [ Run 70 of 100 GA/GALS ]
Beginning LAMARCKIAN GENETIC ALGORITHM (LGA), with a maximum of 2500000 energy evaluations.

Final-Value: -15.203


	FINAL GENETIC ALGORITHM DOCKED STATE
	_______________________________________________


Detailed state:  trans 20.875 -8.505 -4.945 quatxyzw -0.457160 -0.430862 -0.724439 -0.283815 center 0.460 0.128 -0.007 ntor 11 68.8089 180.0000 41.5450 79.7243 171.8412 16.9577 -62.6524 78.6016 155.0684 155.4685 26.3779
State:	 20.875  -8.505  -4.945  -0.477 -0.449 -0.756 -147.024     68.81  180.00   41.55   79.72  171.84   16.96  -62.65   78.60  155.07  155.47   26.38

DOCKED: MODEL       70
DOCKED: USER    Run = 70
DOCKED: USER    DPF = ligand_dock.biased.dpf
DOCKED: USER  
DOCKED: USER    Estimated Free Energy of Binding    =   -9.34 kcal/mol  [=(1)+(2)+(3)-(4)]
DOCKED: USER    Estimated Inhibition Constant, Ki   =  143.58 nM (nanomolar)  [Temperature = 298.15 K]
DOCKED: USER    
DOCKED: USER    (1) Final Intermolecular Energy     =  -12.62 kcal/mol
DOCKED: USER        vdW + Hbond + desolv Energy     =  -12.62 kcal/mol
DOCKED: USER        Electrostatic Energy            =   +0.00 kcal/mol
DOCKED: USER    (2) Final Total Internal Energy     =   -2.59 kcal/mol
DOCKED: USER    (3) Torsional Free Energy           =   +3.28 kcal/mol
DOCKED: USER    (4) Unbound System's Energy  [=(2)] =   -2.59 kcal/mol
DOCKED: USER    
DOCKED: USER    
DOCKED: USER    NEWDPF move ligand.pdbqt
DOCKED: USER    NEWDPF about 0.460000 0.128000 -0.007000
DOCKED: USER    NEWDPF tran0 20.875368 -8.505462 -4.945283
DOCKED: USER    NEWDPF quaternion0 -0.457160 -0.430862 -0.724439 -0.283815
DOCKED: USER    NEWDPF axisangle0 -0.476765 -0.449339 -0.755506 -147.023981
DOCKED: USER    NEWDPF quat0 -0.476765 -0.449339 -0.755506 -147.023981
DOCKED: USER    NEWDPF dihe0 68.81 180.00 41.55 79.72 171.84 16.96 -62.65 78.60 155.07 155.47 26.38 
DOCKED: USER  keepresnum = 1 
DOCKED: USER  
DOCKED: REMARK  Name = 
DOCKED: REMARK  11 active torsions:
DOCKED: REMARK  status: ('A' for Active; 'I' for Inactive)
DOCKED: REMARK    1  A    between atoms: C_2  and  C_5
DOCKED: REMARK    2  A    between atoms: N_3  and  O_4
DOCKED: REMARK    3  A    between atoms: C_6  and  C_7
DOCKED: REMARK    4  A    between atoms: C_10  and  C_11
DOCKED: REMARK    5  A    between atoms: C_11  and  N_12
DOCKED: REMARK    6  A    between atoms: N_12  and  C_13
DOCKED: REMARK    7  A    between atoms: N_12  and  C_16
DOCKED: REMARK    8  A    between atoms: C_13  and  C_14
DOCKED: REMARK    9  A    between atoms: C_14  and  O_15
DOCKED: REMARK   10  A    between atoms: C_16  and  C_17
DOCKED: REMARK   11  A    between atoms: C_17  and  C_18
DOCKED: REMARK                            x       y       z     vdW  Elec       q    Type
DOCKED: REMARK                         _______ _______ _______ _____ _____    ______ ____
DOCKED: USER                              x       y       z     vdW  Elec       q    Type
DOCKED: USER                           _______ _______ _______ _____ _____    ______ ____
DOCKED: ROOT
DOCKED: ATOM      1  N   UNL     1      20.263  -7.915  -6.249 -0.10 -0.00    +0.000 N 
DOCKED: ATOM      2  H   UNL     1      19.752  -8.711  -5.866 +0.01 -0.00    +0.000 HD
DOCKED: ENDROOT
DOCKED: BRANCH   1   3
DOCKED: ATOM      3  C   UNL     1      21.352  -7.570  -5.311 -0.21 -0.00    +0.000 C 
DOCKED: BRANCH   3   7
DOCKED: ATOM      4  C   UNL     1      21.014  -9.888  -1.671 -0.56 -0.00    +0.000 A 
DOCKED: ATOM      5  C   UNL     1      20.847 -10.500  -2.925 -0.48 -0.00    +0.000 A 
DOCKED: ATOM      6  C   UNL     1      20.946  -9.753  -4.102 -0.38 -0.00    +0.000 A 
DOCKED: ATOM      7  C   UNL     1      21.223  -8.380  -4.048 -0.32 -0.00    +0.000 A 
DOCKED: ATOM      8  C   UNL     1      21.413  -7.767  -2.801 -0.38 -0.00    +0.000 A 
DOCKED: ATOM      9  C   UNL     1      21.313  -8.512  -1.622 -0.46 -0.00    +0.000 A 
DOCKED: BRANCH   4  11
DOCKED: ATOM     10  C   UNL     1      20.337 -10.316   0.688 -0.64 -0.00    +0.000 C 
DOCKED: ATOM     11  C   UNL     1      20.909 -10.728  -0.452 -0.64 -0.00    +0.000 C 
DOCKED: BRANCH  10  13
DOCKED: ATOM     12  O   UNL     1      20.249 -12.410   1.761 -1.70 -0.00    +0.000 OA
DOCKED: ATOM     13  C   UNL     1      20.235 -11.158   1.898 -0.75 -0.00    +0.000 C 
DOCKED: ATOM     14  N   UNL     1      20.151 -10.600   3.216 -0.69 -0.00    +0.000 N 
DOCKED: ATOM     15  H   UNL     1      20.243  -9.628   3.344 -0.56 -0.00    +0.000 HD
DOCKED: BRANCH  14  16
DOCKED: ATOM     16  O   UNL     1      19.945 -11.406   4.285 -0.75 -0.00    +0.000 OA
DOCKED: ATOM     17  H   UNL     1      20.732 -11.954   4.432 -0.45 -0.00    +0.000 HD
DOCKED: ENDBRANCH  14  16
DOCKED: ENDBRANCH  10  13
DOCKED: ENDBRANCH   4  11
DOCKED: ENDBRANCH   3   7
DOCKED: ENDBRANCH   1   3
DOCKED: BRANCH   1  18
DOCKED: ATOM     18  C   UNL     1      19.266  -6.822  -6.349 -0.08 -0.00    +0.000 C 
DOCKED: BRANCH  18  19
DOCKED: ATOM     19  C   UNL     1      18.199  -6.903  -5.246 -0.13 -0.00    +0.000 C 
DOCKED: BRANCH  19  20
DOCKED: ATOM     20  O   UNL     1      17.765  -8.222  -5.057 -0.16 -0.00    +0.000 OA
DOCKED: ATOM     21  H   UNL     1      17.958  -8.500  -4.148 -0.01 -0.00    +0.000 HD
DOCKED: ENDBRANCH  19  20
DOCKED: ENDBRANCH  18  19
DOCKED: ENDBRANCH   1  18
DOCKED: BRANCH   1  22
DOCKED: ATOM     22  C   UNL     1      20.782  -8.393  -7.553 -0.10 -0.00    +0.000 C 
DOCKED: BRANCH  22  23
DOCKED: ATOM     23  C   UNL     1      21.047  -9.911  -7.610 -0.24 -0.00    +0.000 C 
DOCKED: BRANCH  23  24
DOCKED: ATOM     24  C   UNL     1      22.520 -10.179  -7.660 -0.25 -0.00    +0.000 A 
DOCKED: ATOM     25  C   UNL     1      23.527  -9.396  -7.103 -0.23 -0.00    +0.000 A 
DOCKED: ATOM     26  N   UNL     1      24.743  -9.901  -7.413 -0.30 -0.00    +0.000 N 
DOCKED: ATOM     27  C   UNL     1      24.513 -10.986  -8.173 -0.35 -0.00    +0.000 A 
DOCKED: ATOM     28  C   UNL     1      23.168 -11.184  -8.351 -0.31 -0.00    +0.000 A 
DOCKED: ATOM     29  C   UNL     1      22.675 -12.233  -9.128 -0.30 -0.00    +0.000 A 
DOCKED: ATOM     30  C   UNL     1      23.608 -13.101  -9.725 -0.36 -0.00    +0.000 A 
DOCKED: ATOM     31  C   UNL     1      24.994 -12.901  -9.537 -0.33 -0.00    +0.000 A 
DOCKED: ATOM     32  C   UNL     1      25.460 -11.829  -8.753 -0.38 -0.00    +0.000 A 
DOCKED: ATOM     33  H   UNL     1      25.619  -9.546  -7.138 -0.03 -0.00    +0.000 HD
DOCKED: ENDBRANCH  23  24
DOCKED: ENDBRANCH  22  23
DOCKED: ENDBRANCH   1  22
DOCKED: TORSDOF 11
DOCKED: TER
DOCKED: ENDMDL
________________________________________________________________________________


	BEGINNING GENETIC ALGORITHM DOCKING 71 of 100
Run: 71 Seed: 798270051 274554953 [ Run 71 of 100 GA/GALS ]
Beginning LAMARCKIAN GENETIC ALGORITHM (LGA), with a maximum of 2500000 energy evaluations.

Final-Value: -16.282


	FINAL GENETIC ALGORITHM DOCKED STATE
	_______________________________________________


Detailed state:  trans 13.761 -8.807 5.131 quatxyzw 0.950451 -0.205326 -0.129042 -0.194506 center 0.460 0.128 -0.007 ntor 11 -19.8670 -114.5755 119.1905 26.1655 144.7273 -106.0248 20.3724 -13.4365 5.7856 28.9619 -27.4213
State:	 13.761  -8.807   5.131   0.969 -0.209 -0.132 -157.568    -19.87 -114.58  119.19   26.17  144.73 -106.02   20.37  -13.44    5.79   28.96  -27.42

DOCKED: MODEL       71
DOCKED: USER    Run = 71
DOCKED: USER    DPF = ligand_dock.biased.dpf
DOCKED: USER  
DOCKED: USER    Estimated Free Energy of Binding    =  -10.49 kcal/mol  [=(1)+(2)+(3)-(4)]
DOCKED: USER    Estimated Inhibition Constant, Ki   =   20.60 nM (nanomolar)  [Temperature = 298.15 K]
DOCKED: USER    
DOCKED: USER    (1) Final Intermolecular Energy     =  -13.77 kcal/mol
DOCKED: USER        vdW + Hbond + desolv Energy     =  -13.77 kcal/mol
DOCKED: USER        Electrostatic Energy            =   +0.00 kcal/mol
DOCKED: USER    (2) Final Total Internal Energy     =   -2.52 kcal/mol
DOCKED: USER    (3) Torsional Free Energy           =   +3.28 kcal/mol
DOCKED: USER    (4) Unbound System's Energy  [=(2)] =   -2.52 kcal/mol
DOCKED: USER    
DOCKED: USER    
DOCKED: USER    NEWDPF move ligand.pdbqt
DOCKED: USER    NEWDPF about 0.460000 0.128000 -0.007000
DOCKED: USER    NEWDPF tran0 13.760719 -8.806830 5.131232
DOCKED: USER    NEWDPF quaternion0 0.950451 -0.205326 -0.129042 -0.194506
DOCKED: USER    NEWDPF axisangle0 0.968957 -0.209323 -0.131554 -157.568316
DOCKED: USER    NEWDPF quat0 0.968957 -0.209323 -0.131554 -157.568316
DOCKED: USER    NEWDPF dihe0 -19.87 -114.58 119.19 26.17 144.73 -106.02 20.37 -13.44 5.79 28.96 -27.42 
DOCKED: USER  keepresnum = 1 
DOCKED: USER  
DOCKED: REMARK  Name = 
DOCKED: REMARK  11 active torsions:
DOCKED: REMARK  status: ('A' for Active; 'I' for Inactive)
DOCKED: REMARK    1  A    between atoms: C_2  and  C_5
DOCKED: REMARK    2  A    between atoms: N_3  and  O_4
DOCKED: REMARK    3  A    between atoms: C_6  and  C_7
DOCKED: REMARK    4  A    between atoms: C_10  and  C_11
DOCKED: REMARK    5  A    between atoms: C_11  and  N_12
DOCKED: REMARK    6  A    between atoms: N_12  and  C_13
DOCKED: REMARK    7  A    between atoms: N_12  and  C_16
DOCKED: REMARK    8  A    between atoms: C_13  and  C_14
DOCKED: REMARK    9  A    between atoms: C_14  and  O_15
DOCKED: REMARK   10  A    between atoms: C_16  and  C_17
DOCKED: REMARK   11  A    between atoms: C_17  and  C_18
DOCKED: REMARK                            x       y       z     vdW  Elec       q    Type
DOCKED: REMARK                         _______ _______ _______ _____ _____    ______ ____
DOCKED: USER                              x       y       z     vdW  Elec       q    Type
DOCKED: USER                           _______ _______ _______ _____ _____    ______ ____
DOCKED: ROOT
DOCKED: ATOM      1  N   UNL     1      13.362  -7.346   4.768 -0.28 +0.00    +0.000 N 
DOCKED: ATOM      2  H   UNL     1      14.108  -7.420   5.460 -0.02 +0.00    +0.000 HD
DOCKED: ENDROOT
DOCKED: BRANCH   1   3
DOCKED: ATOM      3  C   UNL     1      13.032  -8.709   4.297 -0.31 +0.00    +0.000 C 
DOCKED: BRANCH   3   7
DOCKED: ATOM      4  C   UNL     1      16.515 -10.506   2.460 -0.40 +0.00    +0.000 A 
DOCKED: ATOM      5  C   UNL     1      15.696  -9.629   1.730 -0.29 +0.00    +0.000 A 
DOCKED: ATOM      6  C   UNL     1      14.565  -9.053   2.316 -0.25 +0.00    +0.000 A 
DOCKED: ATOM      7  C   UNL     1      14.237  -9.339   3.649 -0.31 +0.00    +0.000 A 
DOCKED: ATOM      8  C   UNL     1      15.061 -10.197   4.390 -0.43 +0.00    +0.000 A 
DOCKED: ATOM      9  C   UNL     1      16.192 -10.775   3.805 -0.45 +0.00    +0.000 A 
DOCKED: BRANCH   4  11
DOCKED: ATOM     10  C   UNL     1      18.939 -10.558   1.889 -0.59 -0.00    +0.000 C 
DOCKED: ATOM     11  C   UNL     1      17.709 -11.082   1.794 -0.50 -0.00    +0.000 C 
DOCKED: BRANCH  10  13
DOCKED: ATOM     12  O   UNL     1      20.373 -12.360   1.396 -1.55 -0.00    +0.000 OA
DOCKED: ATOM     13  C   UNL     1      20.124 -11.137   1.222 -0.71 -0.00    +0.000 C 
DOCKED: ATOM     14  N   UNL     1      20.978 -10.364   0.368 -0.65 -0.00    +0.000 N 
DOCKED: ATOM     15  H   UNL     1      20.737  -9.437   0.143 -0.07 -0.00    +0.000 HD
DOCKED: BRANCH  14  16
DOCKED: ATOM     16  O   UNL     1      22.115 -10.907  -0.130 -0.70 -0.00    +0.000 OA
DOCKED: ATOM     17  H   UNL     1      22.370 -11.671   0.410 -0.53 -0.00    +0.000 HD
DOCKED: ENDBRANCH  14  16
DOCKED: ENDBRANCH  10  13
DOCKED: ENDBRANCH   4  11
DOCKED: ENDBRANCH   3   7
DOCKED: ENDBRANCH   1   3
DOCKED: BRANCH   1  18
DOCKED: ATOM     18  C   UNL     1      13.923  -6.516   3.674 -0.26 +0.00    +0.000 C 
DOCKED: BRANCH  18  19
DOCKED: ATOM     19  C   UNL     1      15.103  -5.652   4.145 -0.39 +0.00    +0.000 C 
DOCKED: BRANCH  19  20
DOCKED: ATOM     20  O   UNL     1      15.864  -6.318   5.117 -0.57 +0.00    +0.000 OA
DOCKED: ATOM     21  H   UNL     1      16.556  -5.726   5.449 -0.64 -0.00    +0.000 HD
DOCKED: ENDBRANCH  19  20
DOCKED: ENDBRANCH  18  19
DOCKED: ENDBRANCH   1  18
DOCKED: BRANCH   1  22
DOCKED: ATOM     22  C   UNL     1      12.233  -6.720   5.496 -0.25 +0.00    +0.000 C 
DOCKED: BRANCH  22  23
DOCKED: ATOM     23  C   UNL     1      10.955  -6.545   4.650 -0.18 +0.00    +0.000 C 
DOCKED: BRANCH  23  24
DOCKED: ATOM     24  C   UNL     1       9.756  -6.421   5.540 -0.21 +0.00    +0.000 A 
DOCKED: ATOM     25  C   UNL     1       8.956  -5.293   5.705 -0.28 +0.00    +0.000 A 
DOCKED: ATOM     26  N   UNL     1       8.012  -5.519   6.646 -0.36 +0.00    +0.000 N 
DOCKED: ATOM     27  C   UNL     1       8.217  -6.773   7.086 -0.39 +0.00    +0.000 A 
DOCKED: ATOM     28  C   UNL     1       9.277  -7.353   6.439 -0.27 +0.00    +0.000 A 
DOCKED: ATOM     29  C   UNL     1       9.707  -8.646   6.741 -0.33 +0.00    +0.000 A 
DOCKED: ATOM     30  C   UNL     1       9.005  -9.353   7.736 -0.53 +0.00    +0.000 A 
DOCKED: ATOM     31  C   UNL     1       7.910  -8.758   8.400 -0.49 +0.00    +0.000 A 
DOCKED: ATOM     32  C   UNL     1       7.506  -7.449   8.076 -0.54 +0.00    +0.000 A 
DOCKED: ATOM     33  H   UNL     1       7.315  -4.893   6.947 -0.02 +0.00    +0.000 HD
DOCKED: ENDBRANCH  23  24
DOCKED: ENDBRANCH  22  23
DOCKED: ENDBRANCH   1  22
DOCKED: TORSDOF 11
DOCKED: TER
DOCKED: ENDMDL
________________________________________________________________________________


	BEGINNING GENETIC ALGORITHM DOCKING 72 of 100
Run: 72 Seed: 1281761391 1900193904 [ Run 72 of 100 GA/GALS ]
Beginning LAMARCKIAN GENETIC ALGORITHM (LGA), with a maximum of 2500000 energy evaluations.

Final-Value: -15.826


	FINAL GENETIC ALGORITHM DOCKED STATE
	_______________________________________________


Detailed state:  trans 20.559 -8.438 -4.705 quatxyzw -0.515592 -0.605707 -0.604443 0.043949 center 0.460 0.128 -0.007 ntor 11 29.5562 130.0576 68.4550 74.3309 72.1028 -113.7497 173.2914 -140.8625 171.2445 1.1730 66.8042
State:	 20.559  -8.438  -4.705  -0.516 -0.606 -0.605 174.962     29.56  130.06   68.46   74.33   72.10 -113.75  173.29 -140.86  171.24    1.17   66.80

DOCKED: MODEL       72
DOCKED: USER    Run = 72
DOCKED: USER    DPF = ligand_dock.biased.dpf
DOCKED: USER  
DOCKED: USER    Estimated Free Energy of Binding    =   -8.93 kcal/mol  [=(1)+(2)+(3)-(4)]
DOCKED: USER    Estimated Inhibition Constant, Ki   =  286.61 nM (nanomolar)  [Temperature = 298.15 K]
DOCKED: USER    
DOCKED: USER    (1) Final Intermolecular Energy     =  -12.21 kcal/mol
DOCKED: USER        vdW + Hbond + desolv Energy     =  -12.21 kcal/mol
DOCKED: USER        Electrostatic Energy            =   +0.00 kcal/mol
DOCKED: USER    (2) Final Total Internal Energy     =   -3.62 kcal/mol
DOCKED: USER    (3) Torsional Free Energy           =   +3.28 kcal/mol
DOCKED: USER    (4) Unbound System's Energy  [=(2)] =   -3.62 kcal/mol
DOCKED: USER    
DOCKED: USER    
DOCKED: USER    NEWDPF move ligand.pdbqt
DOCKED: USER    NEWDPF about 0.460000 0.128000 -0.007000
DOCKED: USER    NEWDPF tran0 20.558645 -8.438010 -4.704993
DOCKED: USER    NEWDPF quaternion0 -0.515592 -0.605707 -0.604443 0.043949
DOCKED: USER    NEWDPF axisangle0 -0.516091 -0.606293 -0.605028 174.962216
DOCKED: USER    NEWDPF quat0 -0.516091 -0.606293 -0.605028 174.962216
DOCKED: USER    NEWDPF dihe0 29.56 130.06 68.46 74.33 72.10 -113.75 173.29 -140.86 171.24 1.17 66.80 
DOCKED: USER  keepresnum = 1 
DOCKED: USER  
DOCKED: REMARK  Name = 
DOCKED: REMARK  11 active torsions:
DOCKED: REMARK  status: ('A' for Active; 'I' for Inactive)
DOCKED: REMARK    1  A    between atoms: C_2  and  C_5
DOCKED: REMARK    2  A    between atoms: N_3  and  O_4
DOCKED: REMARK    3  A    between atoms: C_6  and  C_7
DOCKED: REMARK    4  A    between atoms: C_10  and  C_11
DOCKED: REMARK    5  A    between atoms: C_11  and  N_12
DOCKED: REMARK    6  A    between atoms: N_12  and  C_13
DOCKED: REMARK    7  A    between atoms: N_12  and  C_16
DOCKED: REMARK    8  A    between atoms: C_13  and  C_14
DOCKED: REMARK    9  A    between atoms: C_14  and  O_15
DOCKED: REMARK   10  A    between atoms: C_16  and  C_17
DOCKED: REMARK   11  A    between atoms: C_17  and  C_18
DOCKED: REMARK                            x       y       z     vdW  Elec       q    Type
DOCKED: REMARK                         _______ _______ _______ _____ _____    ______ ____
DOCKED: USER                              x       y       z     vdW  Elec       q    Type
DOCKED: USER                           _______ _______ _______ _____ _____    ______ ____
DOCKED: ROOT
DOCKED: ATOM      1  N   UNL     1      20.275  -8.751  -6.204 -0.13 -0.00    +0.000 N 
DOCKED: ATOM      2  H   UNL     1      19.500  -8.962  -5.575 +0.01 -0.00    +0.000 HD
DOCKED: ENDROOT
DOCKED: BRANCH   1   3
DOCKED: ATOM      3  C   UNL     1      21.348  -8.108  -5.415 -0.23 -0.00    +0.000 C 
DOCKED: BRANCH   3   7
DOCKED: ATOM      4  C   UNL     1      21.377  -9.731  -1.402 -0.56 -0.00    +0.000 A 
DOCKED: ATOM      5  C   UNL     1      20.963  -8.409  -1.634 -0.40 -0.00    +0.000 A 
DOCKED: ATOM      6  C   UNL     1      20.960  -7.878  -2.927 -0.37 -0.00    +0.000 A 
DOCKED: ATOM      7  C   UNL     1      21.366  -8.664  -4.015 -0.33 -0.00    +0.000 A 
DOCKED: ATOM      8  C   UNL     1      21.760  -9.991  -3.794 -0.34 -0.00    +0.000 A 
DOCKED: ATOM      9  C   UNL     1      21.765 -10.523  -2.501 -0.32 -0.00    +0.000 A 
DOCKED: BRANCH   4  11
DOCKED: ATOM     10  C   UNL     1      20.273 -10.814   0.551 -0.68 -0.00    +0.000 C 
DOCKED: ATOM     11  C   UNL     1      21.351 -10.249  -0.012 -0.70 -0.00    +0.000 C 
DOCKED: BRANCH  10  13
DOCKED: ATOM     12  O   UNL     1      19.917 -12.527   2.127 -1.62 -0.00    +0.000 OA
DOCKED: ATOM     13  C   UNL     1      20.255 -11.329   1.937 -0.77 -0.00    +0.000 C 
DOCKED: ATOM     14  N   UNL     1      20.633 -10.521   3.059 -0.64 -0.00    +0.000 N 
DOCKED: ATOM     15  H   UNL     1      20.996  -9.618   2.914 -0.60 -0.00    +0.000 HD
DOCKED: BRANCH  14  16
DOCKED: ATOM     16  O   UNL     1      20.492 -10.998   4.319 -0.71 -0.00    +0.000 OA
DOCKED: ATOM     17  H   UNL     1      20.584 -11.963   4.311 -0.44 -0.00    +0.000 HD
DOCKED: ENDBRANCH  14  16
DOCKED: ENDBRANCH  10  13
DOCKED: ENDBRANCH   4  11
DOCKED: ENDBRANCH   3   7
DOCKED: ENDBRANCH   1   3
DOCKED: BRANCH   1  18
DOCKED: ATOM     18  C   UNL     1      19.718  -7.824  -7.217 -0.07 -0.00    +0.000 C 
DOCKED: BRANCH  18  19
DOCKED: ATOM     19  C   UNL     1      18.524  -7.019  -6.677 -0.07 -0.00    +0.000 C 
DOCKED: BRANCH  19  20
DOCKED: ATOM     20  O   UNL     1      18.016  -7.593  -5.503 -0.13 -0.00    +0.000 OA
DOCKED: ATOM     21  H   UNL     1      18.657  -7.479  -4.784 -0.01 -0.00    +0.000 HD
DOCKED: ENDBRANCH  19  20
DOCKED: ENDBRANCH  18  19
DOCKED: ENDBRANCH   1  18
DOCKED: BRANCH   1  22
DOCKED: ATOM     22  C   UNL     1      20.692 -10.069  -6.741 -0.28 -0.00    +0.000 C 
DOCKED: BRANCH  22  23
DOCKED: ATOM     23  C   UNL     1      20.093 -11.275  -5.992 -0.34 -0.00    +0.000 C 
DOCKED: BRANCH  23  24
DOCKED: ATOM     24  C   UNL     1      18.744 -10.926  -5.441 -0.34 -0.00    +0.000 A 
DOCKED: ATOM     25  C   UNL     1      18.466 -10.452  -4.161 -0.28 -0.00    +0.000 A 
DOCKED: ATOM     26  N   UNL     1      17.131 -10.321  -3.988 -0.23 -0.00    +0.000 N 
DOCKED: ATOM     27  C   UNL     1      16.564 -10.720  -5.139 -0.21 -0.00    +0.000 A 
DOCKED: ATOM     28  C   UNL     1      17.516 -11.103  -6.048 -0.31 -0.00    +0.000 A 
DOCKED: ATOM     29  C   UNL     1      17.176 -11.585  -7.313 -0.35 -0.00    +0.000 A 
DOCKED: ATOM     30  C   UNL     1      15.809 -11.659  -7.639 -0.30 -0.00    +0.000 A 
DOCKED: ATOM     31  C   UNL     1      14.827 -11.260  -6.705 -0.22 -0.00    +0.000 A 
DOCKED: ATOM     32  C   UNL     1      15.203 -10.785  -5.434 -0.22 -0.00    +0.000 A 
DOCKED: ATOM     33  H   UNL     1      16.669  -9.998  -3.181 -0.01 -0.00    +0.000 HD
DOCKED: ENDBRANCH  23  24
DOCKED: ENDBRANCH  22  23
DOCKED: ENDBRANCH   1  22
DOCKED: TORSDOF 11
DOCKED: TER
DOCKED: ENDMDL
________________________________________________________________________________


	BEGINNING GENETIC ALGORITHM DOCKING 73 of 100
Run: 73 Seed: 1062048045 302176891 [ Run 73 of 100 GA/GALS ]
Beginning LAMARCKIAN GENETIC ALGORITHM (LGA), with a maximum of 2500000 energy evaluations.

Final-Value: -14.959


	FINAL GENETIC ALGORITHM DOCKED STATE
	_______________________________________________


Detailed state:  trans 17.686 -10.888 0.168 quatxyzw -0.529214 0.496471 -0.490100 0.482960 center 0.460 0.128 -0.007 ntor 11 -11.5850 138.9247 163.9476 79.7262 47.7751 -3.4074 -115.7988 -58.7138 -95.2101 -172.8310 43.9211
State:	 17.686 -10.888   0.168  -0.604  0.567 -0.560 122.242    -11.59  138.92  163.95   79.73   47.78   -3.41 -115.80  -58.71  -95.21 -172.83   43.92

DOCKED: MODEL       73
DOCKED: USER    Run = 73
DOCKED: USER    DPF = ligand_dock.biased.dpf
DOCKED: USER  
DOCKED: USER    Estimated Free Energy of Binding    =   -9.61 kcal/mol  [=(1)+(2)+(3)-(4)]
DOCKED: USER    Estimated Inhibition Constant, Ki   =   89.98 nM (nanomolar)  [Temperature = 298.15 K]
DOCKED: USER    
DOCKED: USER    (1) Final Intermolecular Energy     =  -12.89 kcal/mol
DOCKED: USER        vdW + Hbond + desolv Energy     =  -12.89 kcal/mol
DOCKED: USER        Electrostatic Energy            =   +0.00 kcal/mol
DOCKED: USER    (2) Final Total Internal Energy     =   -2.07 kcal/mol
DOCKED: USER    (3) Torsional Free Energy           =   +3.28 kcal/mol
DOCKED: USER    (4) Unbound System's Energy  [=(2)] =   -2.07 kcal/mol
DOCKED: USER    
DOCKED: USER    
DOCKED: USER    NEWDPF move ligand.pdbqt
DOCKED: USER    NEWDPF about 0.460000 0.128000 -0.007000
DOCKED: USER    NEWDPF tran0 17.686490 -10.887886 0.167529
DOCKED: USER    NEWDPF quaternion0 -0.529214 0.496471 -0.490100 0.482960
DOCKED: USER    NEWDPF axisangle0 -0.604372 0.566980 -0.559704 122.242153
DOCKED: USER    NEWDPF quat0 -0.604372 0.566980 -0.559704 122.242153
DOCKED: USER    NEWDPF dihe0 -11.59 138.92 163.95 79.73 47.78 -3.41 -115.80 -58.71 -95.21 -172.83 43.92 
DOCKED: USER  keepresnum = 1 
DOCKED: USER  
DOCKED: REMARK  Name = 
DOCKED: REMARK  11 active torsions:
DOCKED: REMARK  status: ('A' for Active; 'I' for Inactive)
DOCKED: REMARK    1  A    between atoms: C_2  and  C_5
DOCKED: REMARK    2  A    between atoms: N_3  and  O_4
DOCKED: REMARK    3  A    between atoms: C_6  and  C_7
DOCKED: REMARK    4  A    between atoms: C_10  and  C_11
DOCKED: REMARK    5  A    between atoms: C_11  and  N_12
DOCKED: REMARK    6  A    between atoms: N_12  and  C_13
DOCKED: REMARK    7  A    between atoms: N_12  and  C_16
DOCKED: REMARK    8  A    between atoms: C_13  and  C_14
DOCKED: REMARK    9  A    between atoms: C_14  and  O_15
DOCKED: REMARK   10  A    between atoms: C_16  and  C_17
DOCKED: REMARK   11  A    between atoms: C_17  and  C_18
DOCKED: REMARK                            x       y       z     vdW  Elec       q    Type
DOCKED: REMARK                         _______ _______ _______ _____ _____    ______ ____
DOCKED: USER                              x       y       z     vdW  Elec       q    Type
DOCKED: USER                           _______ _______ _______ _____ _____    ______ ____
DOCKED: ROOT
DOCKED: ATOM      1  N   UNL     1      18.905 -10.780  -0.796 -0.41 -0.00    +0.000 N 
DOCKED: ATOM      2  H   UNL     1      18.787  -9.980  -0.174 -0.01 -0.00    +0.000 HD
DOCKED: ENDROOT
DOCKED: BRANCH   1   3
DOCKED: ATOM      3  C   UNL     1      17.896 -11.799  -0.435 -0.48 -0.00    +0.000 C 
DOCKED: BRANCH   3   7
DOCKED: ATOM      4  C   UNL     1      15.023 -10.167   2.361 -0.32 +0.00    +0.000 A 
DOCKED: ATOM      5  C   UNL     1      14.962  -9.831   0.999 -0.24 +0.00    +0.000 A 
DOCKED: ATOM      6  C   UNL     1      15.893 -10.348   0.094 -0.27 +0.00    +0.000 A 
DOCKED: ATOM      7  C   UNL     1      16.900 -11.220   0.535 -0.37 +0.00    +0.000 A 
DOCKED: ATOM      8  C   UNL     1      16.953 -11.576   1.890 -0.35 +0.00    +0.000 A 
DOCKED: ATOM      9  C   UNL     1      16.024 -11.059   2.797 -0.44 +0.00    +0.000 A 
DOCKED: BRANCH   4  11
DOCKED: ATOM     10  C   UNL     1      14.141  -9.560   4.611 -0.44 +0.00    +0.000 C 
DOCKED: ATOM     11  C   UNL     1      14.004  -9.598   3.278 -0.34 +0.00    +0.000 C 
DOCKED: BRANCH  10  13
DOCKED: ATOM     12  O   UNL     1      13.506  -8.459   6.593 -0.54 +0.00    +0.000 OA
DOCKED: ATOM     13  C   UNL     1      13.122  -8.992   5.518 -0.46 +0.00    +0.000 C 
DOCKED: ATOM     14  N   UNL     1      11.724  -9.003   5.203 -0.28 +0.00    +0.000 N 
DOCKED: ATOM     15  H   UNL     1      11.422  -9.322   4.322 -0.01 +0.00    +0.000 HD
DOCKED: BRANCH  14  16
DOCKED: ATOM     16  O   UNL     1      10.817  -8.573   6.113 -0.40 +0.00    +0.000 OA
DOCKED: ATOM     17  H   UNL     1      11.250  -8.470   6.975 +0.02 +0.00    +0.000 HD
DOCKED: ENDBRANCH  14  16
DOCKED: ENDBRANCH  10  13
DOCKED: ENDBRANCH   4  11
DOCKED: ENDBRANCH   3   7
DOCKED: ENDBRANCH   1   3
DOCKED: BRANCH   1  18
DOCKED: ATOM     18  C   UNL     1      20.282 -11.269  -0.548 -0.34 -0.00    +0.000 C 
DOCKED: BRANCH  18  19
DOCKED: ATOM     19  C   UNL     1      20.728 -11.044   0.906 -0.70 -0.00    +0.000 C 
DOCKED: BRANCH  19  20
DOCKED: ATOM     20  O   UNL     1      20.196 -12.023   1.757 -1.71 -0.00    +0.000 OA
DOCKED: ATOM     21  H   UNL     1      20.706 -12.843   1.666 -0.57 -0.00    +0.000 HD
DOCKED: ENDBRANCH  19  20
DOCKED: ENDBRANCH  18  19
DOCKED: ENDBRANCH   1  18
DOCKED: BRANCH   1  22
DOCKED: ATOM     22  C   UNL     1      18.683 -10.235  -2.157 -0.23 -0.00    +0.000 C 
DOCKED: BRANCH  22  23
DOCKED: ATOM     23  C   UNL     1      19.908  -9.516  -2.757 -0.37 -0.00    +0.000 C 
DOCKED: BRANCH  23  24
DOCKED: ATOM     24  C   UNL     1      20.441 -10.286  -3.926 -0.41 -0.00    +0.000 A 
DOCKED: ATOM     25  C   UNL     1      20.264 -11.644  -4.178 -0.31 -0.00    +0.000 A 
DOCKED: ATOM     26  N   UNL     1      20.952 -12.012  -5.282 -0.49 -0.00    +0.000 N 
DOCKED: ATOM     27  C   UNL     1      21.573 -10.903  -5.721 -0.43 -0.00    +0.000 A 
DOCKED: ATOM     28  C   UNL     1      21.291  -9.830  -4.915 -0.35 -0.00    +0.000 A 
DOCKED: ATOM     29  C   UNL     1      21.841  -8.569  -5.147 -0.23 -0.00    +0.000 A 
DOCKED: ATOM     30  C   UNL     1      22.699  -8.423  -6.254 -0.17 -0.00    +0.000 A 
DOCKED: ATOM     31  C   UNL     1      22.987  -9.526  -7.087 -0.24 -0.00    +0.000 A 
DOCKED: ATOM     32  C   UNL     1      22.421 -10.788  -6.822 -0.36 -0.00    +0.000 A 
DOCKED: ATOM     33  H   UNL     1      20.990 -12.910  -5.684 -0.65 -0.00    +0.000 HD
DOCKED: ENDBRANCH  23  24
DOCKED: ENDBRANCH  22  23
DOCKED: ENDBRANCH   1  22
DOCKED: TORSDOF 11
DOCKED: TER
DOCKED: ENDMDL
________________________________________________________________________________


	BEGINNING GENETIC ALGORITHM DOCKING 74 of 100
Run: 74 Seed: 74502207 1922475243 [ Run 74 of 100 GA/GALS ]
Beginning LAMARCKIAN GENETIC ALGORITHM (LGA), with a maximum of 2500000 energy evaluations.

Final-Value: -16.617


	FINAL GENETIC ALGORITHM DOCKED STATE
	_______________________________________________


Detailed state:  trans 13.135 -10.393 -1.287 quatxyzw 0.957648 -0.031389 0.073167 -0.276714 center 0.460 0.128 -0.007 ntor 11 2.0621 166.5695 69.8238 42.9281 -180.0000 -147.5478 -179.8192 152.6200 158.4800 82.8612 11.4425
State:	 13.135 -10.393  -1.287   0.997 -0.033  0.076 -147.872      2.06  166.57   69.82   42.93 -180.00 -147.55 -179.82  152.62  158.48   82.86   11.44

DOCKED: MODEL       74
DOCKED: USER    Run = 74
DOCKED: USER    DPF = ligand_dock.biased.dpf
DOCKED: USER  
DOCKED: USER    Estimated Free Energy of Binding    =   -8.63 kcal/mol  [=(1)+(2)+(3)-(4)]
DOCKED: USER    Estimated Inhibition Constant, Ki   =  475.35 nM (nanomolar)  [Temperature = 298.15 K]
DOCKED: USER    
DOCKED: USER    (1) Final Intermolecular Energy     =  -11.91 kcal/mol
DOCKED: USER        vdW + Hbond + desolv Energy     =  -11.91 kcal/mol
DOCKED: USER        Electrostatic Energy            =   +0.00 kcal/mol
DOCKED: USER    (2) Final Total Internal Energy     =   -4.71 kcal/mol
DOCKED: USER    (3) Torsional Free Energy           =   +3.28 kcal/mol
DOCKED: USER    (4) Unbound System's Energy  [=(2)] =   -4.71 kcal/mol
DOCKED: USER    
DOCKED: USER    
DOCKED: USER    NEWDPF move ligand.pdbqt
DOCKED: USER    NEWDPF about 0.460000 0.128000 -0.007000
DOCKED: USER    NEWDPF tran0 13.134808 -10.393477 -1.286692
DOCKED: USER    NEWDPF quaternion0 0.957648 -0.031389 0.073167 -0.276714
DOCKED: USER    NEWDPF axisangle0 0.996562 -0.032664 0.076140 -147.871614
DOCKED: USER    NEWDPF quat0 0.996562 -0.032664 0.076140 -147.871614
DOCKED: USER    NEWDPF dihe0 2.06 166.57 69.82 42.93 -180.00 -147.55 -179.82 152.62 158.48 82.86 11.44 
DOCKED: USER  keepresnum = 1 
DOCKED: USER  
DOCKED: REMARK  Name = 
DOCKED: REMARK  11 active torsions:
DOCKED: REMARK  status: ('A' for Active; 'I' for Inactive)
DOCKED: REMARK    1  A    between atoms: C_2  and  C_5
DOCKED: REMARK    2  A    between atoms: N_3  and  O_4
DOCKED: REMARK    3  A    between atoms: C_6  and  C_7
DOCKED: REMARK    4  A    between atoms: C_10  and  C_11
DOCKED: REMARK    5  A    between atoms: C_11  and  N_12
DOCKED: REMARK    6  A    between atoms: N_12  and  C_13
DOCKED: REMARK    7  A    between atoms: N_12  and  C_16
DOCKED: REMARK    8  A    between atoms: C_13  and  C_14
DOCKED: REMARK    9  A    between atoms: C_14  and  O_15
DOCKED: REMARK   10  A    between atoms: C_16  and  C_17
DOCKED: REMARK   11  A    between atoms: C_17  and  C_18
DOCKED: REMARK                            x       y       z     vdW  Elec       q    Type
DOCKED: REMARK                         _______ _______ _______ _____ _____    ______ ____
DOCKED: USER                              x       y       z     vdW  Elec       q    Type
DOCKED: USER                           _______ _______ _______ _____ _____    ______ ____
DOCKED: ROOT
DOCKED: ATOM      1  N   UNL     1      12.336  -9.318  -2.081 -0.17 -0.00    +0.000 N 
DOCKED: ATOM      2  H   UNL     1      12.792  -8.968  -1.238 +0.00 -0.00    +0.000 HD
DOCKED: ENDROOT
DOCKED: BRANCH   1   3
DOCKED: ATOM      3  C   UNL     1      12.729 -10.732  -2.265 -0.09 -0.00    +0.000 C 
DOCKED: BRANCH   3   7
DOCKED: ATOM      4  C   UNL     1      16.416 -11.542  -0.148 -0.36 +0.00    +0.000 A 
DOCKED: ATOM      5  C   UNL     1      16.142 -10.253  -0.635 -0.25 -0.00    +0.000 A 
DOCKED: ATOM      6  C   UNL     1      14.956  -9.989  -1.326 -0.24 -0.00    +0.000 A 
DOCKED: ATOM      7  C   UNL     1      14.018 -11.010  -1.538 -0.30 -0.00    +0.000 A 
DOCKED: ATOM      8  C   UNL     1      14.276 -12.293  -1.037 -0.33 +0.00    +0.000 A 
DOCKED: ATOM      9  C   UNL     1      15.462 -12.560  -0.345 -0.47 +0.00    +0.000 A 
DOCKED: BRANCH   4  11
DOCKED: ATOM     10  C   UNL     1      18.071 -11.036   1.645 -0.52 -0.00    +0.000 C 
DOCKED: ATOM     11  C   UNL     1      17.685 -11.767   0.589 -0.52 -0.00    +0.000 C 
DOCKED: BRANCH  10  13
DOCKED: ATOM     12  O   UNL     1      19.931 -12.363   2.212 -1.64 -0.00    +0.000 OA
DOCKED: ATOM     13  C   UNL     1      19.335 -11.266   2.375 -0.69 -0.00    +0.000 C 
DOCKED: ATOM     14  N   UNL     1      19.916 -10.275   3.234 -0.63 -0.00    +0.000 N 
DOCKED: ATOM     15  H   UNL     1      19.515  -9.378   3.288 -0.57 -0.00    +0.000 HD
DOCKED: BRANCH  14  16
DOCKED: ATOM     16  O   UNL     1      21.014 -10.571   3.969 -0.69 -0.00    +0.000 OA
DOCKED: ATOM     17  H   UNL     1      21.297 -11.478   3.775 -0.53 -0.00    +0.000 HD
DOCKED: ENDBRANCH  14  16
DOCKED: ENDBRANCH  10  13
DOCKED: ENDBRANCH   4  11
DOCKED: ENDBRANCH   3   7
DOCKED: ENDBRANCH   1   3
DOCKED: BRANCH   1  18
DOCKED: ATOM     18  C   UNL     1      12.843  -8.467  -3.183 -0.13 -0.00    +0.000 C 
DOCKED: BRANCH  18  19
DOCKED: ATOM     19  C   UNL     1      13.738  -7.326  -2.674 -0.15 -0.00    +0.000 C 
DOCKED: BRANCH  19  20
DOCKED: ATOM     20  O   UNL     1      13.603  -7.155  -1.289 -0.18 -0.00    +0.000 OA
DOCKED: ATOM     21  H   UNL     1      14.390  -7.502  -0.842 -0.03 -0.00    +0.000 HD
DOCKED: ENDBRANCH  19  20
DOCKED: ENDBRANCH  18  19
DOCKED: ENDBRANCH   1  18
DOCKED: BRANCH   1  22
DOCKED: ATOM     22  C   UNL     1      10.885  -9.175  -1.811 -0.16 -0.00    +0.000 C 
DOCKED: BRANCH  22  23
DOCKED: ATOM     23  C   UNL     1      10.516  -9.187  -0.314 -0.13 +0.00    +0.000 C 
DOCKED: BRANCH  23  24
DOCKED: ATOM     24  C   UNL     1      11.406 -10.133   0.432 -0.20 +0.00    +0.000 A 
DOCKED: ATOM     25  C   UNL     1      11.203 -11.499   0.611 -0.35 +0.00    +0.000 A 
DOCKED: ATOM     26  N   UNL     1      12.168 -12.019   1.404 -0.47 +0.00    +0.000 N 
DOCKED: ATOM     27  C   UNL     1      12.968 -10.992   1.738 -0.33 +0.00    +0.000 A 
DOCKED: ATOM     28  C   UNL     1      12.532  -9.824   1.169 -0.17 +0.00    +0.000 A 
DOCKED: ATOM     29  C   UNL     1      13.183  -8.609   1.390 -0.14 +0.00    +0.000 A 
DOCKED: ATOM     30  C   UNL     1      14.322  -8.617   2.217 -0.23 +0.00    +0.000 A 
DOCKED: ATOM     31  C   UNL     1      14.775  -9.821   2.800 -0.32 +0.00    +0.000 A 
DOCKED: ATOM     32  C   UNL     1      14.092 -11.029   2.562 -0.37 +0.00    +0.000 A 
DOCKED: ATOM     33  H   UNL     1      12.263 -12.959   1.680 -0.55 +0.00    +0.000 HD
DOCKED: ENDBRANCH  23  24
DOCKED: ENDBRANCH  22  23
DOCKED: ENDBRANCH   1  22
DOCKED: TORSDOF 11
DOCKED: TER
DOCKED: ENDMDL
________________________________________________________________________________


	BEGINNING GENETIC ALGORITHM DOCKING 75 of 100
Run: 75 Seed: 1066403432 1040376227 [ Run 75 of 100 GA/GALS ]
Beginning LAMARCKIAN GENETIC ALGORITHM (LGA), with a maximum of 2500000 energy evaluations.

Final-Value: -15.803


	FINAL GENETIC ALGORITHM DOCKED STATE
	_______________________________________________


Detailed state:  trans 14.552 -12.529 2.193 quatxyzw -0.373715 0.822002 0.269265 0.334883 center 0.460 0.128 -0.007 ntor 11 -8.4510 -47.2166 136.5877 -156.9532 -69.5966 162.9020 113.6945 -49.9048 169.4031 32.8222 128.1560
State:	 14.552 -12.529   2.193  -0.397  0.872  0.286 140.869     -8.45  -47.22  136.59 -156.95  -69.60  162.90  113.69  -49.90  169.40   32.82  128.16

DOCKED: MODEL       75
DOCKED: USER    Run = 75
DOCKED: USER    DPF = ligand_dock.biased.dpf
DOCKED: USER  
DOCKED: USER    Estimated Free Energy of Binding    =  -10.35 kcal/mol  [=(1)+(2)+(3)-(4)]
DOCKED: USER    Estimated Inhibition Constant, Ki   =   25.69 nM (nanomolar)  [Temperature = 298.15 K]
DOCKED: USER    
DOCKED: USER    (1) Final Intermolecular Energy     =  -13.64 kcal/mol
DOCKED: USER        vdW + Hbond + desolv Energy     =  -13.64 kcal/mol
DOCKED: USER        Electrostatic Energy            =   +0.00 kcal/mol
DOCKED: USER    (2) Final Total Internal Energy     =   -2.17 kcal/mol
DOCKED: USER    (3) Torsional Free Energy           =   +3.28 kcal/mol
DOCKED: USER    (4) Unbound System's Energy  [=(2)] =   -2.17 kcal/mol
DOCKED: USER    
DOCKED: USER    
DOCKED: USER    NEWDPF move ligand.pdbqt
DOCKED: USER    NEWDPF about 0.460000 0.128000 -0.007000
DOCKED: USER    NEWDPF tran0 14.551689 -12.528528 2.192604
DOCKED: USER    NEWDPF quaternion0 -0.373715 0.822002 0.269265 0.334883
DOCKED: USER    NEWDPF axisangle0 -0.396616 0.872373 0.285765 140.869120
DOCKED: USER    NEWDPF quat0 -0.396616 0.872373 0.285765 140.869120
DOCKED: USER    NEWDPF dihe0 -8.45 -47.22 136.59 -156.95 -69.60 162.90 113.69 -49.90 169.40 32.82 128.16 
DOCKED: USER  keepresnum = 1 
DOCKED: USER  
DOCKED: REMARK  Name = 
DOCKED: REMARK  11 active torsions:
DOCKED: REMARK  status: ('A' for Active; 'I' for Inactive)
DOCKED: REMARK    1  A    between atoms: C_2  and  C_5
DOCKED: REMARK    2  A    between atoms: N_3  and  O_4
DOCKED: REMARK    3  A    between atoms: C_6  and  C_7
DOCKED: REMARK    4  A    between atoms: C_10  and  C_11
DOCKED: REMARK    5  A    between atoms: C_11  and  N_12
DOCKED: REMARK    6  A    between atoms: N_12  and  C_13
DOCKED: REMARK    7  A    between atoms: N_12  and  C_16
DOCKED: REMARK    8  A    between atoms: C_13  and  C_14
DOCKED: REMARK    9  A    between atoms: C_14  and  O_15
DOCKED: REMARK   10  A    between atoms: C_16  and  C_17
DOCKED: REMARK   11  A    between atoms: C_17  and  C_18
DOCKED: REMARK                            x       y       z     vdW  Elec       q    Type
DOCKED: REMARK                         _______ _______ _______ _____ _____    ______ ____
DOCKED: USER                              x       y       z     vdW  Elec       q    Type
DOCKED: USER                           _______ _______ _______ _____ _____    ______ ____
DOCKED: ROOT
DOCKED: ATOM      1  N   UNL     1      15.563 -12.504   1.009 -0.45 +0.00    +0.000 N 
DOCKED: ATOM      2  H   UNL     1      15.862 -13.064   1.807 -0.00 +0.00    +0.000 HD
DOCKED: ENDROOT
DOCKED: BRANCH   1   3
DOCKED: ATOM      3  C   UNL     1      14.191 -12.018   1.273 -0.48 +0.00    +0.000 C 
DOCKED: BRANCH   3   7
DOCKED: ATOM      4  C   UNL     1      14.349  -8.053   3.001 -0.25 +0.00    +0.000 A 
DOCKED: ATOM      5  C   UNL     1      14.606  -9.186   3.791 -0.34 +0.00    +0.000 A 
DOCKED: ATOM      6  C   UNL     1      14.547 -10.469   3.239 -0.38 +0.00    +0.000 A 
DOCKED: ATOM      7  C   UNL     1      14.238 -10.642   1.883 -0.31 +0.00    +0.000 A 
DOCKED: ATOM      8  C   UNL     1      14.001  -9.515   1.084 -0.19 +0.00    +0.000 A 
DOCKED: ATOM      9  C   UNL     1      14.058  -8.231   1.634 -0.21 +0.00    +0.000 A 
DOCKED: BRANCH   4  11
DOCKED: ATOM     10  C   UNL     1      14.816  -6.513   4.904 -0.45 +0.00    +0.000 C 
DOCKED: ATOM     11  C   UNL     1      14.434  -6.713   3.634 -0.31 +0.00    +0.000 C 
DOCKED: BRANCH  10  13
DOCKED: ATOM     12  O   UNL     1      13.903  -4.750   6.169 -0.87 +0.00    +0.000 OA
DOCKED: ATOM     13  C   UNL     1      14.899  -5.176   5.527 -0.47 +0.00    +0.000 C 
DOCKED: ATOM     14  N   UNL     1      16.080  -4.366   5.448 -0.52 -0.00    +0.000 N 
DOCKED: ATOM     15  H   UNL     1      16.898  -4.729   5.039 -0.57 -0.00    +0.000 HD
DOCKED: BRANCH  14  16
DOCKED: ATOM     16  O   UNL     1      16.071  -3.102   5.937 -0.60 -0.00    +0.000 OA
DOCKED: ATOM     17  H   UNL     1      15.165  -2.856   6.179 -0.19 +0.00    +0.000 HD
DOCKED: ENDBRANCH  14  16
DOCKED: ENDBRANCH  10  13
DOCKED: ENDBRANCH   4  11
DOCKED: ENDBRANCH   3   7
DOCKED: ENDBRANCH   1   3
DOCKED: BRANCH   1  18
DOCKED: ATOM     18  C   UNL     1      15.597 -13.426  -0.152 -0.53 +0.00    +0.000 C 
DOCKED: BRANCH  18  19
DOCKED: ATOM     19  C   UNL     1      14.643 -12.986  -1.274 -0.20 +0.00    +0.000 C 
DOCKED: BRANCH  19  20
DOCKED: ATOM     20  O   UNL     1      14.859 -11.647  -1.628 -0.39 +0.00    +0.000 OA
DOCKED: ATOM     21  H   UNL     1      14.121 -11.104  -1.310 -0.01 +0.00    +0.000 HD
DOCKED: ENDBRANCH  19  20
DOCKED: ENDBRANCH  18  19
DOCKED: ENDBRANCH   1  18
DOCKED: BRANCH   1  22
DOCKED: ATOM     22  C   UNL     1      16.543 -11.394   0.940 -0.44 +0.00    +0.000 C 
DOCKED: BRANCH  22  23
DOCKED: ATOM     23  C   UNL     1      17.404 -11.232   2.209 -0.47 +0.00    +0.000 C 
DOCKED: BRANCH  23  24
DOCKED: ATOM     24  C   UNL     1      18.858 -11.354   1.868 -0.54 -0.00    +0.000 A 
DOCKED: ATOM     25  C   UNL     1      19.879 -11.771   2.719 -0.68 -0.00    +0.000 A 
DOCKED: ATOM     26  N   UNL     1      21.076 -11.681   2.097 -0.61 -0.00    +0.000 N 
DOCKED: ATOM     27  C   UNL     1      20.823 -11.198   0.868 -0.60 -0.00    +0.000 A 
DOCKED: ATOM     28  C   UNL     1      19.481 -10.980   0.694 -0.55 -0.00    +0.000 A 
DOCKED: ATOM     29  C   UNL     1      18.968 -10.452  -0.492 -0.27 -0.00    +0.000 A 
DOCKED: ATOM     30  C   UNL     1      19.878 -10.156  -1.524 -0.43 -0.00    +0.000 A 
DOCKED: ATOM     31  C   UNL     1      21.261 -10.386  -1.348 -0.57 -0.00    +0.000 A 
DOCKED: ATOM     32  C   UNL     1      21.747 -10.912  -0.136 -0.39 -0.00    +0.000 A 
DOCKED: ATOM     33  H   UNL     1      21.956 -11.921   2.469 -0.37 -0.00    +0.000 HD
DOCKED: ENDBRANCH  23  24
DOCKED: ENDBRANCH  22  23
DOCKED: ENDBRANCH   1  22
DOCKED: TORSDOF 11
DOCKED: TER
DOCKED: ENDMDL
________________________________________________________________________________


	BEGINNING GENETIC ALGORITHM DOCKING 76 of 100
Run: 76 Seed: 366728406 1354691094 [ Run 76 of 100 GA/GALS ]
Beginning LAMARCKIAN GENETIC ALGORITHM (LGA), with a maximum of 2500000 energy evaluations.

Final-Value: -14.497


	FINAL GENETIC ALGORITHM DOCKED STATE
	_______________________________________________


Detailed state:  trans 22.090 -9.733 -5.659 quatxyzw -0.269212 -0.433464 -0.472348 -0.718694 center 0.460 0.128 -0.007 ntor 11 33.9634 -117.7288 -107.3347 -10.9555 53.5250 99.4128 -133.2273 117.3813 147.1029 146.6576 -30.0102
State:	 22.090  -9.733  -5.659  -0.387 -0.623 -0.679 -88.106     33.96 -117.73 -107.33  -10.96   53.53   99.41 -133.23  117.38  147.10  146.66  -30.01

DOCKED: MODEL       76
DOCKED: USER    Run = 76
DOCKED: USER    DPF = ligand_dock.biased.dpf
DOCKED: USER  
DOCKED: USER    Estimated Free Energy of Binding    =   -9.32 kcal/mol  [=(1)+(2)+(3)-(4)]
DOCKED: USER    Estimated Inhibition Constant, Ki   =  147.64 nM (nanomolar)  [Temperature = 298.15 K]
DOCKED: USER    
DOCKED: USER    (1) Final Intermolecular Energy     =  -12.60 kcal/mol
DOCKED: USER        vdW + Hbond + desolv Energy     =  -12.60 kcal/mol
DOCKED: USER        Electrostatic Energy            =   +0.00 kcal/mol
DOCKED: USER    (2) Final Total Internal Energy     =   -1.90 kcal/mol
DOCKED: USER    (3) Torsional Free Energy           =   +3.28 kcal/mol
DOCKED: USER    (4) Unbound System's Energy  [=(2)] =   -1.90 kcal/mol
DOCKED: USER    
DOCKED: USER    
DOCKED: USER    NEWDPF move ligand.pdbqt
DOCKED: USER    NEWDPF about 0.460000 0.128000 -0.007000
DOCKED: USER    NEWDPF tran0 22.089698 -9.732551 -5.658535
DOCKED: USER    NEWDPF quaternion0 -0.269212 -0.433464 -0.472348 -0.718694
DOCKED: USER    NEWDPF axisangle0 -0.387173 -0.623396 -0.679319 -88.106481
DOCKED: USER    NEWDPF quat0 -0.387173 -0.623396 -0.679319 -88.106481
DOCKED: USER    NEWDPF dihe0 33.96 -117.73 -107.33 -10.96 53.53 99.41 -133.23 117.38 147.10 146.66 -30.01 
DOCKED: USER  keepresnum = 1 
DOCKED: USER  
DOCKED: REMARK  Name = 
DOCKED: REMARK  11 active torsions:
DOCKED: REMARK  status: ('A' for Active; 'I' for Inactive)
DOCKED: REMARK    1  A    between atoms: C_2  and  C_5
DOCKED: REMARK    2  A    between atoms: N_3  and  O_4
DOCKED: REMARK    3  A    between atoms: C_6  and  C_7
DOCKED: REMARK    4  A    between atoms: C_10  and  C_11
DOCKED: REMARK    5  A    between atoms: C_11  and  N_12
DOCKED: REMARK    6  A    between atoms: N_12  and  C_13
DOCKED: REMARK    7  A    between atoms: N_12  and  C_16
DOCKED: REMARK    8  A    between atoms: C_13  and  C_14
DOCKED: REMARK    9  A    between atoms: C_14  and  O_15
DOCKED: REMARK   10  A    between atoms: C_16  and  C_17
DOCKED: REMARK   11  A    between atoms: C_17  and  C_18
DOCKED: REMARK                            x       y       z     vdW  Elec       q    Type
DOCKED: REMARK                         _______ _______ _______ _____ _____    ______ ____
DOCKED: USER                              x       y       z     vdW  Elec       q    Type
DOCKED: USER                           _______ _______ _______ _____ _____    ______ ____
DOCKED: ROOT
DOCKED: ATOM      1  N   UNL     1      20.791  -9.832  -6.511 -0.22 -0.00    +0.000 N 
DOCKED: ATOM      2  H   UNL     1      21.294 -10.713  -6.404 -0.03 -0.00    +0.000 HD
DOCKED: ENDROOT
DOCKED: BRANCH   1   3
DOCKED: ATOM      3  C   UNL     1      21.472  -8.809  -5.689 -0.26 -0.00    +0.000 C 
DOCKED: BRANCH   3   7
DOCKED: ATOM      4  C   UNL     1      21.268  -9.851  -1.493 -0.56 -0.00    +0.000 A 
DOCKED: ATOM      5  C   UNL     1      21.402 -10.851  -2.470 -0.31 -0.00    +0.000 A 
DOCKED: ATOM      6  C   UNL     1      21.459 -10.520  -3.827 -0.46 -0.00    +0.000 A 
DOCKED: ATOM      7  C   UNL     1      21.391  -9.179  -4.231 -0.35 -0.00    +0.000 A 
DOCKED: ATOM      8  C   UNL     1      21.278  -8.174  -3.260 -0.36 -0.00    +0.000 A 
DOCKED: ATOM      9  C   UNL     1      21.220  -8.504  -1.902 -0.45 -0.00    +0.000 A 
DOCKED: BRANCH   4  11
DOCKED: ATOM     10  C   UNL     1      20.294 -11.076   0.445 -0.67 -0.00    +0.000 C 
DOCKED: ATOM     11  C   UNL     1      21.223 -10.256  -0.066 -0.71 -0.00    +0.000 C 
DOCKED: BRANCH  10  13
DOCKED: ATOM     12  O   UNL     1      19.903 -12.651   2.152 -1.55 -0.00    +0.000 OA
DOCKED: ATOM     13  C   UNL     1      20.255 -11.476   1.868 -0.77 -0.00    +0.000 C 
DOCKED: ATOM     14  N   UNL     1      20.630 -10.583   2.925 -0.63 -0.00    +0.000 N 
DOCKED: ATOM     15  H   UNL     1      21.004  -9.698   2.711 -0.59 -0.00    +0.000 HD
DOCKED: BRANCH  14  16
DOCKED: ATOM     16  O   UNL     1      20.470 -10.954   4.218 -0.75 -0.00    +0.000 OA
DOCKED: ATOM     17  H   UNL     1      20.621 -11.909   4.300 -0.46 -0.00    +0.000 HD
DOCKED: ENDBRANCH  14  16
DOCKED: ENDBRANCH  10  13
DOCKED: ENDBRANCH   4  11
DOCKED: ENDBRANCH   3   7
DOCKED: ENDBRANCH   1   3
DOCKED: BRANCH   1  18
DOCKED: ATOM     18  C   UNL     1      19.419 -10.101  -6.016 -0.28 -0.00    +0.000 C 
DOCKED: BRANCH  18  19
DOCKED: ATOM     19  C   UNL     1      18.729 -11.232  -6.795 -0.35 -0.00    +0.000 C 
DOCKED: BRANCH  19  20
DOCKED: ATOM     20  O   UNL     1      17.555 -11.648  -6.151 -0.43 -0.00    +0.000 OA
DOCKED: ATOM     21  H   UNL     1      17.153 -12.376  -6.650 -0.04 -0.00    +0.000 HD
DOCKED: ENDBRANCH  19  20
DOCKED: ENDBRANCH  18  19
DOCKED: ENDBRANCH   1  18
DOCKED: BRANCH   1  22
DOCKED: ATOM     22  C   UNL     1      20.871  -9.526  -7.960 -0.18 -0.00    +0.000 C 
DOCKED: BRANCH  22  23
DOCKED: ATOM     23  C   UNL     1      22.212  -9.914  -8.614 -0.19 -0.00    +0.000 C 
DOCKED: BRANCH  23  24
DOCKED: ATOM     24  C   UNL     1      23.301  -8.996  -8.150 -0.15 -0.00    +0.000 A 
DOCKED: ATOM     25  C   UNL     1      23.205  -7.619  -7.965 -0.09 -0.00    +0.000 A 
DOCKED: ATOM     26  N   UNL     1      24.406  -7.105  -7.616 -0.11 -0.00    +0.000 N 
DOCKED: ATOM     27  C   UNL     1      25.262  -8.141  -7.594 -0.19 -0.00    +0.000 A 
DOCKED: ATOM     28  C   UNL     1      24.626  -9.311  -7.921 -0.22 -0.00    +0.000 A 
DOCKED: ATOM     29  C   UNL     1      25.309 -10.526  -7.994 -0.34 -0.00    +0.000 A 
DOCKED: ATOM     30  C   UNL     1      26.688 -10.520  -7.710 -0.27 -0.00    +0.000 A 
DOCKED: ATOM     31  C   UNL     1      27.343  -9.316  -7.368 -0.39 -0.00    +0.000 A 
DOCKED: ATOM     32  C   UNL     1      26.626  -8.106  -7.309 -0.24 -0.00    +0.000 A 
DOCKED: ATOM     33  H   UNL     1      24.612  -6.163  -7.418 -0.00 -0.00    +0.000 HD
DOCKED: ENDBRANCH  23  24
DOCKED: ENDBRANCH  22  23
DOCKED: ENDBRANCH   1  22
DOCKED: TORSDOF 11
DOCKED: TER
DOCKED: ENDMDL
________________________________________________________________________________


	BEGINNING GENETIC ALGORITHM DOCKING 77 of 100
Run: 77 Seed: 1942322358 1203779734 [ Run 77 of 100 GA/GALS ]
Beginning LAMARCKIAN GENETIC ALGORITHM (LGA), with a maximum of 2500000 energy evaluations.

Final-Value: -14.330


	FINAL GENETIC ALGORITHM DOCKED STATE
	_______________________________________________


Detailed state:  trans 20.832 -10.421 -6.040 quatxyzw 0.494598 0.216596 -0.551828 -0.635567 center 0.460 0.128 -0.007 ntor 11 -19.6418 155.7249 72.8301 95.5918 -109.9891 176.8392 -58.0069 37.3454 166.2928 -175.4739 164.8918
State:	 20.832 -10.421  -6.040   0.641  0.281 -0.715 -101.076    -19.64  155.72   72.83   95.59 -109.99  176.84  -58.01   37.35  166.29 -175.47  164.89

DOCKED: MODEL       77
DOCKED: USER    Run = 77
DOCKED: USER    DPF = ligand_dock.biased.dpf
DOCKED: USER  
DOCKED: USER    Estimated Free Energy of Binding    =   -8.17 kcal/mol  [=(1)+(2)+(3)-(4)]
DOCKED: USER    Estimated Inhibition Constant, Ki   =    1.03 uM (micromolar)  [Temperature = 298.15 K]
DOCKED: USER    
DOCKED: USER    (1) Final Intermolecular Energy     =  -11.45 kcal/mol
DOCKED: USER        vdW + Hbond + desolv Energy     =  -11.45 kcal/mol
DOCKED: USER        Electrostatic Energy            =   +0.00 kcal/mol
DOCKED: USER    (2) Final Total Internal Energy     =   -2.88 kcal/mol
DOCKED: USER    (3) Torsional Free Energy           =   +3.28 kcal/mol
DOCKED: USER    (4) Unbound System's Energy  [=(2)] =   -2.88 kcal/mol
DOCKED: USER    
DOCKED: USER    
DOCKED: USER    NEWDPF move ligand.pdbqt
DOCKED: USER    NEWDPF about 0.460000 0.128000 -0.007000
DOCKED: USER    NEWDPF tran0 20.832131 -10.420641 -6.039619
DOCKED: USER    NEWDPF quaternion0 0.494598 0.216596 -0.551828 -0.635567
DOCKED: USER    NEWDPF axisangle0 0.640633 0.280548 -0.714760 -101.075951
DOCKED: USER    NEWDPF quat0 0.640633 0.280548 -0.714760 -101.075951
DOCKED: USER    NEWDPF dihe0 -19.64 155.72 72.83 95.59 -109.99 176.84 -58.01 37.35 166.29 -175.47 164.89 
DOCKED: USER  keepresnum = 1 
DOCKED: USER  
DOCKED: REMARK  Name = 
DOCKED: REMARK  11 active torsions:
DOCKED: REMARK  status: ('A' for Active; 'I' for Inactive)
DOCKED: REMARK    1  A    between atoms: C_2  and  C_5
DOCKED: REMARK    2  A    between atoms: N_3  and  O_4
DOCKED: REMARK    3  A    between atoms: C_6  and  C_7
DOCKED: REMARK    4  A    between atoms: C_10  and  C_11
DOCKED: REMARK    5  A    between atoms: C_11  and  N_12
DOCKED: REMARK    6  A    between atoms: N_12  and  C_13
DOCKED: REMARK    7  A    between atoms: N_12  and  C_16
DOCKED: REMARK    8  A    between atoms: C_13  and  C_14
DOCKED: REMARK    9  A    between atoms: C_14  and  O_15
DOCKED: REMARK   10  A    between atoms: C_16  and  C_17
DOCKED: REMARK   11  A    between atoms: C_17  and  C_18
DOCKED: REMARK                            x       y       z     vdW  Elec       q    Type
DOCKED: REMARK                         _______ _______ _______ _____ _____    ______ ____
DOCKED: USER                              x       y       z     vdW  Elec       q    Type
DOCKED: USER                           _______ _______ _______ _____ _____    ______ ____
DOCKED: ROOT
DOCKED: ATOM      1  N   UNL     1      19.417  -9.835  -5.761 -0.20 -0.00    +0.000 N 
DOCKED: ATOM      2  H   UNL     1      19.907  -9.400  -6.543 +0.01 -0.00    +0.000 HD
DOCKED: ENDROOT
DOCKED: BRANCH   1   3
DOCKED: ATOM      3  C   UNL     1      20.241 -10.959  -5.267 -0.46 -0.00    +0.000 C 
DOCKED: BRANCH   3   7
DOCKED: ATOM      4  C   UNL     1      20.674 -10.751  -0.966 -0.49 -0.00    +0.000 A 
DOCKED: ATOM      5  C   UNL     1      19.454 -11.143  -1.541 -0.32 -0.00    +0.000 A 
DOCKED: ATOM      6  C   UNL     1      19.308 -11.203  -2.930 -0.30 -0.00    +0.000 A 
DOCKED: ATOM      7  C   UNL     1      20.383 -10.879  -3.770 -0.44 -0.00    +0.000 A 
DOCKED: ATOM      8  C   UNL     1      21.609 -10.506  -3.202 -0.42 -0.00    +0.000 A 
DOCKED: ATOM      9  C   UNL     1      21.758 -10.444  -1.813 -0.33 -0.00    +0.000 A 
DOCKED: BRANCH   4  11
DOCKED: ATOM     10  C   UNL     1      19.929 -11.343   1.337 -0.72 -0.00    +0.000 C 
DOCKED: ATOM     11  C   UNL     1      20.781 -10.714   0.514 -0.70 -0.00    +0.000 C 
DOCKED: BRANCH  10  13
DOCKED: ATOM     12  O   UNL     1      20.110 -10.179   3.376 -0.75 -0.00    +0.000 OA
DOCKED: ATOM     13  C   UNL     1      20.042 -11.302   2.810 -0.76 -0.00    +0.000 C 
DOCKED: ATOM     14  N   UNL     1      20.047 -12.491   3.612 -0.58 -0.00    +0.000 N 
DOCKED: ATOM     15  H   UNL     1      19.890 -13.367   3.192 -0.45 -0.00    +0.000 HD
DOCKED: BRANCH  14  16
DOCKED: ATOM     16  O   UNL     1      20.265 -12.411   4.946 -0.60 -0.00    +0.000 OA
DOCKED: ATOM     17  H   UNL     1      20.698 -11.568   5.152 -0.20 -0.00    +0.000 HD
DOCKED: ENDBRANCH  14  16
DOCKED: ENDBRANCH  10  13
DOCKED: ENDBRANCH   4  11
DOCKED: ENDBRANCH   3   7
DOCKED: ENDBRANCH   1   3
DOCKED: BRANCH   1  18
DOCKED: ATOM     18  C   UNL     1      18.129 -10.312  -6.321 -0.28 -0.00    +0.000 C 
DOCKED: BRANCH  18  19
DOCKED: ATOM     19  C   UNL     1      18.317 -11.085  -7.636 -0.30 -0.00    +0.000 C 
DOCKED: BRANCH  19  20
DOCKED: ATOM     20  O   UNL     1      19.620 -10.933  -8.132 -0.29 -0.00    +0.000 OA
DOCKED: ATOM     21  H   UNL     1      20.167 -11.678  -7.838 -0.22 -0.00    +0.000 HD
DOCKED: ENDBRANCH  19  20
DOCKED: ENDBRANCH  18  19
DOCKED: ENDBRANCH   1  18
DOCKED: BRANCH   1  22
DOCKED: ATOM     22  C   UNL     1      19.285  -8.756  -4.752 -0.22 -0.00    +0.000 C 
DOCKED: BRANCH  22  23
DOCKED: ATOM     23  C   UNL     1      20.237  -7.564  -4.975 -0.20 -0.00    +0.000 C 
DOCKED: BRANCH  23  24
DOCKED: ATOM     24  C   UNL     1      20.566  -6.912  -3.667 -0.27 -0.00    +0.000 A 
DOCKED: ATOM     25  C   UNL     1      20.721  -7.547  -2.437 -0.23 -0.00    +0.000 A 
DOCKED: ATOM     26  N   UNL     1      20.937  -6.636  -1.461 -0.37 +0.00    +0.000 N 
DOCKED: ATOM     27  C   UNL     1      20.906  -5.433  -2.060 -0.39 -0.00    +0.000 A 
DOCKED: ATOM     28  C   UNL     1      20.675  -5.560  -3.405 -0.25 -0.00    +0.000 A 
DOCKED: ATOM     29  C   UNL     1      20.570  -4.449  -4.243 -0.13 -0.00    +0.000 A 
DOCKED: ATOM     30  C   UNL     1      20.720  -3.175  -3.663 -0.10 -0.00    +0.000 A 
DOCKED: ATOM     31  C   UNL     1      20.962  -3.043  -2.278 -0.18 -0.00    +0.000 A 
DOCKED: ATOM     32  C   UNL     1      21.056  -4.184  -1.458 -0.39 +0.00    +0.000 A 
DOCKED: ATOM     33  H   UNL     1      21.087  -6.818  -0.505 +0.06 +0.00    +0.000 HD
DOCKED: ENDBRANCH  23  24
DOCKED: ENDBRANCH  22  23
DOCKED: ENDBRANCH   1  22
DOCKED: TORSDOF 11
DOCKED: TER
DOCKED: ENDMDL
________________________________________________________________________________


	BEGINNING GENETIC ALGORITHM DOCKING 78 of 100
Run: 78 Seed: 931529107 1424135037 [ Run 78 of 100 GA/GALS ]
Beginning LAMARCKIAN GENETIC ALGORITHM (LGA), with a maximum of 2500000 energy evaluations.

Final-Value: -16.557


	FINAL GENETIC ALGORITHM DOCKED STATE
	_______________________________________________


Detailed state:  trans 18.612 -10.735 -0.058 quatxyzw 0.216800 -0.729419 0.619885 -0.191542 center 0.460 0.128 -0.007 ntor 11 -1.9128 -77.9793 107.8423 41.0690 -136.5813 -103.1886 -148.2355 95.9403 125.1271 -151.3978 10.3541
State:	 18.612 -10.735  -0.058   0.221 -0.743  0.632 -157.914     -1.91  -77.98  107.84   41.07 -136.58 -103.19 -148.24   95.94  125.13 -151.40   10.35

DOCKED: MODEL       78
DOCKED: USER    Run = 78
DOCKED: USER    DPF = ligand_dock.biased.dpf
DOCKED: USER  
DOCKED: USER    Estimated Free Energy of Binding    =  -10.00 kcal/mol  [=(1)+(2)+(3)-(4)]
DOCKED: USER    Estimated Inhibition Constant, Ki   =   46.46 nM (nanomolar)  [Temperature = 298.15 K]
DOCKED: USER    
DOCKED: USER    (1) Final Intermolecular Energy     =  -13.29 kcal/mol
DOCKED: USER        vdW + Hbond + desolv Energy     =  -13.29 kcal/mol
DOCKED: USER        Electrostatic Energy            =   +0.00 kcal/mol
DOCKED: USER    (2) Final Total Internal Energy     =   -3.27 kcal/mol
DOCKED: USER    (3) Torsional Free Energy           =   +3.28 kcal/mol
DOCKED: USER    (4) Unbound System's Energy  [=(2)] =   -3.27 kcal/mol
DOCKED: USER    
DOCKED: USER    
DOCKED: USER    NEWDPF move ligand.pdbqt
DOCKED: USER    NEWDPF about 0.460000 0.128000 -0.007000
DOCKED: USER    NEWDPF tran0 18.612322 -10.734770 -0.058457
DOCKED: USER    NEWDPF quaternion0 0.216800 -0.729419 0.619885 -0.191542
DOCKED: USER    NEWDPF axisangle0 0.220890 -0.743179 0.631579 -157.914425
DOCKED: USER    NEWDPF quat0 0.220890 -0.743179 0.631579 -157.914425
DOCKED: USER    NEWDPF dihe0 -1.91 -77.98 107.84 41.07 -136.58 -103.19 -148.24 95.94 125.13 -151.40 10.35 
DOCKED: USER  keepresnum = 1 
DOCKED: USER  
DOCKED: REMARK  Name = 
DOCKED: REMARK  11 active torsions:
DOCKED: REMARK  status: ('A' for Active; 'I' for Inactive)
DOCKED: REMARK    1  A    between atoms: C_2  and  C_5
DOCKED: REMARK    2  A    between atoms: N_3  and  O_4
DOCKED: REMARK    3  A    between atoms: C_6  and  C_7
DOCKED: REMARK    4  A    between atoms: C_10  and  C_11
DOCKED: REMARK    5  A    between atoms: C_11  and  N_12
DOCKED: REMARK    6  A    between atoms: N_12  and  C_13
DOCKED: REMARK    7  A    between atoms: N_12  and  C_16
DOCKED: REMARK    8  A    between atoms: C_13  and  C_14
DOCKED: REMARK    9  A    between atoms: C_14  and  O_15
DOCKED: REMARK   10  A    between atoms: C_16  and  C_17
DOCKED: REMARK   11  A    between atoms: C_17  and  C_18
DOCKED: REMARK                            x       y       z     vdW  Elec       q    Type
DOCKED: REMARK                         _______ _______ _______ _____ _____    ______ ____
DOCKED: USER                              x       y       z     vdW  Elec       q    Type
DOCKED: USER                           _______ _______ _______ _____ _____    ______ ____
DOCKED: ROOT
DOCKED: ATOM      1  N   UNL     1      20.080 -10.823   0.453 -0.57 -0.00    +0.000 N 
DOCKED: ATOM      2  H   UNL     1      19.554 -10.029   0.818 -0.04 -0.00    +0.000 HD
DOCKED: ENDROOT
DOCKED: BRANCH   1   3
DOCKED: ATOM      3  C   UNL     1      19.162 -11.654  -0.355 -0.51 -0.00    +0.000 C 
DOCKED: BRANCH   3   7
DOCKED: ATOM      4  C   UNL     1      15.063 -11.014   0.876 -0.31 +0.00    +0.000 A 
DOCKED: ATOM      5  C   UNL     1      15.588 -10.334  -0.236 -0.26 +0.00    +0.000 A 
DOCKED: ATOM      6  C   UNL     1      16.913 -10.532  -0.632 -0.26 -0.00    +0.000 A 
DOCKED: ATOM      7  C   UNL     1      17.738 -11.420   0.074 -0.41 -0.00    +0.000 A 
DOCKED: ATOM      8  C   UNL     1      17.214 -12.117   1.172 -0.41 +0.00    +0.000 A 
DOCKED: ATOM      9  C   UNL     1      15.889 -11.920   1.570 -0.41 +0.00    +0.000 A 
DOCKED: BRANCH   4  11
DOCKED: ATOM     10  C   UNL     1      12.638 -11.586   0.892 -0.44 +0.00    +0.000 C 
DOCKED: ATOM     11  C   UNL     1      13.645 -10.777   1.247 -0.33 +0.00    +0.000 C 
DOCKED: BRANCH  10  13
DOCKED: ATOM     12  O   UNL     1      10.860 -10.159   1.483 -0.22 +0.00    +0.000 OA
DOCKED: ATOM     13  C   UNL     1      11.228 -11.344   1.266 -0.40 +0.00    +0.000 C 
DOCKED: ATOM     14  N   UNL     1      10.268 -12.405   1.363 -0.47 +0.00    +0.000 N 
DOCKED: ATOM     15  H   UNL     1      10.517 -13.318   1.097 -0.56 -0.00    +0.000 HD
DOCKED: BRANCH  14  16
DOCKED: ATOM     16  O   UNL     1       9.018 -12.151   1.819 -0.45 +0.00    +0.000 OA
DOCKED: ATOM     17  H   UNL     1       8.948 -11.215   2.064 -0.01 +0.00    +0.000 HD
DOCKED: ENDBRANCH  14  16
DOCKED: ENDBRANCH  10  13
DOCKED: ENDBRANCH   4  11
DOCKED: ENDBRANCH   3   7
DOCKED: ENDBRANCH   1   3
DOCKED: BRANCH   1  18
DOCKED: ATOM     18  C   UNL     1      20.564 -11.556   1.648 -0.77 -0.00    +0.000 C 
DOCKED: BRANCH  18  19
DOCKED: ATOM     19  C   UNL     1      20.266 -10.802   2.954 -0.73 -0.00    +0.000 C 
DOCKED: BRANCH  19  20
DOCKED: ATOM     20  O   UNL     1      19.192  -9.915   2.793 -0.67 -0.00    +0.000 OA
DOCKED: ATOM     21  H   UNL     1      19.388  -9.083   3.250 -0.59 -0.00    +0.000 HD
DOCKED: ENDBRANCH  19  20
DOCKED: ENDBRANCH  18  19
DOCKED: ENDBRANCH   1  18
DOCKED: BRANCH   1  22
DOCKED: ATOM     22  C   UNL     1      21.153 -10.217  -0.371 -0.71 -0.00    +0.000 C 
DOCKED: BRANCH  22  23
DOCKED: ATOM     23  C   UNL     1      20.640  -9.330  -1.523 -0.53 -0.00    +0.000 C 
DOCKED: BRANCH  23  24
DOCKED: ATOM     24  C   UNL     1      20.502 -10.136  -2.778 -0.46 -0.00    +0.000 A 
DOCKED: ATOM     25  C   UNL     1      21.496 -10.892  -3.394 -0.36 -0.00    +0.000 A 
DOCKED: ATOM     26  N   UNL     1      21.037 -11.421  -4.550 -0.49 -0.00    +0.000 N 
DOCKED: ATOM     27  C   UNL     1      19.769 -10.995  -4.678 -0.41 -0.00    +0.000 A 
DOCKED: ATOM     28  C   UNL     1      19.408 -10.203  -3.618 -0.34 -0.00    +0.000 A 
DOCKED: ATOM     29  C   UNL     1      18.146  -9.614  -3.534 -0.20 -0.00    +0.000 A 
DOCKED: ATOM     30  C   UNL     1      17.235  -9.868  -4.577 -0.21 -0.00    +0.000 A 
DOCKED: ATOM     31  C   UNL     1      17.603 -10.688  -5.666 -0.27 -0.00    +0.000 A 
DOCKED: ATOM     32  C   UNL     1      18.888 -11.261  -5.725 -0.37 -0.00    +0.000 A 
DOCKED: ATOM     33  H   UNL     1      21.532 -12.001  -5.173 -0.12 -0.00    +0.000 HD
DOCKED: ENDBRANCH  23  24
DOCKED: ENDBRANCH  22  23
DOCKED: ENDBRANCH   1  22
DOCKED: TORSDOF 11
DOCKED: TER
DOCKED: ENDMDL
________________________________________________________________________________


	BEGINNING GENETIC ALGORITHM DOCKING 79 of 100
Run: 79 Seed: 226426214 1214184381 [ Run 79 of 100 GA/GALS ]
Beginning LAMARCKIAN GENETIC ALGORITHM (LGA), with a maximum of 2500000 energy evaluations.

Final-Value: -15.014


	FINAL GENETIC ALGORITHM DOCKED STATE
	_______________________________________________


Detailed state:  trans 19.991 -10.945 -4.383 quatxyzw 0.893807 -0.151379 -0.231207 0.353182 center 0.460 0.128 -0.007 ntor 11 -3.2178 -94.9454 96.9963 10.0649 178.2253 -114.7453 -22.9681 -26.7189 173.0321 161.1617 -1.2777
State:	 19.991 -10.945  -4.383   0.955 -0.162 -0.247 138.636     -3.22  -94.95   97.00   10.06  178.23 -114.75  -22.97  -26.72  173.03  161.16   -1.28

DOCKED: MODEL       79
DOCKED: USER    Run = 79
DOCKED: USER    DPF = ligand_dock.biased.dpf
DOCKED: USER  
DOCKED: USER    Estimated Free Energy of Binding    =   -8.84 kcal/mol  [=(1)+(2)+(3)-(4)]
DOCKED: USER    Estimated Inhibition Constant, Ki   =  332.80 nM (nanomolar)  [Temperature = 298.15 K]
DOCKED: USER    
DOCKED: USER    (1) Final Intermolecular Energy     =  -12.12 kcal/mol
DOCKED: USER        vdW + Hbond + desolv Energy     =  -12.12 kcal/mol
DOCKED: USER        Electrostatic Energy            =   +0.00 kcal/mol
DOCKED: USER    (2) Final Total Internal Energy     =   -2.90 kcal/mol
DOCKED: USER    (3) Torsional Free Energy           =   +3.28 kcal/mol
DOCKED: USER    (4) Unbound System's Energy  [=(2)] =   -2.90 kcal/mol
DOCKED: USER    
DOCKED: USER    
DOCKED: USER    NEWDPF move ligand.pdbqt
DOCKED: USER    NEWDPF about 0.460000 0.128000 -0.007000
DOCKED: USER    NEWDPF tran0 19.990838 -10.945258 -4.383407
DOCKED: USER    NEWDPF quaternion0 0.893807 -0.151379 -0.231207 0.353182
DOCKED: USER    NEWDPF axisangle0 0.955376 -0.161807 -0.247134 138.635902
DOCKED: USER    NEWDPF quat0 0.955376 -0.161807 -0.247134 138.635902
DOCKED: USER    NEWDPF dihe0 -3.22 -94.95 97.00 10.06 178.23 -114.75 -22.97 -26.72 173.03 161.16 -1.28 
DOCKED: USER  keepresnum = 1 
DOCKED: USER  
DOCKED: REMARK  Name = 
DOCKED: REMARK  11 active torsions:
DOCKED: REMARK  status: ('A' for Active; 'I' for Inactive)
DOCKED: REMARK    1  A    between atoms: C_2  and  C_5
DOCKED: REMARK    2  A    between atoms: N_3  and  O_4
DOCKED: REMARK    3  A    between atoms: C_6  and  C_7
DOCKED: REMARK    4  A    between atoms: C_10  and  C_11
DOCKED: REMARK    5  A    between atoms: C_11  and  N_12
DOCKED: REMARK    6  A    between atoms: N_12  and  C_13
DOCKED: REMARK    7  A    between atoms: N_12  and  C_16
DOCKED: REMARK    8  A    between atoms: C_13  and  C_14
DOCKED: REMARK    9  A    between atoms: C_14  and  O_15
DOCKED: REMARK   10  A    between atoms: C_16  and  C_17
DOCKED: REMARK   11  A    between atoms: C_17  and  C_18
DOCKED: REMARK                            x       y       z     vdW  Elec       q    Type
DOCKED: REMARK                         _______ _______ _______ _____ _____    ______ ____
DOCKED: USER                              x       y       z     vdW  Elec       q    Type
DOCKED: USER                           _______ _______ _______ _____ _____    ______ ____
DOCKED: ROOT
DOCKED: ATOM      1  N   UNL     1      19.742  -9.974  -3.192 -0.35 -0.00    +0.000 N 
DOCKED: ATOM      2  H   UNL     1      20.442 -10.693  -3.011 -0.02 -0.00    +0.000 HD
DOCKED: ENDROOT
DOCKED: BRANCH   1   3
DOCKED: ATOM      3  C   UNL     1      19.317 -10.089  -4.604 -0.32 -0.00    +0.000 C 
DOCKED: BRANCH   3   7
DOCKED: ATOM      4  C   UNL     1      22.645 -11.281  -7.101 -0.40 -0.00    +0.000 A 
DOCKED: ATOM      5  C   UNL     1      22.344 -11.991  -5.927 -0.41 -0.00    +0.000 A 
DOCKED: ATOM      6  C   UNL     1      21.276 -11.604  -5.113 -0.48 -0.00    +0.000 A 
DOCKED: ATOM      7  C   UNL     1      20.482 -10.503  -5.463 -0.35 -0.00    +0.000 A 
DOCKED: ATOM      8  C   UNL     1      20.764  -9.802  -6.645 -0.22 -0.00    +0.000 A 
DOCKED: ATOM      9  C   UNL     1      21.833 -10.187  -7.460 -0.25 -0.00    +0.000 A 
DOCKED: BRANCH   4  11
DOCKED: ATOM     10  C   UNL     1      23.680 -12.685  -8.881 -0.43 -0.00    +0.000 C 
DOCKED: ATOM     11  C   UNL     1      23.784 -11.740  -7.935 -0.48 -0.00    +0.000 C 
DOCKED: BRANCH  10  13
DOCKED: ATOM     12  O   UNL     1      25.835 -12.397  -9.785 -0.33 -0.00    +0.000 OA
DOCKED: ATOM     13  C   UNL     1      24.818 -13.136  -9.708 -0.37 -0.00    +0.000 C 
DOCKED: ATOM     14  N   UNL     1      24.813 -14.393 -10.398 -0.41 -0.00    +0.000 N 
DOCKED: ATOM     15  H   UNL     1      24.070 -15.024 -10.264 -0.03 +0.00    +0.000 HD
DOCKED: BRANCH  14  16
DOCKED: ATOM     16  O   UNL     1      25.829 -14.714 -11.235 -0.30 -0.00    +0.000 OA
DOCKED: ATOM     17  H   UNL     1      26.447 -13.968 -11.293 -0.57 -0.00    +0.000 HD
DOCKED: ENDBRANCH  14  16
DOCKED: ENDBRANCH  10  13
DOCKED: ENDBRANCH   4  11
DOCKED: ENDBRANCH   3   7
DOCKED: ENDBRANCH   1   3
DOCKED: BRANCH   1  18
DOCKED: ATOM     18  C   UNL     1      20.428  -8.685  -2.936 -0.36 -0.00    +0.000 C 
DOCKED: BRANCH  18  19
DOCKED: ATOM     19  C   UNL     1      21.390  -8.764  -1.740 -0.53 -0.00    +0.000 C 
DOCKED: BRANCH  19  20
DOCKED: ATOM     20  O   UNL     1      21.606 -10.094  -1.350 -0.69 -0.00    +0.000 OA
DOCKED: ATOM     21  H   UNL     1      21.874 -10.119  -0.419 -0.05 -0.00    +0.000 HD
DOCKED: ENDBRANCH  19  20
DOCKED: ENDBRANCH  18  19
DOCKED: ENDBRANCH   1  18
DOCKED: BRANCH   1  22
DOCKED: ATOM     22  C   UNL     1      18.636 -10.278  -2.252 -0.26 -0.00    +0.000 C 
DOCKED: BRANCH  22  23
DOCKED: ATOM     23  C   UNL     1      18.762 -11.645  -1.551 -0.26 -0.00    +0.000 C 
DOCKED: BRANCH  23  24
DOCKED: ATOM     24  C   UNL     1      18.239 -11.560  -0.149 -0.44 -0.00    +0.000 A 
DOCKED: ATOM     25  C   UNL     1      16.910 -11.403   0.234 -0.37 +0.00    +0.000 A 
DOCKED: ATOM     26  N   UNL     1      16.818 -11.287   1.578 -0.39 +0.00    +0.000 N 
DOCKED: ATOM     27  C   UNL     1      18.076 -11.354   2.045 -0.44 -0.00    +0.000 A 
DOCKED: ATOM     28  C   UNL     1      18.973 -11.514   1.020 -0.54 -0.00    +0.000 A 
DOCKED: ATOM     29  C   UNL     1      20.348 -11.583   1.248 -0.66 -0.00    +0.000 A 
DOCKED: ATOM     30  C   UNL     1      20.796 -11.491   2.579 -0.45 -0.00    +0.000 A 
DOCKED: ATOM     31  C   UNL     1      19.873 -11.331   3.636 -0.64 -0.00    +0.000 A 
DOCKED: ATOM     32  C   UNL     1      18.492 -11.259   3.372 -0.30 -0.00    +0.000 A 
DOCKED: ATOM     33  H   UNL     1      15.995 -11.175   2.107 -0.00 +0.00    +0.000 HD
DOCKED: ENDBRANCH  23  24
DOCKED: ENDBRANCH  22  23
DOCKED: ENDBRANCH   1  22
DOCKED: TORSDOF 11
DOCKED: TER
DOCKED: ENDMDL
________________________________________________________________________________


	BEGINNING GENETIC ALGORITHM DOCKING 80 of 100
Run: 80 Seed: 569312821 1613553720 [ Run 80 of 100 GA/GALS ]
Beginning LAMARCKIAN GENETIC ALGORITHM (LGA), with a maximum of 2500000 energy evaluations.

Final-Value: -14.977


	FINAL GENETIC ALGORITHM DOCKED STATE
	_______________________________________________


Detailed state:  trans 18.983 -10.371 -4.031 quatxyzw 0.471382 -0.687987 -0.344356 0.431151 center 0.460 0.128 -0.007 ntor 11 8.3845 -92.5244 64.4046 75.7141 45.3102 122.1842 -126.6181 27.4910 166.5725 -161.4103 17.2757
State:	 18.983 -10.371  -4.031   0.522 -0.762 -0.382 128.919      8.38  -92.52   64.40   75.71   45.31  122.18 -126.62   27.49  166.57 -161.41   17.28

DOCKED: MODEL       80
DOCKED: USER    Run = 80
DOCKED: USER    DPF = ligand_dock.biased.dpf
DOCKED: USER  
DOCKED: USER    Estimated Free Energy of Binding    =   -8.93 kcal/mol  [=(1)+(2)+(3)-(4)]
DOCKED: USER    Estimated Inhibition Constant, Ki   =  283.22 nM (nanomolar)  [Temperature = 298.15 K]
DOCKED: USER    
DOCKED: USER    (1) Final Intermolecular Energy     =  -12.21 kcal/mol
DOCKED: USER        vdW + Hbond + desolv Energy     =  -12.21 kcal/mol
DOCKED: USER        Electrostatic Energy            =   +0.00 kcal/mol
DOCKED: USER    (2) Final Total Internal Energy     =   -2.76 kcal/mol
DOCKED: USER    (3) Torsional Free Energy           =   +3.28 kcal/mol
DOCKED: USER    (4) Unbound System's Energy  [=(2)] =   -2.76 kcal/mol
DOCKED: USER    
DOCKED: USER    
DOCKED: USER    NEWDPF move ligand.pdbqt
DOCKED: USER    NEWDPF about 0.460000 0.128000 -0.007000
DOCKED: USER    NEWDPF tran0 18.982538 -10.371479 -4.031116
DOCKED: USER    NEWDPF quaternion0 0.471382 -0.687987 -0.344356 0.431151
DOCKED: USER    NEWDPF axisangle0 0.522434 -0.762499 -0.381651 128.918729
DOCKED: USER    NEWDPF quat0 0.522434 -0.762499 -0.381651 128.918729
DOCKED: USER    NEWDPF dihe0 8.38 -92.52 64.40 75.71 45.31 122.18 -126.62 27.49 166.57 -161.41 17.28 
DOCKED: USER  keepresnum = 1 
DOCKED: USER  
DOCKED: REMARK  Name = 
DOCKED: REMARK  11 active torsions:
DOCKED: REMARK  status: ('A' for Active; 'I' for Inactive)
DOCKED: REMARK    1  A    between atoms: C_2  and  C_5
DOCKED: REMARK    2  A    between atoms: N_3  and  O_4
DOCKED: REMARK    3  A    between atoms: C_6  and  C_7
DOCKED: REMARK    4  A    between atoms: C_10  and  C_11
DOCKED: REMARK    5  A    between atoms: C_11  and  N_12
DOCKED: REMARK    6  A    between atoms: N_12  and  C_13
DOCKED: REMARK    7  A    between atoms: N_12  and  C_16
DOCKED: REMARK    8  A    between atoms: C_13  and  C_14
DOCKED: REMARK    9  A    between atoms: C_14  and  O_15
DOCKED: REMARK   10  A    between atoms: C_16  and  C_17
DOCKED: REMARK   11  A    between atoms: C_17  and  C_18
DOCKED: REMARK                            x       y       z     vdW  Elec       q    Type
DOCKED: REMARK                         _______ _______ _______ _____ _____    ______ ____
DOCKED: USER                              x       y       z     vdW  Elec       q    Type
DOCKED: USER                           _______ _______ _______ _____ _____    ______ ____
DOCKED: ROOT
DOCKED: ATOM      1  N   UNL     1      20.329 -10.447  -3.253 -0.43 -0.00    +0.000 N 
DOCKED: ATOM      2  H   UNL     1      19.903 -11.353  -3.448 -0.02 -0.00    +0.000 HD
DOCKED: ENDROOT
DOCKED: BRANCH   1   3
DOCKED: ATOM      3  C   UNL     1      19.515  -9.403  -3.912 -0.31 -0.00    +0.000 C 
DOCKED: BRANCH   3   7
DOCKED: ATOM      4  C   UNL     1      16.922 -11.161  -6.898 -0.31 -0.00    +0.000 A 
DOCKED: ATOM      5  C   UNL     1      16.506 -11.065  -5.560 -0.22 -0.00    +0.000 A 
DOCKED: ATOM      6  C   UNL     1      17.343 -10.506  -4.591 -0.21 -0.00    +0.000 A 
DOCKED: ATOM      7  C   UNL     1      18.612 -10.025  -4.944 -0.25 -0.00    +0.000 A 
DOCKED: ATOM      8  C   UNL     1      19.026 -10.098  -6.282 -0.24 -0.00    +0.000 A 
DOCKED: ATOM      9  C   UNL     1      18.190 -10.658  -7.253 -0.28 -0.00    +0.000 A 
DOCKED: BRANCH   4  11
DOCKED: ATOM     10  C   UNL     1      15.173 -12.781  -7.621 -0.43 -0.00    +0.000 C 
DOCKED: ATOM     11  C   UNL     1      15.990 -11.753  -7.890 -0.34 -0.00    +0.000 C 
DOCKED: BRANCH  10  13
DOCKED: ATOM     12  O   UNL     1      13.186 -13.904  -8.200 -0.32 +0.00    +0.000 OA
DOCKED: ATOM     13  C   UNL     1      14.247 -13.365  -8.614 -0.37 +0.00    +0.000 C 
DOCKED: ATOM     14  N   UNL     1      14.503 -13.314 -10.024 -0.26 +0.00    +0.000 N 
DOCKED: ATOM     15  H   UNL     1      15.274 -12.807 -10.364 -0.01 +0.00    +0.000 HD
DOCKED: BRANCH  14  16
DOCKED: ATOM     16  O   UNL     1      13.684 -13.961 -10.888 -0.24 +0.00    +0.000 OA
DOCKED: ATOM     17  H   UNL     1      12.910 -14.296 -10.409 -0.01 +0.00    +0.000 HD
DOCKED: ENDBRANCH  14  16
DOCKED: ENDBRANCH  10  13
DOCKED: ENDBRANCH   4  11
DOCKED: ENDBRANCH   3   7
DOCKED: ENDBRANCH   1   3
DOCKED: BRANCH   1  18
DOCKED: ATOM     18  C   UNL     1      21.691 -10.520  -3.836 -0.48 -0.00    +0.000 C 
DOCKED: BRANCH  18  19
DOCKED: ATOM     19  C   UNL     1      21.765 -11.491  -5.025 -0.55 -0.00    +0.000 C 
DOCKED: BRANCH  19  20
DOCKED: ATOM     20  O   UNL     1      20.696 -12.399  -5.005 -0.80 -0.00    +0.000 OA
DOCKED: ATOM     21  H   UNL     1      20.957 -13.216  -5.457 -0.66 -0.00    +0.000 HD
DOCKED: ENDBRANCH  19  20
DOCKED: ENDBRANCH  18  19
DOCKED: ENDBRANCH   1  18
DOCKED: BRANCH   1  22
DOCKED: ATOM     22  C   UNL     1      20.299 -10.327  -1.776 -0.54 -0.00    +0.000 C 
DOCKED: BRANCH  22  23
DOCKED: ATOM     23  C   UNL     1      19.322 -11.297  -1.083 -0.42 -0.00    +0.000 C 
DOCKED: BRANCH  23  24
DOCKED: ATOM     24  C   UNL     1      19.007 -10.817   0.301 -0.45 -0.00    +0.000 A 
DOCKED: ATOM     25  C   UNL     1      19.869 -10.144   1.163 -0.47 -0.00    +0.000 A 
DOCKED: ATOM     26  N   UNL     1      19.272  -9.937   2.359 -0.49 -0.00    +0.000 N 
DOCKED: ATOM     27  C   UNL     1      18.048 -10.485   2.264 -0.47 -0.00    +0.000 A 
DOCKED: ATOM     28  C   UNL     1      17.852 -11.038   1.025 -0.41 -0.00    +0.000 A 
DOCKED: ATOM     29  C   UNL     1      16.667 -11.695   0.690 -0.41 +0.00    +0.000 A 
DOCKED: ATOM     30  C   UNL     1      15.659 -11.766   1.669 -0.41 +0.00    +0.000 A 
DOCKED: ATOM     31  C   UNL     1      15.857 -11.192   2.944 -0.45 +0.00    +0.000 A 
DOCKED: ATOM     32  C   UNL     1      17.068 -10.543   3.254 -0.41 +0.00    +0.000 A 
DOCKED: ATOM     33  H   UNL     1      19.656  -9.477   3.140 -0.53 -0.00    +0.000 HD
DOCKED: ENDBRANCH  23  24
DOCKED: ENDBRANCH  22  23
DOCKED: ENDBRANCH   1  22
DOCKED: TORSDOF 11
DOCKED: TER
DOCKED: ENDMDL
________________________________________________________________________________


	BEGINNING GENETIC ALGORITHM DOCKING 81 of 100
Run: 81 Seed: 2027496413 218402725 [ Run 81 of 100 GA/GALS ]
Beginning LAMARCKIAN GENETIC ALGORITHM (LGA), with a maximum of 2500000 energy evaluations.

Final-Value: -15.211


	FINAL GENETIC ALGORITHM DOCKED STATE
	_______________________________________________


Detailed state:  trans 18.064 -10.434 -0.315 quatxyzw -0.184360 0.445108 -0.775649 0.407748 center 0.460 0.128 -0.007 ntor 11 -10.4634 -156.5634 1.5543 -136.6767 -97.3313 -117.0453 -65.2819 23.0559 -179.3884 29.2424 -11.7544
State:	 18.064 -10.434  -0.315  -0.202  0.487 -0.849 131.873    -10.46 -156.56    1.55 -136.68  -97.33 -117.05  -65.28   23.06 -179.39   29.24  -11.75

DOCKED: MODEL       81
DOCKED: USER    Run = 81
DOCKED: USER    DPF = ligand_dock.biased.dpf
DOCKED: USER  
DOCKED: USER    Estimated Free Energy of Binding    =  -10.16 kcal/mol  [=(1)+(2)+(3)-(4)]
DOCKED: USER    Estimated Inhibition Constant, Ki   =   35.98 nM (nanomolar)  [Temperature = 298.15 K]
DOCKED: USER    
DOCKED: USER    (1) Final Intermolecular Energy     =  -13.44 kcal/mol
DOCKED: USER        vdW + Hbond + desolv Energy     =  -13.44 kcal/mol
DOCKED: USER        Electrostatic Energy            =   +0.00 kcal/mol
DOCKED: USER    (2) Final Total Internal Energy     =   -1.77 kcal/mol
DOCKED: USER    (3) Torsional Free Energy           =   +3.28 kcal/mol
DOCKED: USER    (4) Unbound System's Energy  [=(2)] =   -1.77 kcal/mol
DOCKED: USER    
DOCKED: USER    
DOCKED: USER    NEWDPF move ligand.pdbqt
DOCKED: USER    NEWDPF about 0.460000 0.128000 -0.007000
DOCKED: USER    NEWDPF tran0 18.064029 -10.433878 -0.315435
DOCKED: USER    NEWDPF quaternion0 -0.184360 0.445108 -0.775649 0.407748
DOCKED: USER    NEWDPF axisangle0 -0.201907 0.487472 -0.849473 131.873117
DOCKED: USER    NEWDPF quat0 -0.201907 0.487472 -0.849473 131.873117
DOCKED: USER    NEWDPF dihe0 -10.46 -156.56 1.55 -136.68 -97.33 -117.05 -65.28 23.06 -179.39 29.24 -11.75 
DOCKED: USER  keepresnum = 1 
DOCKED: USER  
DOCKED: REMARK  Name = 
DOCKED: REMARK  11 active torsions:
DOCKED: REMARK  status: ('A' for Active; 'I' for Inactive)
DOCKED: REMARK    1  A    between atoms: C_2  and  C_5
DOCKED: REMARK    2  A    between atoms: N_3  and  O_4
DOCKED: REMARK    3  A    between atoms: C_6  and  C_7
DOCKED: REMARK    4  A    between atoms: C_10  and  C_11
DOCKED: REMARK    5  A    between atoms: C_11  and  N_12
DOCKED: REMARK    6  A    between atoms: N_12  and  C_13
DOCKED: REMARK    7  A    between atoms: N_12  and  C_16
DOCKED: REMARK    8  A    between atoms: C_13  and  C_14
DOCKED: REMARK    9  A    between atoms: C_14  and  O_15
DOCKED: REMARK   10  A    between atoms: C_16  and  C_17
DOCKED: REMARK   11  A    between atoms: C_17  and  C_18
DOCKED: REMARK                            x       y       z     vdW  Elec       q    Type
DOCKED: REMARK                         _______ _______ _______ _____ _____    ______ ____
DOCKED: USER                              x       y       z     vdW  Elec       q    Type
DOCKED: USER                           _______ _______ _______ _____ _____    ______ ____
DOCKED: ROOT
DOCKED: ATOM      1  N   UNL     1      19.617 -10.527  -0.255 -0.48 -0.00    +0.000 N 
DOCKED: ATOM      2  H   UNL     1      19.256  -9.581  -0.383 +0.00 -0.00    +0.000 HD
DOCKED: ENDROOT
DOCKED: BRANCH   1   3
DOCKED: ATOM      3  C   UNL     1      18.468 -11.438  -0.062 -0.51 -0.00    +0.000 C 
DOCKED: BRANCH   3   7
DOCKED: ATOM      4  C   UNL     1      15.659  -9.682   2.723 -0.35 +0.00    +0.000 A 
DOCKED: ATOM      5  C   UNL     1      16.793 -10.366   3.191 -0.42 +0.00    +0.000 A 
DOCKED: ATOM      6  C   UNL     1      17.699 -10.942   2.295 -0.45 +0.00    +0.000 A 
DOCKED: ATOM      7  C   UNL     1      17.489 -10.838   0.912 -0.37 -0.00    +0.000 A 
DOCKED: ATOM      8  C   UNL     1      16.370 -10.139   0.439 -0.23 -0.00    +0.000 A 
DOCKED: ATOM      9  C   UNL     1      15.463  -9.563   1.333 -0.27 +0.00    +0.000 A 
DOCKED: BRANCH   4  11
DOCKED: ATOM     10  C   UNL     1      14.922  -7.873   4.270 -0.40 +0.00    +0.000 C 
DOCKED: ATOM     11  C   UNL     1      14.735  -9.079   3.716 -0.39 +0.00    +0.000 C 
DOCKED: BRANCH  10  13
DOCKED: ATOM     12  O   UNL     1      13.885  -7.833   6.384 -0.57 +0.00    +0.000 OA
DOCKED: ATOM     13  C   UNL     1      13.997  -7.279   5.258 -0.43 +0.00    +0.000 C 
DOCKED: ATOM     14  N   UNL     1      13.250  -6.086   4.987 -0.29 +0.00    +0.000 N 
DOCKED: ATOM     15  H   UNL     1      13.406  -5.588   4.153 +0.01 +0.00    +0.000 HD
DOCKED: BRANCH  14  16
DOCKED: ATOM     16  O   UNL     1      12.330  -5.642   5.878 -0.64 +0.00    +0.000 OA
DOCKED: ATOM     17  H   UNL     1      12.181  -6.322   6.553 +0.05 +0.00    +0.000 HD
DOCKED: ENDBRANCH  14  16
DOCKED: ENDBRANCH  10  13
DOCKED: ENDBRANCH   4  11
DOCKED: ENDBRANCH   3   7
DOCKED: ENDBRANCH   1   3
DOCKED: BRANCH   1  18
DOCKED: ATOM     18  C   UNL     1      20.466 -10.460   0.959 -0.66 -0.00    +0.000 C 
DOCKED: BRANCH  18  19
DOCKED: ATOM     19  C   UNL     1      21.008 -11.839   1.368 -0.60 -0.00    +0.000 C 
DOCKED: BRANCH  19  20
DOCKED: ATOM     20  O   UNL     1      20.063 -12.552   2.120 -1.56 -0.00    +0.000 OA
DOCKED: ATOM     21  H   UNL     1      20.104 -13.492   1.884 -0.60 -0.00    +0.000 HD
DOCKED: ENDBRANCH  19  20
DOCKED: ENDBRANCH  18  19
DOCKED: ENDBRANCH   1  18
DOCKED: BRANCH   1  22
DOCKED: ATOM     22  C   UNL     1      20.357 -10.821  -1.505 -0.47 -0.00    +0.000 C 
DOCKED: BRANCH  22  23
DOCKED: ATOM     23  C   UNL     1      20.273  -9.704  -2.566 -0.47 -0.00    +0.000 C 
DOCKED: BRANCH  23  24
DOCKED: ATOM     24  C   UNL     1      20.731 -10.217  -3.897 -0.42 -0.00    +0.000 A 
DOCKED: ATOM     25  C   UNL     1      20.671 -11.534  -4.346 -0.29 -0.00    +0.000 A 
DOCKED: ATOM     26  N   UNL     1      21.246 -11.643  -5.565 -0.49 -0.00    +0.000 N 
DOCKED: ATOM     27  C   UNL     1      21.681 -10.412  -5.883 -0.36 -0.00    +0.000 A 
DOCKED: ATOM     28  C   UNL     1      21.391  -9.516  -4.886 -0.32 -0.00    +0.000 A 
DOCKED: ATOM     29  C   UNL     1      21.767  -8.174  -4.969 -0.24 -0.00    +0.000 A 
DOCKED: ATOM     30  C   UNL     1      22.453  -7.757  -6.125 -0.17 -0.00    +0.000 A 
DOCKED: ATOM     31  C   UNL     1      22.749  -8.678  -7.154 -0.18 -0.00    +0.000 A 
DOCKED: ATOM     32  C   UNL     1      22.362 -10.027  -7.037 -0.27 -0.00    +0.000 A 
DOCKED: ATOM     33  H   UNL     1      21.329 -12.459  -6.109 -0.58 -0.00    +0.000 HD
DOCKED: ENDBRANCH  23  24
DOCKED: ENDBRANCH  22  23
DOCKED: ENDBRANCH   1  22
DOCKED: TORSDOF 11
DOCKED: TER
DOCKED: ENDMDL
________________________________________________________________________________


	BEGINNING GENETIC ALGORITHM DOCKING 82 of 100
Run: 82 Seed: 316810392 1353782204 [ Run 82 of 100 GA/GALS ]
Beginning LAMARCKIAN GENETIC ALGORITHM (LGA), with a maximum of 2500000 energy evaluations.

Final-Value: -14.793


	FINAL GENETIC ALGORITHM DOCKED STATE
	_______________________________________________


Detailed state:  trans 21.715 -10.453 -4.358 quatxyzw -0.799178 0.390592 -0.023540 0.456288 center 0.460 0.128 -0.007 ntor 11 19.9849 -172.5879 -1.1623 -180.0000 149.3094 -52.0706 134.0665 -97.6311 -16.9115 -123.1942 71.2718
State:	 21.715 -10.453  -4.358  -0.898  0.439 -0.026 125.704     19.98 -172.59   -1.16 -180.00  149.31  -52.07  134.07  -97.63  -16.91 -123.19   71.27

DOCKED: MODEL       82
DOCKED: USER    Run = 82
DOCKED: USER    DPF = ligand_dock.biased.dpf
DOCKED: USER  
DOCKED: USER    Estimated Free Energy of Binding    =   -8.69 kcal/mol  [=(1)+(2)+(3)-(4)]
DOCKED: USER    Estimated Inhibition Constant, Ki   =  425.97 nM (nanomolar)  [Temperature = 298.15 K]
DOCKED: USER    
DOCKED: USER    (1) Final Intermolecular Energy     =  -11.97 kcal/mol
DOCKED: USER        vdW + Hbond + desolv Energy     =  -11.97 kcal/mol
DOCKED: USER        Electrostatic Energy            =   +0.00 kcal/mol
DOCKED: USER    (2) Final Total Internal Energy     =   -2.82 kcal/mol
DOCKED: USER    (3) Torsional Free Energy           =   +3.28 kcal/mol
DOCKED: USER    (4) Unbound System's Energy  [=(2)] =   -2.82 kcal/mol
DOCKED: USER    
DOCKED: USER    
DOCKED: USER    NEWDPF move ligand.pdbqt
DOCKED: USER    NEWDPF about 0.460000 0.128000 -0.007000
DOCKED: USER    NEWDPF tran0 21.715092 -10.452553 -4.357544
DOCKED: USER    NEWDPF quaternion0 -0.799178 0.390592 -0.023540 0.456288
DOCKED: USER    NEWDPF axisangle0 -0.898122 0.438950 -0.026454 125.704362
DOCKED: USER    NEWDPF quat0 -0.898122 0.438950 -0.026454 125.704362
DOCKED: USER    NEWDPF dihe0 19.98 -172.59 -1.16 -180.00 149.31 -52.07 134.07 -97.63 -16.91 -123.19 71.27 
DOCKED: USER  keepresnum = 1 
DOCKED: USER  
DOCKED: REMARK  Name = 
DOCKED: REMARK  11 active torsions:
DOCKED: REMARK  status: ('A' for Active; 'I' for Inactive)
DOCKED: REMARK    1  A    between atoms: C_2  and  C_5
DOCKED: REMARK    2  A    between atoms: N_3  and  O_4
DOCKED: REMARK    3  A    between atoms: C_6  and  C_7
DOCKED: REMARK    4  A    between atoms: C_10  and  C_11
DOCKED: REMARK    5  A    between atoms: C_11  and  N_12
DOCKED: REMARK    6  A    between atoms: N_12  and  C_13
DOCKED: REMARK    7  A    between atoms: N_12  and  C_16
DOCKED: REMARK    8  A    between atoms: C_13  and  C_14
DOCKED: REMARK    9  A    between atoms: C_14  and  O_15
DOCKED: REMARK   10  A    between atoms: C_16  and  C_17
DOCKED: REMARK   11  A    between atoms: C_17  and  C_18
DOCKED: REMARK                            x       y       z     vdW  Elec       q    Type
DOCKED: REMARK                         _______ _______ _______ _____ _____    ______ ____
DOCKED: USER                              x       y       z     vdW  Elec       q    Type
DOCKED: USER                           _______ _______ _______ _____ _____    ______ ____
DOCKED: ROOT
DOCKED: ATOM      1  N   UNL     1      21.873  -9.535  -5.606 -0.30 -0.00    +0.000 N 
DOCKED: ATOM      2  H   UNL     1      22.474  -9.286  -4.820 -0.03 -0.00    +0.000 HD
DOCKED: ENDROOT
DOCKED: BRANCH   1   3
DOCKED: ATOM      3  C   UNL     1      21.153 -10.780  -5.259 -0.48 -0.00    +0.000 C 
DOCKED: BRANCH   3   7
DOCKED: ATOM      4  C   UNL     1      20.095 -10.781  -1.063 -0.46 -0.00    +0.000 A 
DOCKED: ATOM      5  C   UNL     1      19.112 -10.981  -2.046 -0.37 -0.00    +0.000 A 
DOCKED: ATOM      6  C   UNL     1      19.448 -10.973  -3.402 -0.38 -0.00    +0.000 A 
DOCKED: ATOM      7  C   UNL     1      20.777 -10.771  -3.801 -0.45 -0.00    +0.000 A 
DOCKED: ATOM      8  C   UNL     1      21.766 -10.591  -2.825 -0.31 -0.00    +0.000 A 
DOCKED: ATOM      9  C   UNL     1      21.432 -10.598  -1.467 -0.49 -0.00    +0.000 A 
DOCKED: BRANCH   4  11
DOCKED: ATOM     10  C   UNL     1      20.485 -11.227   1.358 -0.74 -0.00    +0.000 C 
DOCKED: ATOM     11  C   UNL     1      19.687 -10.810   0.364 -0.61 -0.00    +0.000 C 
DOCKED: BRANCH  10  13
DOCKED: ATOM     12  O   UNL     1      19.513 -10.231   3.257 -0.73 -0.00    +0.000 OA
DOCKED: ATOM     13  C   UNL     1      20.072 -11.252   2.776 -0.76 -0.00    +0.000 C 
DOCKED: ATOM     14  N   UNL     1      20.260 -12.404   3.609 -0.60 -0.00    +0.000 N 
DOCKED: ATOM     15  H   UNL     1      20.600 -13.241   3.219 -0.60 -0.00    +0.000 HD
DOCKED: BRANCH  14  16
DOCKED: ATOM     16  O   UNL     1      19.971 -12.343   4.931 -0.55 -0.00    +0.000 OA
DOCKED: ATOM     17  H   UNL     1      19.372 -11.598   5.096 +0.01 -0.00    +0.000 HD
DOCKED: ENDBRANCH  14  16
DOCKED: ENDBRANCH  10  13
DOCKED: ENDBRANCH   4  11
DOCKED: ENDBRANCH   3   7
DOCKED: ENDBRANCH   1   3
DOCKED: BRANCH   1  18
DOCKED: ATOM     18  C   UNL     1      22.792  -9.742  -6.752 -0.30 -0.00    +0.000 C 
DOCKED: BRANCH  18  19
DOCKED: ATOM     19  C   UNL     1      22.498 -11.049  -7.506 -0.39 -0.00    +0.000 C 
DOCKED: BRANCH  19  20
DOCKED: ATOM     20  O   UNL     1      23.156 -12.136  -6.912 -0.72 -0.00    +0.000 OA
DOCKED: ATOM     21  H   UNL     1      22.515 -12.837  -6.721 -0.58 -0.00    +0.000 HD
DOCKED: ENDBRANCH  19  20
DOCKED: ENDBRANCH  18  19
DOCKED: ENDBRANCH   1  18
DOCKED: BRANCH   1  22
DOCKED: ATOM     22  C   UNL     1      20.953  -8.383  -5.757 -0.21 -0.00    +0.000 C 
DOCKED: BRANCH  22  23
DOCKED: ATOM     23  C   UNL     1      20.298  -8.277  -7.149 -0.10 -0.00    +0.000 C 
DOCKED: BRANCH  23  24
DOCKED: ATOM     24  C   UNL     1      19.239  -9.325  -7.306 -0.14 -0.00    +0.000 A 
DOCKED: ATOM     25  C   UNL     1      19.061 -10.168  -8.400 -0.19 -0.00    +0.000 A 
DOCKED: ATOM     26  N   UNL     1      17.958 -10.933  -8.230 -0.26 -0.00    +0.000 N 
DOCKED: ATOM     27  C   UNL     1      17.431 -10.570  -7.048 -0.26 -0.00    +0.000 A 
DOCKED: ATOM     28  C   UNL     1      18.182  -9.586  -6.457 -0.16 -0.00    +0.000 A 
DOCKED: ATOM     29  C   UNL     1      17.824  -9.021  -5.232 -0.16 -0.00    +0.000 A 
DOCKED: ATOM     30  C   UNL     1      16.659  -9.503  -4.605 -0.18 -0.00    +0.000 A 
DOCKED: ATOM     31  C   UNL     1      15.888 -10.519  -5.210 -0.21 -0.00    +0.000 A 
DOCKED: ATOM     32  C   UNL     1      16.273 -11.064  -6.450 -0.27 -0.00    +0.000 A 
DOCKED: ATOM     33  H   UNL     1      17.611 -11.616  -8.848 -0.01 +0.00    +0.000 HD
DOCKED: ENDBRANCH  23  24
DOCKED: ENDBRANCH  22  23
DOCKED: ENDBRANCH   1  22
DOCKED: TORSDOF 11
DOCKED: TER
DOCKED: ENDMDL
________________________________________________________________________________


	BEGINNING GENETIC ALGORITHM DOCKING 83 of 100
Run: 83 Seed: 1940724532 70018234 [ Run 83 of 100 GA/GALS ]
Beginning LAMARCKIAN GENETIC ALGORITHM (LGA), with a maximum of 2500000 energy evaluations.

Final-Value: -15.204


	FINAL GENETIC ALGORITHM DOCKED STATE
	_______________________________________________


Detailed state:  trans 19.499 -10.992 -6.147 quatxyzw -0.524409 0.564036 0.377252 -0.514334 center 0.460 0.128 -0.007 ntor 11 8.2056 151.6283 -18.5217 91.9708 -127.4142 75.0266 16.8597 39.3223 28.1656 -153.5548 68.7207
State:	 19.499 -10.992  -6.147  -0.611  0.658  0.440 -118.094      8.21  151.63  -18.52   91.97 -127.41   75.03   16.86   39.32   28.17 -153.55   68.72

DOCKED: MODEL       83
DOCKED: USER    Run = 83
DOCKED: USER    DPF = ligand_dock.biased.dpf
DOCKED: USER  
DOCKED: USER    Estimated Free Energy of Binding    =   -9.83 kcal/mol  [=(1)+(2)+(3)-(4)]
DOCKED: USER    Estimated Inhibition Constant, Ki   =   62.65 nM (nanomolar)  [Temperature = 298.15 K]
DOCKED: USER    
DOCKED: USER    (1) Final Intermolecular Energy     =  -13.11 kcal/mol
DOCKED: USER        vdW + Hbond + desolv Energy     =  -13.11 kcal/mol
DOCKED: USER        Electrostatic Energy            =   +0.00 kcal/mol
DOCKED: USER    (2) Final Total Internal Energy     =   -2.10 kcal/mol
DOCKED: USER    (3) Torsional Free Energy           =   +3.28 kcal/mol
DOCKED: USER    (4) Unbound System's Energy  [=(2)] =   -2.10 kcal/mol
DOCKED: USER    
DOCKED: USER    
DOCKED: USER    NEWDPF move ligand.pdbqt
DOCKED: USER    NEWDPF about 0.460000 0.128000 -0.007000
DOCKED: USER    NEWDPF tran0 19.499455 -10.992015 -6.146877
DOCKED: USER    NEWDPF quaternion0 -0.524409 0.564036 0.377252 -0.514334
DOCKED: USER    NEWDPF axisangle0 -0.611491 0.657699 0.439898 -118.094055
DOCKED: USER    NEWDPF quat0 -0.611491 0.657699 0.439898 -118.094055
DOCKED: USER    NEWDPF dihe0 8.21 151.63 -18.52 91.97 -127.41 75.03 16.86 39.32 28.17 -153.55 68.72 
DOCKED: USER  keepresnum = 1 
DOCKED: USER  
DOCKED: REMARK  Name = 
DOCKED: REMARK  11 active torsions:
DOCKED: REMARK  status: ('A' for Active; 'I' for Inactive)
DOCKED: REMARK    1  A    between atoms: C_2  and  C_5
DOCKED: REMARK    2  A    between atoms: N_3  and  O_4
DOCKED: REMARK    3  A    between atoms: C_6  and  C_7
DOCKED: REMARK    4  A    between atoms: C_10  and  C_11
DOCKED: REMARK    5  A    between atoms: C_11  and  N_12
DOCKED: REMARK    6  A    between atoms: N_12  and  C_13
DOCKED: REMARK    7  A    between atoms: N_12  and  C_16
DOCKED: REMARK    8  A    between atoms: C_13  and  C_14
DOCKED: REMARK    9  A    between atoms: C_14  and  O_15
DOCKED: REMARK   10  A    between atoms: C_16  and  C_17
DOCKED: REMARK   11  A    between atoms: C_17  and  C_18
DOCKED: REMARK                            x       y       z     vdW  Elec       q    Type
DOCKED: REMARK                         _______ _______ _______ _____ _____    ______ ____
DOCKED: USER                              x       y       z     vdW  Elec       q    Type
DOCKED: USER                           _______ _______ _______ _____ _____    ______ ____
DOCKED: ROOT
DOCKED: ATOM      1  N   UNL     1      20.643 -11.016  -5.091 -0.43 -0.00    +0.000 N 
DOCKED: ATOM      2  H   UNL     1      20.436 -11.924  -5.509 -0.25 -0.00    +0.000 HD
DOCKED: ENDROOT
DOCKED: BRANCH   1   3
DOCKED: ATOM      3  C   UNL     1      19.814  -9.996  -5.768 -0.28 -0.00    +0.000 C 
DOCKED: BRANCH   3   7
DOCKED: ATOM      4  C   UNL     1      15.962 -11.647  -6.847 -0.31 -0.00    +0.000 A 
DOCKED: ATOM      5  C   UNL     1      16.121 -10.931  -5.649 -0.24 -0.00    +0.000 A 
DOCKED: ATOM      6  C   UNL     1      17.365 -10.404  -5.292 -0.24 -0.00    +0.000 A 
DOCKED: ATOM      7  C   UNL     1      18.474 -10.576  -6.133 -0.29 -0.00    +0.000 A 
DOCKED: ATOM      8  C   UNL     1      18.318 -11.271  -7.340 -0.29 -0.00    +0.000 A 
DOCKED: ATOM      9  C   UNL     1      17.075 -11.801  -7.699 -0.26 -0.00    +0.000 A 
DOCKED: BRANCH   4  11
DOCKED: ATOM     10  C   UNL     1      14.140 -13.342  -6.723 -0.37 -0.00    +0.000 C 
DOCKED: ATOM     11  C   UNL     1      14.618 -12.177  -7.184 -0.33 -0.00    +0.000 C 
DOCKED: BRANCH  10  13
DOCKED: ATOM     12  O   UNL     1      12.350 -13.655  -8.220 -0.25 -0.00    +0.000 OA
DOCKED: ATOM     13  C   UNL     1      12.800 -13.863  -7.062 -0.36 -0.00    +0.000 C 
DOCKED: ATOM     14  N   UNL     1      12.013 -14.618  -6.131 -0.34 -0.00    +0.000 N 
DOCKED: ATOM     15  H   UNL     1      12.394 -14.876  -5.261 -0.21 -0.00    +0.000 HD
DOCKED: BRANCH  14  16
DOCKED: ATOM     16  O   UNL     1      10.745 -14.978  -6.446 -0.33 -0.00    +0.000 OA
DOCKED: ATOM     17  H   UNL     1      10.570 -14.763  -7.375 -0.01 -0.00    +0.000 HD
DOCKED: ENDBRANCH  14  16
DOCKED: ENDBRANCH  10  13
DOCKED: ENDBRANCH   4  11
DOCKED: ENDBRANCH   3   7
DOCKED: ENDBRANCH   1   3
DOCKED: BRANCH   1  18
DOCKED: ATOM     18  C   UNL     1      22.088 -10.792  -5.338 -0.42 -0.00    +0.000 C 
DOCKED: BRANCH  18  19
DOCKED: ATOM     19  C   UNL     1      22.498 -11.160  -6.774 -0.46 -0.00    +0.000 C 
DOCKED: BRANCH  19  20
DOCKED: ATOM     20  O   UNL     1      23.160 -12.396  -6.811 -0.80 -0.00    +0.000 OA
DOCKED: ATOM     21  H   UNL     1      22.514 -13.105  -6.952 -0.60 -0.00    +0.000 HD
DOCKED: ENDBRANCH  19  20
DOCKED: ENDBRANCH  18  19
DOCKED: ENDBRANCH   1  18
DOCKED: BRANCH   1  22
DOCKED: ATOM     22  C   UNL     1      20.282 -11.169  -3.661 -0.43 -0.00    +0.000 C 
DOCKED: BRANCH  22  23
DOCKED: ATOM     23  C   UNL     1      19.944  -9.843  -2.951 -0.43 -0.00    +0.000 C 
DOCKED: BRANCH  23  24
DOCKED: ATOM     24  C   UNL     1      20.321  -9.919  -1.502 -0.48 -0.00    +0.000 A 
DOCKED: ATOM     25  C   UNL     1      21.366  -9.242  -0.878 -0.55 -0.00    +0.000 A 
DOCKED: ATOM     26  N   UNL     1      21.458  -9.613   0.419 -0.57 -0.00    +0.000 N 
DOCKED: ATOM     27  C   UNL     1      20.493 -10.526   0.615 -0.60 -0.00    +0.000 A 
DOCKED: ATOM     28  C   UNL     1      19.781 -10.745  -0.536 -0.49 -0.00    +0.000 A 
DOCKED: ATOM     29  C   UNL     1      18.741 -11.673  -0.595 -0.44 -0.00    +0.000 A 
DOCKED: ATOM     30  C   UNL     1      18.430 -12.383   0.581 -0.46 -0.00    +0.000 A 
DOCKED: ATOM     31  C   UNL     1      19.159 -12.155   1.769 -0.57 -0.00    +0.000 A 
DOCKED: ATOM     32  C   UNL     1      20.208 -11.216   1.793 -0.67 -0.00    +0.000 A 
DOCKED: ATOM     33  H   UNL     1      22.103  -9.280   1.084 -0.34 -0.00    +0.000 HD
DOCKED: ENDBRANCH  23  24
DOCKED: ENDBRANCH  22  23
DOCKED: ENDBRANCH   1  22
DOCKED: TORSDOF 11
DOCKED: TER
DOCKED: ENDMDL
________________________________________________________________________________


	BEGINNING GENETIC ALGORITHM DOCKING 84 of 100
Run: 84 Seed: 567401099 1345267716 [ Run 84 of 100 GA/GALS ]
Beginning LAMARCKIAN GENETIC ALGORITHM (LGA), with a maximum of 2500000 energy evaluations.

Final-Value: -15.023


	FINAL GENETIC ALGORITHM DOCKED STATE
	_______________________________________________


Detailed state:  trans 14.370 -12.137 -1.361 quatxyzw -0.389876 0.366976 0.797330 0.278550 center 0.460 0.128 -0.007 ntor 11 -0.4729 170.7789 103.4763 50.0500 -179.7419 96.2672 -31.5107 94.3491 179.8248 -179.9837 176.7210
State:	 14.370 -12.137  -1.361  -0.406  0.382  0.830 147.653     -0.47  170.78  103.48   50.05 -179.74   96.27  -31.51   94.35  179.82 -179.98  176.72

DOCKED: MODEL       84
DOCKED: USER    Run = 84
DOCKED: USER    DPF = ligand_dock.biased.dpf
DOCKED: USER  
DOCKED: USER    Estimated Free Energy of Binding    =   -8.53 kcal/mol  [=(1)+(2)+(3)-(4)]
DOCKED: USER    Estimated Inhibition Constant, Ki   =  555.86 nM (nanomolar)  [Temperature = 298.15 K]
DOCKED: USER    
DOCKED: USER    (1) Final Intermolecular Energy     =  -11.81 kcal/mol
DOCKED: USER        vdW + Hbond + desolv Energy     =  -11.81 kcal/mol
DOCKED: USER        Electrostatic Energy            =   +0.00 kcal/mol
DOCKED: USER    (2) Final Total Internal Energy     =   -3.21 kcal/mol
DOCKED: USER    (3) Torsional Free Energy           =   +3.28 kcal/mol
DOCKED: USER    (4) Unbound System's Energy  [=(2)] =   -3.21 kcal/mol
DOCKED: USER    
DOCKED: USER    
DOCKED: USER    NEWDPF move ligand.pdbqt
DOCKED: USER    NEWDPF about 0.460000 0.128000 -0.007000
DOCKED: USER    NEWDPF tran0 14.369926 -12.137304 -1.360728
DOCKED: USER    NEWDPF quaternion0 -0.389876 0.366976 0.797330 0.278550
DOCKED: USER    NEWDPF axisangle0 -0.405942 0.382099 0.830187 147.652633
DOCKED: USER    NEWDPF quat0 -0.405942 0.382099 0.830187 147.652633
DOCKED: USER    NEWDPF dihe0 -0.47 170.78 103.48 50.05 -179.74 96.27 -31.51 94.35 179.82 -179.98 176.72 
DOCKED: USER  keepresnum = 1 
DOCKED: USER  
DOCKED: REMARK  Name = 
DOCKED: REMARK  11 active torsions:
DOCKED: REMARK  status: ('A' for Active; 'I' for Inactive)
DOCKED: REMARK    1  A    between atoms: C_2  and  C_5
DOCKED: REMARK    2  A    between atoms: N_3  and  O_4
DOCKED: REMARK    3  A    between atoms: C_6  and  C_7
DOCKED: REMARK    4  A    between atoms: C_10  and  C_11
DOCKED: REMARK    5  A    between atoms: C_11  and  N_12
DOCKED: REMARK    6  A    between atoms: N_12  and  C_13
DOCKED: REMARK    7  A    between atoms: N_12  and  C_16
DOCKED: REMARK    8  A    between atoms: C_13  and  C_14
DOCKED: REMARK    9  A    between atoms: C_14  and  O_15
DOCKED: REMARK   10  A    between atoms: C_16  and  C_17
DOCKED: REMARK   11  A    between atoms: C_17  and  C_18
DOCKED: REMARK                            x       y       z     vdW  Elec       q    Type
DOCKED: REMARK                         _______ _______ _______ _____ _____    ______ ____
DOCKED: USER                              x       y       z     vdW  Elec       q    Type
DOCKED: USER                           _______ _______ _______ _____ _____    ______ ____
DOCKED: ROOT
DOCKED: ATOM      1  N   UNL     1      14.686 -10.741  -1.973 -0.28 -0.00    +0.000 N 
DOCKED: ATOM      2  H   UNL     1      15.081 -11.528  -2.489 -0.02 -0.00    +0.000 HD
DOCKED: ENDROOT
DOCKED: BRANCH   1   3
DOCKED: ATOM      3  C   UNL     1      13.853 -11.280  -0.877 -0.37 +0.00    +0.000 C 
DOCKED: BRANCH   3   7
DOCKED: ATOM      4  C   UNL     1      14.222  -8.820   2.664 -0.24 +0.00    +0.000 A 
DOCKED: ATOM      5  C   UNL     1      13.570  -8.330   1.521 -0.16 +0.00    +0.000 A 
DOCKED: ATOM      6  C   UNL     1      13.456  -9.118   0.372 -0.15 +0.00    +0.000 A 
DOCKED: ATOM      7  C   UNL     1      13.987 -10.416   0.348 -0.23 +0.00    +0.000 A 
DOCKED: ATOM      8  C   UNL     1      14.620 -10.919   1.493 -0.33 +0.00    +0.000 A 
DOCKED: ATOM      9  C   UNL     1      14.736 -10.132   2.643 -0.33 +0.00    +0.000 A 
DOCKED: BRANCH   4  11
DOCKED: ATOM     10  C   UNL     1      14.954  -6.773   3.882 -0.37 +0.00    +0.000 C 
DOCKED: ATOM     11  C   UNL     1      14.307  -7.947   3.861 -0.33 +0.00    +0.000 C 
DOCKED: BRANCH  10  13
DOCKED: ATOM     12  O   UNL     1      14.225  -6.113   6.021 -0.77 +0.00    +0.000 OA
DOCKED: ATOM     13  C   UNL     1      15.033  -5.908   5.077 -0.48 +0.00    +0.000 C 
DOCKED: ATOM     14  N   UNL     1      16.013  -4.869   5.208 -0.43 -0.00    +0.000 N 
DOCKED: ATOM     15  H   UNL     1      16.714  -4.766   4.525 -0.49 -0.00    +0.000 HD
DOCKED: BRANCH  14  16
DOCKED: ATOM     16  O   UNL     1      15.976  -4.028   6.270 -0.64 +0.00    +0.000 OA
DOCKED: ATOM     17  H   UNL     1      15.225  -4.260   6.839 -0.05 +0.00    +0.000 HD
DOCKED: ENDBRANCH  14  16
DOCKED: ENDBRANCH  10  13
DOCKED: ENDBRANCH   4  11
DOCKED: ENDBRANCH   3   7
DOCKED: ENDBRANCH   1   3
DOCKED: BRANCH   1  18
DOCKED: ATOM     18  C   UNL     1      13.868  -9.996  -2.960 -0.24 -0.00    +0.000 C 
DOCKED: BRANCH  18  19
DOCKED: ATOM     19  C   UNL     1      13.860 -10.673  -4.340 -0.25 -0.00    +0.000 C 
DOCKED: BRANCH  19  20
DOCKED: ATOM     20  O   UNL     1      14.249 -12.017  -4.248 -0.34 -0.00    +0.000 OA
DOCKED: ATOM     21  H   UNL     1      13.484 -12.588  -4.418 -0.49 -0.00    +0.000 HD
DOCKED: ENDBRANCH  19  20
DOCKED: ENDBRANCH  18  19
DOCKED: ENDBRANCH   1  18
DOCKED: BRANCH   1  22
DOCKED: ATOM     22  C   UNL     1      15.862  -9.996  -1.464 -0.25 -0.00    +0.000 C 
DOCKED: BRANCH  22  23
DOCKED: ATOM     23  C   UNL     1      17.216 -10.668  -1.769 -0.24 -0.00    +0.000 C 
DOCKED: BRANCH  23  24
DOCKED: ATOM     24  C   UNL     1      17.642 -11.525  -0.616 -0.37 -0.00    +0.000 A 
DOCKED: ATOM     25  C   UNL     1      16.964 -12.629  -0.106 -0.46 +0.00    +0.000 A 
DOCKED: ATOM     26  N   UNL     1      17.601 -13.110   0.986 -0.39 +0.00    +0.000 N 
DOCKED: ATOM     27  C   UNL     1      18.666 -12.312   1.177 -0.51 -0.00    +0.000 A 
DOCKED: ATOM     28  C   UNL     1      18.721 -11.329   0.223 -0.47 -0.00    +0.000 A 
DOCKED: ATOM     29  C   UNL     1      19.722 -10.356   0.225 -0.46 -0.00    +0.000 A 
DOCKED: ATOM     30  C   UNL     1      20.694 -10.418   1.241 -0.49 -0.00    +0.000 A 
DOCKED: ATOM     31  C   UNL     1      20.641 -11.433   2.221 -0.66 -0.00    +0.000 A 
DOCKED: ATOM     32  C   UNL     1      19.614 -12.396   2.196 -0.58 -0.00    +0.000 A 
DOCKED: ATOM     33  H   UNL     1      17.338 -13.887   1.529 +0.04 +0.00    +0.000 HD
DOCKED: ENDBRANCH  23  24
DOCKED: ENDBRANCH  22  23
DOCKED: ENDBRANCH   1  22
DOCKED: TORSDOF 11
DOCKED: TER
DOCKED: ENDMDL
________________________________________________________________________________


	BEGINNING GENETIC ALGORITHM DOCKING 85 of 100
Run: 85 Seed: 1569076433 1323826085 [ Run 85 of 100 GA/GALS ]
Beginning LAMARCKIAN GENETIC ALGORITHM (LGA), with a maximum of 2500000 energy evaluations.

Final-Value: -14.424


	FINAL GENETIC ALGORITHM DOCKED STATE
	_______________________________________________


Detailed state:  trans 19.989 -9.045 -5.579 quatxyzw -0.762399 0.065103 -0.643622 0.016131 center 0.460 0.128 -0.007 ntor 11 26.1103 164.2356 80.1551 37.4250 64.1506 -131.3067 157.9490 -157.2246 128.4922 114.4167 0.2047
State:	 19.989  -9.045  -5.579  -0.762  0.065 -0.644 178.151     26.11  164.24   80.16   37.43   64.15 -131.31  157.95 -157.22  128.49  114.42    0.20

DOCKED: MODEL       85
DOCKED: USER    Run = 85
DOCKED: USER    DPF = ligand_dock.biased.dpf
DOCKED: USER  
DOCKED: USER    Estimated Free Energy of Binding    =   -7.24 kcal/mol  [=(1)+(2)+(3)-(4)]
DOCKED: USER    Estimated Inhibition Constant, Ki   =    4.92 uM (micromolar)  [Temperature = 298.15 K]
DOCKED: USER    
DOCKED: USER    (1) Final Intermolecular Energy     =  -10.52 kcal/mol
DOCKED: USER        vdW + Hbond + desolv Energy     =  -10.52 kcal/mol
DOCKED: USER        Electrostatic Energy            =   +0.00 kcal/mol
DOCKED: USER    (2) Final Total Internal Energy     =   -3.90 kcal/mol
DOCKED: USER    (3) Torsional Free Energy           =   +3.28 kcal/mol
DOCKED: USER    (4) Unbound System's Energy  [=(2)] =   -3.90 kcal/mol
DOCKED: USER    
DOCKED: USER    
DOCKED: USER    NEWDPF move ligand.pdbqt
DOCKED: USER    NEWDPF about 0.460000 0.128000 -0.007000
DOCKED: USER    NEWDPF tran0 19.988996 -9.045340 -5.578541
DOCKED: USER    NEWDPF quaternion0 -0.762399 0.065103 -0.643622 0.016131
DOCKED: USER    NEWDPF axisangle0 -0.762498 0.065111 -0.643706 178.151424
DOCKED: USER    NEWDPF quat0 -0.762498 0.065111 -0.643706 178.151424
DOCKED: USER    NEWDPF dihe0 26.11 164.24 80.16 37.43 64.15 -131.31 157.95 -157.22 128.49 114.42 0.20 
DOCKED: USER  keepresnum = 1 
DOCKED: USER  
DOCKED: REMARK  Name = 
DOCKED: REMARK  11 active torsions:
DOCKED: REMARK  status: ('A' for Active; 'I' for Inactive)
DOCKED: REMARK    1  A    between atoms: C_2  and  C_5
DOCKED: REMARK    2  A    between atoms: N_3  and  O_4
DOCKED: REMARK    3  A    between atoms: C_6  and  C_7
DOCKED: REMARK    4  A    between atoms: C_10  and  C_11
DOCKED: REMARK    5  A    between atoms: C_11  and  N_12
DOCKED: REMARK    6  A    between atoms: N_12  and  C_13
DOCKED: REMARK    7  A    between atoms: N_12  and  C_16
DOCKED: REMARK    8  A    between atoms: C_13  and  C_14
DOCKED: REMARK    9  A    between atoms: C_14  and  O_15
DOCKED: REMARK   10  A    between atoms: C_16  and  C_17
DOCKED: REMARK   11  A    between atoms: C_17  and  C_18
DOCKED: REMARK                            x       y       z     vdW  Elec       q    Type
DOCKED: REMARK                         _______ _______ _______ _____ _____    ______ ____
DOCKED: USER                              x       y       z     vdW  Elec       q    Type
DOCKED: USER                           _______ _______ _______ _____ _____    ______ ____
DOCKED: ROOT
DOCKED: ATOM      1  N   UNL     1      19.977  -7.737  -6.423 -0.09 -0.00    +0.000 N 
DOCKED: ATOM      2  H   UNL     1      19.240  -7.792  -5.719 +0.00 -0.00    +0.000 HD
DOCKED: ENDROOT
DOCKED: BRANCH   1   3
DOCKED: ATOM      3  C   UNL     1      20.851  -8.920  -6.269 -0.19 -0.00    +0.000 C 
DOCKED: BRANCH   3   7
DOCKED: ATOM      4  C   UNL     1      21.094 -10.083  -2.107 -0.52 -0.00    +0.000 A 
DOCKED: ATOM      5  C   UNL     1      20.265  -9.021  -2.503 -0.29 -0.00    +0.000 A 
DOCKED: ATOM      6  C   UNL     1      20.191  -8.636  -3.845 -0.28 -0.00    +0.000 A 
DOCKED: ATOM      7  C   UNL     1      20.939  -9.313  -4.818 -0.30 -0.00    +0.000 A 
DOCKED: ATOM      8  C   UNL     1      21.752 -10.388  -4.433 -0.41 -0.00    +0.000 A 
DOCKED: ATOM      9  C   UNL     1      21.829 -10.774  -3.091 -0.18 -0.00    +0.000 A 
DOCKED: BRANCH   4  11
DOCKED: ATOM     10  C   UNL     1      20.104 -11.037  -0.029 -0.61 -0.00    +0.000 C 
DOCKED: ATOM     11  C   UNL     1      21.129 -10.459  -0.671 -0.69 -0.00    +0.000 C 
DOCKED: BRANCH  10  13
DOCKED: ATOM     12  O   UNL     1      19.752 -12.557   1.735 -1.63 -0.00    +0.000 OA
DOCKED: ATOM     13  C   UNL     1      20.146 -11.408   1.401 -0.74 -0.00    +0.000 C 
DOCKED: ATOM     14  N   UNL     1      20.644 -10.519   2.410 -0.59 -0.00    +0.000 N 
DOCKED: ATOM     15  H   UNL     1      21.050  -9.661   2.150 -0.57 -0.00    +0.000 HD
DOCKED: BRANCH  14  16
DOCKED: ATOM     16  O   UNL     1      20.559 -10.858   3.718 -0.82 -0.00    +0.000 OA
DOCKED: ATOM     17  H   UNL     1      20.538 -11.824   3.801 -0.37 -0.00    +0.000 HD
DOCKED: ENDBRANCH  14  16
DOCKED: ENDBRANCH  10  13
DOCKED: ENDBRANCH   4  11
DOCKED: ENDBRANCH   3   7
DOCKED: ENDBRANCH   1   3
DOCKED: BRANCH   1  18
DOCKED: ATOM     18  C   UNL     1      20.708  -6.481  -6.128 -0.09 -0.00    +0.000 C 
DOCKED: BRANCH  18  19
DOCKED: ATOM     19  C   UNL     1      19.977  -5.610  -5.094 -0.13 -0.00    +0.000 C 
DOCKED: BRANCH  19  20
DOCKED: ATOM     20  O   UNL     1      18.739  -6.169  -4.745 -0.16 -0.00    +0.000 OA
DOCKED: ATOM     21  H   UNL     1      18.808  -6.590  -3.874 -0.02 -0.00    +0.000 HD
DOCKED: ENDBRANCH  19  20
DOCKED: ENDBRANCH  18  19
DOCKED: ENDBRANCH   1  18
DOCKED: BRANCH   1  22
DOCKED: ATOM     22  C   UNL     1      19.260  -7.740  -7.721 -0.06 -0.00    +0.000 C 
DOCKED: BRANCH  22  23
DOCKED: ATOM     23  C   UNL     1      18.316  -8.943  -7.917 -0.11 -0.00    +0.000 C 
DOCKED: BRANCH  23  24
DOCKED: ATOM     24  C   UNL     1      18.085  -9.641  -6.612 -0.16 -0.00    +0.000 A 
DOCKED: ATOM     25  C   UNL     1      18.568 -10.893  -6.241 -0.33 -0.00    +0.000 A 
DOCKED: ATOM     26  N   UNL     1      18.095 -11.239  -5.023 -0.28 -0.00    +0.000 N 
DOCKED: ATOM     27  C   UNL     1      17.307 -10.224  -4.627 -0.22 -0.00    +0.000 A 
DOCKED: ATOM     28  C   UNL     1      17.270  -9.233  -5.574 -0.14 -0.00    +0.000 A 
DOCKED: ATOM     29  C   UNL     1      16.497  -8.084  -5.408 -0.11 -0.00    +0.000 A 
DOCKED: ATOM     30  C   UNL     1      15.751  -7.962  -4.220 -0.13 -0.00    +0.000 A 
DOCKED: ATOM     31  C   UNL     1      15.792  -8.981  -3.242 -0.17 -0.00    +0.000 A 
DOCKED: ATOM     32  C   UNL     1      16.577 -10.132  -3.443 -0.22 -0.00    +0.000 A 
DOCKED: ATOM     33  H   UNL     1      18.289 -12.066  -4.526 +0.07 -0.00    +0.000 HD
DOCKED: ENDBRANCH  23  24
DOCKED: ENDBRANCH  22  23
DOCKED: ENDBRANCH   1  22
DOCKED: TORSDOF 11
DOCKED: TER
DOCKED: ENDMDL
________________________________________________________________________________


	BEGINNING GENETIC ALGORITHM DOCKING 86 of 100
Run: 86 Seed: 1492536974 960246690 [ Run 86 of 100 GA/GALS ]
Beginning LAMARCKIAN GENETIC ALGORITHM (LGA), with a maximum of 2500000 energy evaluations.

Final-Value: -14.447


	FINAL GENETIC ALGORITHM DOCKED STATE
	_______________________________________________


Detailed state:  trans 21.493 -10.007 -5.104 quatxyzw 0.410674 0.478409 -0.312133 -0.710665 center 0.460 0.128 -0.007 ntor 11 -2.8260 143.3907 125.1780 35.3861 159.3609 177.2379 62.5058 67.2758 88.5916 -16.4495 -13.9558
State:	 21.493 -10.007  -5.104   0.584  0.680 -0.444 -89.422     -2.83  143.39  125.18   35.39  159.36  177.24   62.51   67.28   88.59  -16.45  -13.96

DOCKED: MODEL       86
DOCKED: USER    Run = 86
DOCKED: USER    DPF = ligand_dock.biased.dpf
DOCKED: USER  
DOCKED: USER    Estimated Free Energy of Binding    =   -8.50 kcal/mol  [=(1)+(2)+(3)-(4)]
DOCKED: USER    Estimated Inhibition Constant, Ki   =  583.55 nM (nanomolar)  [Temperature = 298.15 K]
DOCKED: USER    
DOCKED: USER    (1) Final Intermolecular Energy     =  -11.79 kcal/mol
DOCKED: USER        vdW + Hbond + desolv Energy     =  -11.79 kcal/mol
DOCKED: USER        Electrostatic Energy            =   +0.00 kcal/mol
DOCKED: USER    (2) Final Total Internal Energy     =   -2.66 kcal/mol
DOCKED: USER    (3) Torsional Free Energy           =   +3.28 kcal/mol
DOCKED: USER    (4) Unbound System's Energy  [=(2)] =   -2.66 kcal/mol
DOCKED: USER    
DOCKED: USER    
DOCKED: USER    NEWDPF move ligand.pdbqt
DOCKED: USER    NEWDPF about 0.460000 0.128000 -0.007000
DOCKED: USER    NEWDPF tran0 21.492803 -10.006603 -5.103941
DOCKED: USER    NEWDPF quaternion0 0.410674 0.478409 -0.312133 -0.710665
DOCKED: USER    NEWDPF axisangle0 0.583733 0.680012 -0.443666 -89.421951
DOCKED: USER    NEWDPF quat0 0.583733 0.680012 -0.443666 -89.421951
DOCKED: USER    NEWDPF dihe0 -2.83 143.39 125.18 35.39 159.36 177.24 62.51 67.28 88.59 -16.45 -13.96 
DOCKED: USER  keepresnum = 1 
DOCKED: USER  
DOCKED: REMARK  Name = 
DOCKED: REMARK  11 active torsions:
DOCKED: REMARK  status: ('A' for Active; 'I' for Inactive)
DOCKED: REMARK    1  A    between atoms: C_2  and  C_5
DOCKED: REMARK    2  A    between atoms: N_3  and  O_4
DOCKED: REMARK    3  A    between atoms: C_6  and  C_7
DOCKED: REMARK    4  A    between atoms: C_10  and  C_11
DOCKED: REMARK    5  A    between atoms: C_11  and  N_12
DOCKED: REMARK    6  A    between atoms: N_12  and  C_13
DOCKED: REMARK    7  A    between atoms: N_12  and  C_16
DOCKED: REMARK    8  A    between atoms: C_13  and  C_14
DOCKED: REMARK    9  A    between atoms: C_14  and  O_15
DOCKED: REMARK   10  A    between atoms: C_16  and  C_17
DOCKED: REMARK   11  A    between atoms: C_17  and  C_18
DOCKED: REMARK                            x       y       z     vdW  Elec       q    Type
DOCKED: REMARK                         _______ _______ _______ _____ _____    ______ ____
DOCKED: USER                              x       y       z     vdW  Elec       q    Type
DOCKED: USER                           _______ _______ _______ _____ _____    ______ ____
DOCKED: ROOT
DOCKED: ATOM      1  N   UNL     1      20.123 -10.534  -4.585 -0.36 -0.00    +0.000 N 
DOCKED: ATOM      2  H   UNL     1      20.053  -9.778  -5.267 +0.00 -0.00    +0.000 HD
DOCKED: ENDROOT
DOCKED: BRANCH   1   3
DOCKED: ATOM      3  C   UNL     1      21.548 -10.904  -4.450 -0.52 -0.00    +0.000 C 
DOCKED: BRANCH   3   7
DOCKED: ATOM      4  C   UNL     1      23.308 -11.381  -8.375 -0.34 -0.00    +0.000 A 
DOCKED: ATOM      5  C   UNL     1      23.425 -12.397  -7.412 -0.41 -0.00    +0.000 A 
DOCKED: ATOM      6  C   UNL     1      22.866 -12.244  -6.141 -0.44 -0.00    +0.000 A 
DOCKED: ATOM      7  C   UNL     1      22.171 -11.071  -5.810 -0.42 -0.00    +0.000 A 
DOCKED: ATOM      8  C   UNL     1      22.032 -10.062  -6.773 -0.28 -0.00    +0.000 A 
DOCKED: ATOM      9  C   UNL     1      22.591 -10.213  -8.045 -0.23 -0.00    +0.000 A 
DOCKED: BRANCH   4  11
DOCKED: ATOM     10  C   UNL     1      24.250 -12.805 -10.189 -0.34 -0.00    +0.000 C 
DOCKED: ATOM     11  C   UNL     1      23.911 -11.598  -9.714 -0.27 -0.00    +0.000 C 
DOCKED: BRANCH  10  13
DOCKED: ATOM     12  O   UNL     1      24.447 -12.302 -12.481 -0.10 -0.00    +0.000 OA
DOCKED: ATOM     13  C   UNL     1      24.849 -13.014 -11.524 -0.21 -0.00    +0.000 C 
DOCKED: ATOM     14  N   UNL     1      25.887 -13.977 -11.755 -0.19 -0.00    +0.000 N 
DOCKED: ATOM     15  H   UNL     1      26.281 -14.465 -10.998 -0.54 -0.00    +0.000 HD
DOCKED: BRANCH  14  16
DOCKED: ATOM     16  O   UNL     1      26.327 -14.213 -13.015 -0.18 -0.00    +0.000 OA
DOCKED: ATOM     17  H   UNL     1      25.807 -13.687 -13.642 +0.00 -0.00    +0.000 HD
DOCKED: ENDBRANCH  14  16
DOCKED: ENDBRANCH  10  13
DOCKED: ENDBRANCH   4  11
DOCKED: ENDBRANCH   3   7
DOCKED: ENDBRANCH   1   3
DOCKED: BRANCH   1  18
DOCKED: ATOM     18  C   UNL     1      19.325 -11.648  -5.152 -0.43 -0.00    +0.000 C 
DOCKED: BRANCH  18  19
DOCKED: ATOM     19  C   UNL     1      18.457 -11.199  -6.339 -0.38 -0.00    +0.000 C 
DOCKED: BRANCH  19  20
DOCKED: ATOM     20  O   UNL     1      19.156 -10.312  -7.170 -0.27 -0.00    +0.000 OA
DOCKED: ATOM     21  H   UNL     1      19.718 -10.814  -7.780 -0.03 -0.00    +0.000 HD
DOCKED: ENDBRANCH  19  20
DOCKED: ENDBRANCH  18  19
DOCKED: ENDBRANCH   1  18
DOCKED: BRANCH   1  22
DOCKED: ATOM     22  C   UNL     1      19.574  -9.962  -3.332 -0.39 -0.00    +0.000 C 
DOCKED: BRANCH  22  23
DOCKED: ATOM     23  C   UNL     1      20.643  -9.391  -2.378 -0.51 -0.00    +0.000 C 
DOCKED: BRANCH  23  24
DOCKED: ATOM     24  C   UNL     1      20.579 -10.087  -1.052 -0.55 -0.00    +0.000 A 
DOCKED: ATOM     25  C   UNL     1      21.616 -10.216  -0.131 -0.58 -0.00    +0.000 A 
DOCKED: ATOM     26  N   UNL     1      21.222 -10.974   0.917 -0.52 -0.00    +0.000 N 
DOCKED: ATOM     27  C   UNL     1      19.953 -11.335   0.661 -0.60 -0.00    +0.000 A 
DOCKED: ATOM     28  C   UNL     1      19.528 -10.818  -0.536 -0.47 -0.00    +0.000 A 
DOCKED: ATOM     29  C   UNL     1      18.252 -11.076  -1.038 -0.37 -0.00    +0.000 A 
DOCKED: ATOM     30  C   UNL     1      17.396 -11.884  -0.267 -0.41 -0.00    +0.000 A 
DOCKED: ATOM     31  C   UNL     1      17.831 -12.413   0.968 -0.47 +0.00    +0.000 A 
DOCKED: ATOM     32  C   UNL     1      19.128 -12.140   1.444 -0.58 -0.00    +0.000 A 
DOCKED: ATOM     33  H   UNL     1      21.757 -11.212   1.709 -0.38 -0.00    +0.000 HD
DOCKED: ENDBRANCH  23  24
DOCKED: ENDBRANCH  22  23
DOCKED: ENDBRANCH   1  22
DOCKED: TORSDOF 11
DOCKED: TER
DOCKED: ENDMDL
________________________________________________________________________________


	BEGINNING GENETIC ALGORITHM DOCKING 87 of 100
Run: 87 Seed: 22222544 1928857334 [ Run 87 of 100 GA/GALS ]
Beginning LAMARCKIAN GENETIC ALGORITHM (LGA), with a maximum of 2500000 energy evaluations.

Final-Value: -14.870


	FINAL GENETIC ALGORITHM DOCKED STATE
	_______________________________________________


Detailed state:  trans 20.339 -9.484 -6.482 quatxyzw -0.192482 -0.689863 -0.650682 -0.252296 center 0.460 0.128 -0.007 ntor 11 -58.0610 4.0569 92.3251 46.5641 19.3188 179.9596 118.6616 36.8454 -177.9243 -109.0490 42.0151
State:	 20.339  -9.484  -6.482  -0.199 -0.713 -0.672 -150.773    -58.06    4.06   92.33   46.56   19.32  179.96  118.66   36.85 -177.92 -109.05   42.02

DOCKED: MODEL       87
DOCKED: USER    Run = 87
DOCKED: USER    DPF = ligand_dock.biased.dpf
DOCKED: USER  
DOCKED: USER    Estimated Free Energy of Binding    =   -9.04 kcal/mol  [=(1)+(2)+(3)-(4)]
DOCKED: USER    Estimated Inhibition Constant, Ki   =  236.92 nM (nanomolar)  [Temperature = 298.15 K]
DOCKED: USER    
DOCKED: USER    (1) Final Intermolecular Energy     =  -12.32 kcal/mol
DOCKED: USER        vdW + Hbond + desolv Energy     =  -12.32 kcal/mol
DOCKED: USER        Electrostatic Energy            =   +0.00 kcal/mol
DOCKED: USER    (2) Final Total Internal Energy     =   -2.55 kcal/mol
DOCKED: USER    (3) Torsional Free Energy           =   +3.28 kcal/mol
DOCKED: USER    (4) Unbound System's Energy  [=(2)] =   -2.55 kcal/mol
DOCKED: USER    
DOCKED: USER    
DOCKED: USER    NEWDPF move ligand.pdbqt
DOCKED: USER    NEWDPF about 0.460000 0.128000 -0.007000
DOCKED: USER    NEWDPF tran0 20.338932 -9.483567 -6.481694
DOCKED: USER    NEWDPF quaternion0 -0.192482 -0.689863 -0.650682 -0.252296
DOCKED: USER    NEWDPF axisangle0 -0.198917 -0.712926 -0.672435 -150.773168
DOCKED: USER    NEWDPF quat0 -0.198917 -0.712926 -0.672435 -150.773168
DOCKED: USER    NEWDPF dihe0 -58.06 4.06 92.33 46.56 19.32 179.96 118.66 36.85 -177.92 -109.05 42.02 
DOCKED: USER  keepresnum = 1 
DOCKED: USER  
DOCKED: REMARK  Name = 
DOCKED: REMARK  11 active torsions:
DOCKED: REMARK  status: ('A' for Active; 'I' for Inactive)
DOCKED: REMARK    1  A    between atoms: C_2  and  C_5
DOCKED: REMARK    2  A    between atoms: N_3  and  O_4
DOCKED: REMARK    3  A    between atoms: C_6  and  C_7
DOCKED: REMARK    4  A    between atoms: C_10  and  C_11
DOCKED: REMARK    5  A    between atoms: C_11  and  N_12
DOCKED: REMARK    6  A    between atoms: N_12  and  C_13
DOCKED: REMARK    7  A    between atoms: N_12  and  C_16
DOCKED: REMARK    8  A    between atoms: C_13  and  C_14
DOCKED: REMARK    9  A    between atoms: C_14  and  O_15
DOCKED: REMARK   10  A    between atoms: C_16  and  C_17
DOCKED: REMARK   11  A    between atoms: C_17  and  C_18
DOCKED: REMARK                            x       y       z     vdW  Elec       q    Type
DOCKED: REMARK                         _______ _______ _______ _____ _____    ______ ____
DOCKED: USER                              x       y       z     vdW  Elec       q    Type
DOCKED: USER                           _______ _______ _______ _____ _____    ______ ____
DOCKED: ROOT
DOCKED: ATOM      1  N   UNL     1      20.347  -9.532  -8.038 -0.15 -0.00    +0.000 N 
DOCKED: ATOM      2  H   UNL     1      20.029 -10.392  -7.591 -0.01 -0.00    +0.000 HD
DOCKED: ENDROOT
DOCKED: BRANCH   1   3
DOCKED: ATOM      3  C   UNL     1      20.573  -8.520  -6.984 -0.13 -0.00    +0.000 C 
DOCKED: BRANCH   3   7
DOCKED: ATOM      4  C   UNL     1      20.203 -10.331  -3.071 -0.43 -0.00    +0.000 A 
DOCKED: ATOM      5  C   UNL     1      21.205  -9.379  -3.324 -0.42 -0.00    +0.000 A 
DOCKED: ATOM      6  C   UNL     1      21.333  -8.799  -4.589 -0.30 -0.00    +0.000 A 
DOCKED: ATOM      7  C   UNL     1      20.456  -9.154  -5.623 -0.20 -0.00    +0.000 A 
DOCKED: ATOM      8  C   UNL     1      19.441 -10.087  -5.371 -0.26 -0.00    +0.000 A 
DOCKED: ATOM      9  C   UNL     1      19.311 -10.670  -4.107 -0.36 -0.00    +0.000 A 
DOCKED: BRANCH   4  11
DOCKED: ATOM     10  C   UNL     1      20.611 -10.326  -0.613 -0.65 -0.00    +0.000 C 
DOCKED: ATOM     11  C   UNL     1      20.103 -10.910  -1.708 -0.42 -0.00    +0.000 C 
DOCKED: BRANCH  10  13
DOCKED: ATOM     12  O   UNL     1      20.976 -10.257   1.712 -0.61 -0.00    +0.000 OA
DOCKED: ATOM     13  C   UNL     1      20.507 -10.908   0.742 -0.70 -0.00    +0.000 C 
DOCKED: ATOM     14  N   UNL     1      19.868 -12.168   0.988 -0.64 -0.00    +0.000 N 
DOCKED: ATOM     15  H   UNL     1      19.408 -12.636   0.255 -0.31 -0.00    +0.000 HD
DOCKED: BRANCH  14  16
DOCKED: ATOM     16  O   UNL     1      19.897 -12.715   2.227 -1.48 -0.00    +0.000 OA
DOCKED: ATOM     17  H   UNL     1      20.818 -12.836   2.505 -0.58 -0.00    +0.000 HD
DOCKED: ENDBRANCH  14  16
DOCKED: ENDBRANCH  10  13
DOCKED: ENDBRANCH   4  11
DOCKED: ENDBRANCH   3   7
DOCKED: ENDBRANCH   1   3
DOCKED: BRANCH   1  18
DOCKED: ATOM     18  C   UNL     1      19.246  -9.132  -8.947 -0.12 -0.00    +0.000 C 
DOCKED: BRANCH  18  19
DOCKED: ATOM     19  C   UNL     1      18.077 -10.130  -8.921 -0.18 -0.00    +0.000 C 
DOCKED: BRANCH  19  20
DOCKED: ATOM     20  O   UNL     1      18.251 -11.089  -7.913 -0.35 -0.00    +0.000 OA
DOCKED: ATOM     21  H   UNL     1      19.097 -11.544  -8.042 -0.04 -0.00    +0.000 HD
DOCKED: ENDBRANCH  19  20
DOCKED: ENDBRANCH  18  19
DOCKED: ENDBRANCH   1  18
DOCKED: BRANCH   1  22
DOCKED: ATOM     22  C   UNL     1      21.605  -9.909  -8.726 -0.19 -0.00    +0.000 C 
DOCKED: BRANCH  22  23
DOCKED: ATOM     23  C   UNL     1      22.024 -11.378  -8.516 -0.25 -0.00    +0.000 C 
DOCKED: BRANCH  23  24
DOCKED: ATOM     24  C   UNL     1      23.514 -11.511  -8.608 -0.33 -0.00    +0.000 A 
DOCKED: ATOM     25  C   UNL     1      24.223 -12.616  -9.071 -0.37 -0.00    +0.000 A 
DOCKED: ATOM     26  N   UNL     1      25.553 -12.413  -8.936 -0.41 -0.00    +0.000 N 
DOCKED: ATOM     27  C   UNL     1      25.690 -11.197  -8.379 -0.37 -0.00    +0.000 A 
DOCKED: ATOM     28  C   UNL     1      24.467 -10.618  -8.157 -0.31 -0.00    +0.000 A 
DOCKED: ATOM     29  C   UNL     1      24.343  -9.363  -7.560 -0.24 -0.00    +0.000 A 
DOCKED: ATOM     30  C   UNL     1      25.526  -8.693  -7.194 -0.24 -0.00    +0.000 A 
DOCKED: ATOM     31  C   UNL     1      26.786  -9.286  -7.427 -0.35 -0.00    +0.000 A 
DOCKED: ATOM     32  C   UNL     1      26.876 -10.557  -8.026 -0.36 -0.00    +0.000 A 
DOCKED: ATOM     33  H   UNL     1      26.275 -13.030  -9.195 -0.57 -0.00    +0.000 HD
DOCKED: ENDBRANCH  23  24
DOCKED: ENDBRANCH  22  23
DOCKED: ENDBRANCH   1  22
DOCKED: TORSDOF 11
DOCKED: TER
DOCKED: ENDMDL
________________________________________________________________________________


	BEGINNING GENETIC ALGORITHM DOCKING 88 of 100
Run: 88 Seed: 839568835 1238166089 [ Run 88 of 100 GA/GALS ]
Beginning LAMARCKIAN GENETIC ALGORITHM (LGA), with a maximum of 2500000 energy evaluations.

Final-Value: -15.443


	FINAL GENETIC ALGORITHM DOCKED STATE
	_______________________________________________


Detailed state:  trans 16.282 -9.852 -1.277 quatxyzw 0.738275 0.483815 -0.207858 0.421507 center 0.460 0.128 -0.007 ntor 11 13.9471 -85.3286 169.3224 -89.4838 51.9791 -148.1842 -52.2177 -132.4732 179.7106 -94.1485 76.0190
State:	 16.282  -9.852  -1.277   0.814  0.534 -0.229 130.140     13.95  -85.33  169.32  -89.48   51.98 -148.18  -52.22 -132.47  179.71  -94.15   76.02

DOCKED: MODEL       88
DOCKED: USER    Run = 88
DOCKED: USER    DPF = ligand_dock.biased.dpf
DOCKED: USER  
DOCKED: USER    Estimated Free Energy of Binding    =   -9.44 kcal/mol  [=(1)+(2)+(3)-(4)]
DOCKED: USER    Estimated Inhibition Constant, Ki   =  120.61 nM (nanomolar)  [Temperature = 298.15 K]
DOCKED: USER    
DOCKED: USER    (1) Final Intermolecular Energy     =  -12.72 kcal/mol
DOCKED: USER        vdW + Hbond + desolv Energy     =  -12.72 kcal/mol
DOCKED: USER        Electrostatic Energy            =   +0.00 kcal/mol
DOCKED: USER    (2) Final Total Internal Energy     =   -2.72 kcal/mol
DOCKED: USER    (3) Torsional Free Energy           =   +3.28 kcal/mol
DOCKED: USER    (4) Unbound System's Energy  [=(2)] =   -2.72 kcal/mol
DOCKED: USER    
DOCKED: USER    
DOCKED: USER    NEWDPF move ligand.pdbqt
DOCKED: USER    NEWDPF about 0.460000 0.128000 -0.007000
DOCKED: USER    NEWDPF tran0 16.281990 -9.852084 -1.277200
DOCKED: USER    NEWDPF quaternion0 0.738275 0.483815 -0.207858 0.421507
DOCKED: USER    NEWDPF axisangle0 0.814132 0.533526 -0.229215 130.140415
DOCKED: USER    NEWDPF quat0 0.814132 0.533526 -0.229215 130.140415
DOCKED: USER    NEWDPF dihe0 13.95 -85.33 169.32 -89.48 51.98 -148.18 -52.22 -132.47 179.71 -94.15 76.02 
DOCKED: USER  keepresnum = 1 
DOCKED: USER  
DOCKED: REMARK  Name = 
DOCKED: REMARK  11 active torsions:
DOCKED: REMARK  status: ('A' for Active; 'I' for Inactive)
DOCKED: REMARK    1  A    between atoms: C_2  and  C_5
DOCKED: REMARK    2  A    between atoms: N_3  and  O_4
DOCKED: REMARK    3  A    between atoms: C_6  and  C_7
DOCKED: REMARK    4  A    between atoms: C_10  and  C_11
DOCKED: REMARK    5  A    between atoms: C_11  and  N_12
DOCKED: REMARK    6  A    between atoms: N_12  and  C_13
DOCKED: REMARK    7  A    between atoms: N_12  and  C_16
DOCKED: REMARK    8  A    between atoms: C_13  and  C_14
DOCKED: REMARK    9  A    between atoms: C_14  and  O_15
DOCKED: REMARK   10  A    between atoms: C_16  and  C_17
DOCKED: REMARK   11  A    between atoms: C_17  and  C_18
DOCKED: REMARK                            x       y       z     vdW  Elec       q    Type
DOCKED: REMARK                         _______ _______ _______ _____ _____    ______ ____
DOCKED: USER                              x       y       z     vdW  Elec       q    Type
DOCKED: USER                           _______ _______ _______ _____ _____    ______ ____
DOCKED: ROOT
DOCKED: ATOM      1  N   UNL     1      15.201 -10.468  -0.341 -0.26 +0.00    +0.000 N 
DOCKED: ATOM      2  H   UNL     1      16.109 -10.325   0.100 -0.01 +0.00    +0.000 HD
DOCKED: ENDROOT
DOCKED: BRANCH   1   3
DOCKED: ATOM      3  C   UNL     1      15.259  -9.907  -1.708 -0.27 -0.00    +0.000 C 
DOCKED: BRANCH   3   7
DOCKED: ATOM      4  C   UNL     1      19.034 -10.917  -3.568 -0.31 -0.00    +0.000 A 
DOCKED: ATOM      5  C   UNL     1      17.902 -10.647  -4.354 -0.16 -0.00    +0.000 A 
DOCKED: ATOM      6  C   UNL     1      16.678 -10.329  -3.758 -0.17 -0.00    +0.000 A 
DOCKED: ATOM      7  C   UNL     1      16.567 -10.268  -2.361 -0.21 -0.00    +0.000 A 
DOCKED: ATOM      8  C   UNL     1      17.698 -10.515  -1.571 -0.22 -0.00    +0.000 A 
DOCKED: ATOM      9  C   UNL     1      18.922 -10.835  -2.165 -0.36 -0.00    +0.000 A 
DOCKED: BRANCH   4  11
DOCKED: ATOM     10  C   UNL     1      20.860 -10.471  -5.203 -0.43 -0.00    +0.000 C 
DOCKED: ATOM     11  C   UNL     1      20.311 -11.240  -4.251 -0.51 -0.00    +0.000 C 
DOCKED: BRANCH  10  13
DOCKED: ATOM     12  O   UNL     1      22.900  -9.854  -6.204 -0.34 -0.00    +0.000 OA
DOCKED: ATOM     13  C   UNL     1      22.133 -10.798  -5.879 -0.45 -0.00    +0.000 C 
DOCKED: ATOM     14  N   UNL     1      22.532 -12.149  -6.150 -0.56 -0.00    +0.000 N 
DOCKED: ATOM     15  H   UNL     1      21.992 -12.898  -5.809 -0.54 -0.00    +0.000 HD
DOCKED: BRANCH  14  16
DOCKED: ATOM     16  O   UNL     1      23.652 -12.396  -6.871 -1.14 -0.00    +0.000 OA
DOCKED: ATOM     17  H   UNL     1      24.177 -11.584  -6.940 -0.04 +0.00    +0.000 HD
DOCKED: ENDBRANCH  14  16
DOCKED: ENDBRANCH  10  13
DOCKED: ENDBRANCH   4  11
DOCKED: ENDBRANCH   3   7
DOCKED: ENDBRANCH   1   3
DOCKED: BRANCH   1  18
DOCKED: ATOM     18  C   UNL     1      14.233  -9.731   0.506 -0.24 +0.00    +0.000 C 
DOCKED: BRANCH  18  19
DOCKED: ATOM     19  C   UNL     1      12.938 -10.526   0.739 -0.29 +0.00    +0.000 C 
DOCKED: BRANCH  19  20
DOCKED: ATOM     20  O   UNL     1      13.075 -11.415   1.815 -0.44 +0.00    +0.000 OA
DOCKED: ATOM     21  H   UNL     1      12.557 -12.215   1.642 -0.25 +0.00    +0.000 HD
DOCKED: ENDBRANCH  19  20
DOCKED: ENDBRANCH  18  19
DOCKED: ENDBRANCH   1  18
DOCKED: BRANCH   1  22
DOCKED: ATOM     22  C   UNL     1      15.013 -11.939  -0.351 -0.45 +0.00    +0.000 C 
DOCKED: BRANCH  22  23
DOCKED: ATOM     23  C   UNL     1      16.224 -12.733   0.177 -0.54 +0.00    +0.000 C 
DOCKED: BRANCH  23  24
DOCKED: ATOM     24  C   UNL     1      16.834 -12.030   1.351 -0.41 +0.00    +0.000 A 
DOCKED: ATOM     25  C   UNL     1      16.153 -11.395   2.386 -0.40 +0.00    +0.000 A 
DOCKED: ATOM     26  N   UNL     1      17.026 -10.801   3.230 -0.48 +0.00    +0.000 N 
DOCKED: ATOM     27  C   UNL     1      18.250 -11.042   2.730 -0.46 -0.00    +0.000 A 
DOCKED: ATOM     28  C   UNL     1      18.174 -11.784   1.580 -0.45 -0.00    +0.000 A 
DOCKED: ATOM     29  C   UNL     1      19.312 -12.140   0.856 -0.53 -0.00    +0.000 A 
DOCKED: ATOM     30  C   UNL     1      20.561 -11.720   1.351 -0.66 -0.00    +0.000 A 
DOCKED: ATOM     31  C   UNL     1      20.642 -10.960   2.538 -0.56 -0.00    +0.000 A 
DOCKED: ATOM     32  C   UNL     1      19.473 -10.611   3.242 -0.56 -0.00    +0.000 A 
DOCKED: ATOM     33  H   UNL     1      16.809 -10.294   4.046 -0.02 +0.00    +0.000 HD
DOCKED: ENDBRANCH  23  24
DOCKED: ENDBRANCH  22  23
DOCKED: ENDBRANCH   1  22
DOCKED: TORSDOF 11
DOCKED: TER
DOCKED: ENDMDL
________________________________________________________________________________


	BEGINNING GENETIC ALGORITHM DOCKING 89 of 100
Run: 89 Seed: 317023315 1001594931 [ Run 89 of 100 GA/GALS ]
Beginning LAMARCKIAN GENETIC ALGORITHM (LGA), with a maximum of 2500000 energy evaluations.

Final-Value: -15.261


	FINAL GENETIC ALGORITHM DOCKED STATE
	_______________________________________________


Detailed state:  trans 13.014 -7.535 4.220 quatxyzw 0.123006 0.010314 -0.649511 -0.750266 center 0.460 0.128 -0.007 ntor 11 -18.7315 164.1389 -3.6695 -176.2863 -150.2862 -127.4621 164.7195 -86.0506 50.2899 153.4561 29.3336
State:	 13.014  -7.535   4.220   0.186  0.016 -0.982 -82.773    -18.73  164.14   -3.67 -176.29 -150.29 -127.46  164.72  -86.05   50.29  153.46   29.33

DOCKED: MODEL       89
DOCKED: USER    Run = 89
DOCKED: USER    DPF = ligand_dock.biased.dpf
DOCKED: USER  
DOCKED: USER    Estimated Free Energy of Binding    =   -9.67 kcal/mol  [=(1)+(2)+(3)-(4)]
DOCKED: USER    Estimated Inhibition Constant, Ki   =   82.09 nM (nanomolar)  [Temperature = 298.15 K]
DOCKED: USER    
DOCKED: USER    (1) Final Intermolecular Energy     =  -12.95 kcal/mol
DOCKED: USER        vdW + Hbond + desolv Energy     =  -12.95 kcal/mol
DOCKED: USER        Electrostatic Energy            =   +0.00 kcal/mol
DOCKED: USER    (2) Final Total Internal Energy     =   -2.31 kcal/mol
DOCKED: USER    (3) Torsional Free Energy           =   +3.28 kcal/mol
DOCKED: USER    (4) Unbound System's Energy  [=(2)] =   -2.31 kcal/mol
DOCKED: USER    
DOCKED: USER    
DOCKED: USER    NEWDPF move ligand.pdbqt
DOCKED: USER    NEWDPF about 0.460000 0.128000 -0.007000
DOCKED: USER    NEWDPF tran0 13.013882 -7.535286 4.220390
DOCKED: USER    NEWDPF quaternion0 0.123006 0.010314 -0.649511 -0.750266
DOCKED: USER    NEWDPF axisangle0 0.186053 0.015601 -0.982416 -82.773201
DOCKED: USER    NEWDPF quat0 0.186053 0.015601 -0.982416 -82.773201
DOCKED: USER    NEWDPF dihe0 -18.73 164.14 -3.67 -176.29 -150.29 -127.46 164.72 -86.05 50.29 153.46 29.33 
DOCKED: USER  keepresnum = 1 
DOCKED: USER  
DOCKED: REMARK  Name = 
DOCKED: REMARK  11 active torsions:
DOCKED: REMARK  status: ('A' for Active; 'I' for Inactive)
DOCKED: REMARK    1  A    between atoms: C_2  and  C_5
DOCKED: REMARK    2  A    between atoms: N_3  and  O_4
DOCKED: REMARK    3  A    between atoms: C_6  and  C_7
DOCKED: REMARK    4  A    between atoms: C_10  and  C_11
DOCKED: REMARK    5  A    between atoms: C_11  and  N_12
DOCKED: REMARK    6  A    between atoms: N_12  and  C_13
DOCKED: REMARK    7  A    between atoms: N_12  and  C_16
DOCKED: REMARK    8  A    between atoms: C_13  and  C_14
DOCKED: REMARK    9  A    between atoms: C_14  and  O_15
DOCKED: REMARK   10  A    between atoms: C_16  and  C_17
DOCKED: REMARK   11  A    between atoms: C_17  and  C_18
DOCKED: REMARK                            x       y       z     vdW  Elec       q    Type
DOCKED: REMARK                         _______ _______ _______ _____ _____    ______ ____
DOCKED: USER                              x       y       z     vdW  Elec       q    Type
DOCKED: USER                           _______ _______ _______ _____ _____    ______ ____
DOCKED: ROOT
DOCKED: ATOM      1  N   UNL     1      11.653  -6.781   4.162 -0.14 +0.00    +0.000 N 
DOCKED: ATOM      2  H   UNL     1      11.962  -7.163   3.268 +0.01 +0.00    +0.000 HD
DOCKED: ENDROOT
DOCKED: BRANCH   1   3
DOCKED: ATOM      3  C   UNL     1      12.609  -7.214   5.205 -0.31 +0.00    +0.000 C 
DOCKED: BRANCH   3   7
DOCKED: ATOM      4  C   UNL     1      15.574  -9.887   3.532 -0.41 +0.00    +0.000 A 
DOCKED: ATOM      5  C   UNL     1      15.173  -8.737   2.831 -0.31 +0.00    +0.000 A 
DOCKED: ATOM      6  C   UNL     1      14.210  -7.876   3.363 -0.25 +0.00    +0.000 A 
DOCKED: ATOM      7  C   UNL     1      13.633  -8.145   4.613 -0.31 +0.00    +0.000 A 
DOCKED: ATOM      8  C   UNL     1      14.044  -9.279   5.328 -0.43 +0.00    +0.000 A 
DOCKED: ATOM      9  C   UNL     1      15.007 -10.142   4.797 -0.34 +0.00    +0.000 A 
DOCKED: BRANCH   4  11
DOCKED: ATOM     10  C   UNL     1      17.909 -10.442   2.863 -0.53 -0.00    +0.000 C 
DOCKED: ATOM     11  C   UNL     1      16.608 -10.762   2.927 -0.50 +0.00    +0.000 C 
DOCKED: BRANCH  10  13
DOCKED: ATOM     12  O   UNL     1      18.552 -12.299   1.566 -0.89 -0.00    +0.000 OA
DOCKED: ATOM     13  C   UNL     1      18.933 -11.319   2.259 -0.63 -0.00    +0.000 C 
DOCKED: ATOM     14  N   UNL     1      20.338 -11.075   2.413 -0.67 -0.00    +0.000 N 
DOCKED: ATOM     15  H   UNL     1      20.648 -10.258   2.864 -0.33 -0.00    +0.000 HD
DOCKED: BRANCH  14  16
DOCKED: ATOM     16  O   UNL     1      21.240 -11.968   1.938 -1.06 -0.00    +0.000 OA
DOCKED: ATOM     17  H   UNL     1      20.804 -12.824   1.800 -0.59 -0.00    +0.000 HD
DOCKED: ENDBRANCH  14  16
DOCKED: ENDBRANCH  10  13
DOCKED: ENDBRANCH   4  11
DOCKED: ENDBRANCH   3   7
DOCKED: ENDBRANCH   1   3
DOCKED: BRANCH   1  18
DOCKED: ATOM     18  C   UNL     1      10.306  -7.358   4.390 -0.15 +0.00    +0.000 C 
DOCKED: BRANCH  18  19
DOCKED: ATOM     19  C   UNL     1      10.118  -7.851   5.834 -0.30 +0.00    +0.000 C 
DOCKED: BRANCH  19  20
DOCKED: ATOM     20  O   UNL     1      10.543  -9.180   5.974 -0.41 +0.00    +0.000 OA
DOCKED: ATOM     21  H   UNL     1      11.407  -9.199   6.413 -0.04 +0.00    +0.000 HD
DOCKED: ENDBRANCH  19  20
DOCKED: ENDBRANCH  18  19
DOCKED: ENDBRANCH   1  18
DOCKED: BRANCH   1  22
DOCKED: ATOM     22  C   UNL     1      11.667  -5.311   3.970 -0.17 +0.00    +0.000 C 
DOCKED: BRANCH  22  23
DOCKED: ATOM     23  C   UNL     1      12.331  -4.530   5.121 -0.30 +0.00    +0.000 C 
DOCKED: BRANCH  23  24
DOCKED: ATOM     24  C   UNL     1      13.813  -4.458   4.912 -0.32 +0.00    +0.000 A 
DOCKED: ATOM     25  C   UNL     1      14.782  -5.220   5.560 -0.40 +0.00    +0.000 A 
DOCKED: ATOM     26  N   UNL     1      16.020  -4.830   5.179 -0.44 -0.00    +0.000 N 
DOCKED: ATOM     27  C   UNL     1      15.842  -3.821   4.309 -0.43 -0.00    +0.000 A 
DOCKED: ATOM     28  C   UNL     1      14.508  -3.560   4.125 -0.32 -0.00    +0.000 A 
DOCKED: ATOM     29  C   UNL     1      14.066  -2.535   3.288 -0.31 -0.00    +0.000 A 
DOCKED: ATOM     30  C   UNL     1      15.040  -1.771   2.618 -0.26 -0.00    +0.000 A 
DOCKED: ATOM     31  C   UNL     1      16.414  -2.042   2.803 -0.37 -0.00    +0.000 A 
DOCKED: ATOM     32  C   UNL     1      16.828  -3.079   3.661 -0.43 -0.00    +0.000 A 
DOCKED: ATOM     33  H   UNL     1      16.877  -5.209   5.478 -0.62 -0.00    +0.000 HD
DOCKED: ENDBRANCH  23  24
DOCKED: ENDBRANCH  22  23
DOCKED: ENDBRANCH   1  22
DOCKED: TORSDOF 11
DOCKED: TER
DOCKED: ENDMDL
________________________________________________________________________________


	BEGINNING GENETIC ALGORITHM DOCKING 90 of 100
Run: 90 Seed: 581494635 1127168116 [ Run 90 of 100 GA/GALS ]
Beginning LAMARCKIAN GENETIC ALGORITHM (LGA), with a maximum of 2500000 energy evaluations.

Final-Value: -15.785


	FINAL GENETIC ALGORITHM DOCKED STATE
	_______________________________________________


Detailed state:  trans 21.871 -9.680 -5.973 quatxyzw 0.365797 -0.799194 -0.100786 -0.466181 center 0.460 0.128 -0.007 ntor 11 -95.8220 163.7767 114.9792 69.0774 -139.5983 -157.6884 -119.5882 -79.5018 180.0000 -4.0362 32.3496
State:	 21.871  -9.680  -5.973   0.413 -0.903 -0.114 -124.427    -95.82  163.78  114.98   69.08 -139.60 -157.69 -119.59  -79.50  180.00   -4.04   32.35

DOCKED: MODEL       90
DOCKED: USER    Run = 90
DOCKED: USER    DPF = ligand_dock.biased.dpf
DOCKED: USER  
DOCKED: USER    Estimated Free Energy of Binding    =  -10.15 kcal/mol  [=(1)+(2)+(3)-(4)]
DOCKED: USER    Estimated Inhibition Constant, Ki   =   36.35 nM (nanomolar)  [Temperature = 298.15 K]
DOCKED: USER    
DOCKED: USER    (1) Final Intermolecular Energy     =  -13.43 kcal/mol
DOCKED: USER        vdW + Hbond + desolv Energy     =  -13.43 kcal/mol
DOCKED: USER        Electrostatic Energy            =   +0.00 kcal/mol
DOCKED: USER    (2) Final Total Internal Energy     =   -2.35 kcal/mol
DOCKED: USER    (3) Torsional Free Energy           =   +3.28 kcal/mol
DOCKED: USER    (4) Unbound System's Energy  [=(2)] =   -2.35 kcal/mol
DOCKED: USER    
DOCKED: USER    
DOCKED: USER    NEWDPF move ligand.pdbqt
DOCKED: USER    NEWDPF about 0.460000 0.128000 -0.007000
DOCKED: USER    NEWDPF tran0 21.870886 -9.679695 -5.972645
DOCKED: USER    NEWDPF quaternion0 0.365797 -0.799194 -0.100786 -0.466181
DOCKED: USER    NEWDPF axisangle0 0.413474 -0.903361 -0.113922 -124.426697
DOCKED: USER    NEWDPF quat0 0.413474 -0.903361 -0.113922 -124.426697
DOCKED: USER    NEWDPF dihe0 -95.82 163.78 114.98 69.08 -139.60 -157.69 -119.59 -79.50 180.00 -4.04 32.35 
DOCKED: USER  keepresnum = 1 
DOCKED: USER  
DOCKED: REMARK  Name = 
DOCKED: REMARK  11 active torsions:
DOCKED: REMARK  status: ('A' for Active; 'I' for Inactive)
DOCKED: REMARK    1  A    between atoms: C_2  and  C_5
DOCKED: REMARK    2  A    between atoms: N_3  and  O_4
DOCKED: REMARK    3  A    between atoms: C_6  and  C_7
DOCKED: REMARK    4  A    between atoms: C_10  and  C_11
DOCKED: REMARK    5  A    between atoms: C_11  and  N_12
DOCKED: REMARK    6  A    between atoms: N_12  and  C_13
DOCKED: REMARK    7  A    between atoms: N_12  and  C_16
DOCKED: REMARK    8  A    between atoms: C_13  and  C_14
DOCKED: REMARK    9  A    between atoms: C_14  and  O_15
DOCKED: REMARK   10  A    between atoms: C_16  and  C_17
DOCKED: REMARK   11  A    between atoms: C_17  and  C_18
DOCKED: REMARK                            x       y       z     vdW  Elec       q    Type
DOCKED: REMARK                         _______ _______ _______ _____ _____    ______ ____
DOCKED: USER                              x       y       z     vdW  Elec       q    Type
DOCKED: USER                           _______ _______ _______ _____ _____    ______ ____
DOCKED: ROOT
DOCKED: ATOM      1  N   UNL     1      22.768  -9.930  -7.221 -0.26 -0.00    +0.000 N 
DOCKED: ATOM      2  H   UNL     1      23.231 -10.099  -6.328 -0.02 -0.00    +0.000 HD
DOCKED: ENDROOT
DOCKED: BRANCH   1   3
DOCKED: ATOM      3  C   UNL     1      21.349  -9.612  -6.952 -0.24 -0.00    +0.000 C 
DOCKED: BRANCH   3   7
DOCKED: ATOM      4  C   UNL     1      20.594  -9.809  -2.695 -0.45 -0.00    +0.000 A 
DOCKED: ATOM      5  C   UNL     1      19.969 -10.711  -3.572 -0.41 -0.00    +0.000 A 
DOCKED: ATOM      6  C   UNL     1      20.203 -10.645  -4.948 -0.38 -0.00    +0.000 A 
DOCKED: ATOM      7  C   UNL     1      21.074  -9.679  -5.473 -0.29 -0.00    +0.000 A 
DOCKED: ATOM      8  C   UNL     1      21.717  -8.790  -4.601 -0.28 -0.00    +0.000 A 
DOCKED: ATOM      9  C   UNL     1      21.484  -8.853  -3.224 -0.37 -0.00    +0.000 A 
DOCKED: BRANCH   4  11
DOCKED: ATOM     10  C   UNL     1      20.279 -11.098  -0.585 -0.44 -0.00    +0.000 C 
DOCKED: ATOM     11  C   UNL     1      20.319  -9.929  -1.241 -0.55 -0.00    +0.000 C 
DOCKED: BRANCH  10  13
DOCKED: ATOM     12  O   UNL     1      19.373 -10.278   1.428 -0.65 -0.00    +0.000 OA
DOCKED: ATOM     13  C   UNL     1      20.006 -11.209   0.863 -0.69 -0.00    +0.000 C 
DOCKED: ATOM     14  N   UNL     1      20.410 -12.349   1.634 -0.69 -0.00    +0.000 N 
DOCKED: ATOM     15  H   UNL     1      20.811 -13.127   1.185 -0.57 -0.00    +0.000 HD
DOCKED: BRANCH  14  16
DOCKED: ATOM     16  O   UNL     1      20.238 -12.357   2.977 -1.16 -0.00    +0.000 OA
DOCKED: ATOM     17  H   UNL     1      21.061 -12.079   3.409 -0.61 -0.00    +0.000 HD
DOCKED: ENDBRANCH  14  16
DOCKED: ENDBRANCH  10  13
DOCKED: ENDBRANCH   4  11
DOCKED: ENDBRANCH   3   7
DOCKED: ENDBRANCH   1   3
DOCKED: BRANCH   1  18
DOCKED: ATOM     18  C   UNL     1      22.905 -11.197  -7.979 -0.38 -0.00    +0.000 C 
DOCKED: BRANCH  18  19
DOCKED: ATOM     19  C   UNL     1      23.173 -12.400  -7.060 -0.44 -0.00    +0.000 C 
DOCKED: BRANCH  19  20
DOCKED: ATOM     20  O   UNL     1      22.577 -12.222  -5.804 -0.73 -0.00    +0.000 OA
DOCKED: ATOM     21  H   UNL     1      21.769 -12.755  -5.750 -0.62 -0.00    +0.000 HD
DOCKED: ENDBRANCH  19  20
DOCKED: ENDBRANCH  18  19
DOCKED: ENDBRANCH   1  18
DOCKED: BRANCH   1  22
DOCKED: ATOM     22  C   UNL     1      23.494  -8.780  -7.811 -0.19 -0.00    +0.000 C 
DOCKED: BRANCH  22  23
DOCKED: ATOM     23  C   UNL     1      24.581  -8.183  -6.896 -0.13 -0.00    +0.000 C 
DOCKED: BRANCH  23  24
DOCKED: ATOM     24  C   UNL     1      25.905  -8.827  -7.173 -0.27 -0.00    +0.000 A 
DOCKED: ATOM     25  C   UNL     1      26.117 -10.107  -7.680 -0.34 -0.00    +0.000 A 
DOCKED: ATOM     26  N   UNL     1      27.440 -10.382  -7.726 -0.45 -0.00    +0.000 N 
DOCKED: ATOM     27  C   UNL     1      28.064  -9.295  -7.240 -0.42 -0.00    +0.000 A 
DOCKED: ATOM     28  C   UNL     1      27.160  -8.327  -6.886 -0.33 -0.00    +0.000 A 
DOCKED: ATOM     29  C   UNL     1      27.561  -7.113  -6.328 -0.26 -0.00    +0.000 A 
DOCKED: ATOM     30  C   UNL     1      28.941  -6.901  -6.145 -0.22 -0.00    +0.000 A 
DOCKED: ATOM     31  C   UNL     1      29.873  -7.895  -6.514 -0.23 -0.00    +0.000 A 
DOCKED: ATOM     32  C   UNL     1      29.435  -9.113  -7.068 -0.29 -0.00    +0.000 A 
DOCKED: ATOM     33  H   UNL     1      27.861 -11.211  -8.050 -0.05 -0.00    +0.000 HD
DOCKED: ENDBRANCH  23  24
DOCKED: ENDBRANCH  22  23
DOCKED: ENDBRANCH   1  22
DOCKED: TORSDOF 11
DOCKED: TER
DOCKED: ENDMDL
________________________________________________________________________________


	BEGINNING GENETIC ALGORITHM DOCKING 91 of 100
Run: 91 Seed: 509275131 1620107541 [ Run 91 of 100 GA/GALS ]
Beginning LAMARCKIAN GENETIC ALGORITHM (LGA), with a maximum of 2500000 energy evaluations.

Final-Value: -15.408


	FINAL GENETIC ALGORITHM DOCKED STATE
	_______________________________________________


Detailed state:  trans 17.954 -10.508 1.086 quatxyzw -0.157643 -0.331958 0.422355 0.828595 center 0.460 0.128 -0.007 ntor 11 -136.2528 20.1499 171.8592 57.5795 115.4266 165.8480 130.8031 -24.8386 -59.7574 107.0265 25.3558
State:	 17.954 -10.508   1.086  -0.282 -0.593  0.754 68.091   -136.25   20.15  171.86   57.58  115.43  165.85  130.80  -24.84  -59.76  107.03   25.36

DOCKED: MODEL       91
DOCKED: USER    Run = 91
DOCKED: USER    DPF = ligand_dock.biased.dpf
DOCKED: USER  
DOCKED: USER    Estimated Free Energy of Binding    =  -10.65 kcal/mol  [=(1)+(2)+(3)-(4)]
DOCKED: USER    Estimated Inhibition Constant, Ki   =   15.52 nM (nanomolar)  [Temperature = 298.15 K]
DOCKED: USER    
DOCKED: USER    (1) Final Intermolecular Energy     =  -13.93 kcal/mol
DOCKED: USER        vdW + Hbond + desolv Energy     =  -13.93 kcal/mol
DOCKED: USER        Electrostatic Energy            =   +0.00 kcal/mol
DOCKED: USER    (2) Final Total Internal Energy     =   -1.47 kcal/mol
DOCKED: USER    (3) Torsional Free Energy           =   +3.28 kcal/mol
DOCKED: USER    (4) Unbound System's Energy  [=(2)] =   -1.47 kcal/mol
DOCKED: USER    
DOCKED: USER    
DOCKED: USER    NEWDPF move ligand.pdbqt
DOCKED: USER    NEWDPF about 0.460000 0.128000 -0.007000
DOCKED: USER    NEWDPF tran0 17.954109 -10.507653 1.086188
DOCKED: USER    NEWDPF quaternion0 -0.157643 -0.331958 0.422355 0.828595
DOCKED: USER    NEWDPF axisangle0 -0.281581 -0.592941 0.754409 68.090718
DOCKED: USER    NEWDPF quat0 -0.281581 -0.592941 0.754409 68.090718
DOCKED: USER    NEWDPF dihe0 -136.25 20.15 171.86 57.58 115.43 165.85 130.80 -24.84 -59.76 107.03 25.36 
DOCKED: USER  keepresnum = 1 
DOCKED: USER  
DOCKED: REMARK  Name = 
DOCKED: REMARK  11 active torsions:
DOCKED: REMARK  status: ('A' for Active; 'I' for Inactive)
DOCKED: REMARK    1  A    between atoms: C_2  and  C_5
DOCKED: REMARK    2  A    between atoms: N_3  and  O_4
DOCKED: REMARK    3  A    between atoms: C_6  and  C_7
DOCKED: REMARK    4  A    between atoms: C_10  and  C_11
DOCKED: REMARK    5  A    between atoms: C_11  and  N_12
DOCKED: REMARK    6  A    between atoms: N_12  and  C_13
DOCKED: REMARK    7  A    between atoms: N_12  and  C_16
DOCKED: REMARK    8  A    between atoms: C_13  and  C_14
DOCKED: REMARK    9  A    between atoms: C_14  and  O_15
DOCKED: REMARK   10  A    between atoms: C_16  and  C_17
DOCKED: REMARK   11  A    between atoms: C_17  and  C_18
DOCKED: REMARK                            x       y       z     vdW  Elec       q    Type
DOCKED: REMARK                         _______ _______ _______ _____ _____    ______ ____
DOCKED: USER                              x       y       z     vdW  Elec       q    Type
DOCKED: USER                           _______ _______ _______ _____ _____    ______ ____
DOCKED: ROOT
DOCKED: ATOM      1  N   UNL     1      16.553 -10.685   1.742 -0.36 +0.00    +0.000 N 
DOCKED: ATOM      2  H   UNL     1      16.530 -10.515   0.737 -0.00 +0.00    +0.000 HD
DOCKED: ENDROOT
DOCKED: BRANCH   1   3
DOCKED: ATOM      3  C   UNL     1      17.968 -10.806   2.157 -0.53 -0.00    +0.000 C 
DOCKED: BRANCH   3   7
DOCKED: ATOM      4  C   UNL     1      20.551 -10.887  -1.315 -0.40 -0.00    +0.000 A 
DOCKED: ATOM      5  C   UNL     1      19.155 -10.866  -1.465 -0.40 -0.00    +0.000 A 
DOCKED: ATOM      6  C   UNL     1      18.317 -10.849  -0.347 -0.37 -0.00    +0.000 A 
DOCKED: ATOM      7  C   UNL     1      18.861 -10.844   0.945 -0.48 -0.00    +0.000 A 
DOCKED: ATOM      8  C   UNL     1      20.254 -10.843   1.103 -0.62 -0.00    +0.000 A 
DOCKED: ATOM      9  C   UNL     1      21.094 -10.861  -0.014 -0.59 -0.00    +0.000 A 
DOCKED: BRANCH   4  11
DOCKED: ATOM     10  C   UNL     1      20.911 -10.750  -3.776 -0.51 -0.00    +0.000 C 
DOCKED: ATOM     11  C   UNL     1      21.396 -10.894  -2.535 -0.36 -0.00    +0.000 C 
DOCKED: BRANCH  10  13
DOCKED: ATOM     12  O   UNL     1      22.358  -9.697  -5.306 -0.36 -0.00    +0.000 OA
DOCKED: ATOM     13  C   UNL     1      21.759 -10.757  -4.987 -0.50 -0.00    +0.000 C 
DOCKED: ATOM     14  N   UNL     1      21.941 -11.933  -5.788 -0.51 -0.00    +0.000 N 
DOCKED: ATOM     15  H   UNL     1      21.562 -12.792  -5.492 -0.52 -0.00    +0.000 HD
DOCKED: BRANCH  14  16
DOCKED: ATOM     16  O   UNL     1      22.634 -11.864  -6.950 -0.53 -0.00    +0.000 OA
DOCKED: ATOM     17  H   UNL     1      22.165 -12.365  -7.635 -0.60 -0.00    +0.000 HD
DOCKED: ENDBRANCH  14  16
DOCKED: ENDBRANCH  10  13
DOCKED: ENDBRANCH   4  11
DOCKED: ENDBRANCH   3   7
DOCKED: ENDBRANCH   1   3
DOCKED: BRANCH   1  18
DOCKED: ATOM     18  C   UNL     1      15.819 -11.957   1.943 -0.45 +0.00    +0.000 C 
DOCKED: BRANCH  18  19
DOCKED: ATOM     19  C   UNL     1      15.510 -12.668   0.615 -0.45 +0.00    +0.000 C 
DOCKED: BRANCH  19  20
DOCKED: ATOM     20  O   UNL     1      16.569 -13.500   0.227 -1.23 +0.00    +0.000 OA
DOCKED: ATOM     21  H   UNL     1      17.412 -13.057   0.406 -0.06 +0.00    +0.000 HD
DOCKED: ENDBRANCH  19  20
DOCKED: ENDBRANCH  18  19
DOCKED: ENDBRANCH   1  18
DOCKED: BRANCH   1  22
DOCKED: ATOM     22  C   UNL     1      15.898  -9.497   2.341 -0.38 +0.00    +0.000 C 
DOCKED: BRANCH  22  23
DOCKED: ATOM     23  C   UNL     1      14.589  -9.810   3.092 -0.38 +0.00    +0.000 C 
DOCKED: BRANCH  23  24
DOCKED: ATOM     24  C   UNL     1      14.425  -8.884   4.258 -0.35 +0.00    +0.000 A 
DOCKED: ATOM     25  C   UNL     1      14.012  -9.229   5.543 -0.44 +0.00    +0.000 A 
DOCKED: ATOM     26  N   UNL     1      13.902  -8.124   6.315 -0.50 +0.00    +0.000 N 
DOCKED: ATOM     27  C   UNL     1      14.228  -7.085   5.527 -0.42 +0.00    +0.000 A 
DOCKED: ATOM     28  C   UNL     1      14.547  -7.509   4.263 -0.33 +0.00    +0.000 A 
DOCKED: ATOM     29  C   UNL     1      14.893  -6.612   3.251 -0.24 +0.00    +0.000 A 
DOCKED: ATOM     30  C   UNL     1      14.917  -5.241   3.571 -0.29 +0.00    +0.000 A 
DOCKED: ATOM     31  C   UNL     1      14.594  -4.805   4.874 -0.38 +0.00    +0.000 A 
DOCKED: ATOM     32  C   UNL     1      14.242  -5.734   5.871 -0.38 +0.00    +0.000 A 
DOCKED: ATOM     33  H   UNL     1      13.638  -8.089   7.262 -0.04 +0.00    +0.000 HD
DOCKED: ENDBRANCH  23  24
DOCKED: ENDBRANCH  22  23
DOCKED: ENDBRANCH   1  22
DOCKED: TORSDOF 11
DOCKED: TER
DOCKED: ENDMDL
________________________________________________________________________________


	BEGINNING GENETIC ALGORITHM DOCKING 92 of 100
Run: 92 Seed: 1295685623 1185291451 [ Run 92 of 100 GA/GALS ]
Beginning LAMARCKIAN GENETIC ALGORITHM (LGA), with a maximum of 2500000 energy evaluations.

Final-Value: -15.660


	FINAL GENETIC ALGORITHM DOCKED STATE
	_______________________________________________


Detailed state:  trans 21.278 -8.645 -5.368 quatxyzw 0.472915 0.241155 0.729146 0.431905 center 0.460 0.128 -0.007 ntor 11 36.2746 164.7117 115.3676 50.4358 35.4715 118.4009 175.0728 -169.1382 -179.2110 -167.7619 -13.3063
State:	 21.278  -8.645  -5.368   0.524  0.267  0.808 128.823     36.27  164.71  115.37   50.44   35.47  118.40  175.07 -169.14 -179.21 -167.76  -13.31

DOCKED: MODEL       92
DOCKED: USER    Run = 92
DOCKED: USER    DPF = ligand_dock.biased.dpf
DOCKED: USER  
DOCKED: USER    Estimated Free Energy of Binding    =   -8.61 kcal/mol  [=(1)+(2)+(3)-(4)]
DOCKED: USER    Estimated Inhibition Constant, Ki   =  491.91 nM (nanomolar)  [Temperature = 298.15 K]
DOCKED: USER    
DOCKED: USER    (1) Final Intermolecular Energy     =  -11.89 kcal/mol
DOCKED: USER        vdW + Hbond + desolv Energy     =  -11.89 kcal/mol
DOCKED: USER        Electrostatic Energy            =   +0.00 kcal/mol
DOCKED: USER    (2) Final Total Internal Energy     =   -3.77 kcal/mol
DOCKED: USER    (3) Torsional Free Energy           =   +3.28 kcal/mol
DOCKED: USER    (4) Unbound System's Energy  [=(2)] =   -3.77 kcal/mol
DOCKED: USER    
DOCKED: USER    
DOCKED: USER    NEWDPF move ligand.pdbqt
DOCKED: USER    NEWDPF about 0.460000 0.128000 -0.007000
DOCKED: USER    NEWDPF tran0 21.278005 -8.644943 -5.368041
DOCKED: USER    NEWDPF quaternion0 0.472915 0.241155 0.729146 0.431905
DOCKED: USER    NEWDPF axisangle0 0.524343 0.267379 0.808438 128.822998
DOCKED: USER    NEWDPF quat0 0.524343 0.267379 0.808438 128.822998
DOCKED: USER    NEWDPF dihe0 36.27 164.71 115.37 50.44 35.47 118.40 175.07 -169.14 -179.21 -167.76 -13.31 
DOCKED: USER  keepresnum = 1 
DOCKED: USER  
DOCKED: REMARK  Name = 
DOCKED: REMARK  11 active torsions:
DOCKED: REMARK  status: ('A' for Active; 'I' for Inactive)
DOCKED: REMARK    1  A    between atoms: C_2  and  C_5
DOCKED: REMARK    2  A    between atoms: N_3  and  O_4
DOCKED: REMARK    3  A    between atoms: C_6  and  C_7
DOCKED: REMARK    4  A    between atoms: C_10  and  C_11
DOCKED: REMARK    5  A    between atoms: C_11  and  N_12
DOCKED: REMARK    6  A    between atoms: N_12  and  C_13
DOCKED: REMARK    7  A    between atoms: N_12  and  C_16
DOCKED: REMARK    8  A    between atoms: C_13  and  C_14
DOCKED: REMARK    9  A    between atoms: C_14  and  O_15
DOCKED: REMARK   10  A    between atoms: C_16  and  C_17
DOCKED: REMARK   11  A    between atoms: C_17  and  C_18
DOCKED: REMARK                            x       y       z     vdW  Elec       q    Type
DOCKED: REMARK                         _______ _______ _______ _____ _____    ______ ____
DOCKED: USER                              x       y       z     vdW  Elec       q    Type
DOCKED: USER                           _______ _______ _______ _____ _____    ______ ____
DOCKED: ROOT
DOCKED: ATOM      1  N   UNL     1      20.373  -7.640  -6.141 -0.10 -0.00    +0.000 N 
DOCKED: ATOM      2  H   UNL     1      19.954  -8.559  -5.994 +0.01 -0.00    +0.000 HD
DOCKED: ENDROOT
DOCKED: BRANCH   1   3
DOCKED: ATOM      3  C   UNL     1      21.673  -7.608  -5.435 -0.22 -0.00    +0.000 C 
DOCKED: BRANCH   3   7
DOCKED: ATOM      4  C   UNL     1      21.256  -9.152  -1.414 -0.52 -0.00    +0.000 A 
DOCKED: ATOM      5  C   UNL     1      21.387 -10.029  -2.504 -0.49 -0.00    +0.000 A 
DOCKED: ATOM      6  C   UNL     1      21.513  -9.534  -3.805 -0.37 -0.00    +0.000 A 
DOCKED: ATOM      7  C   UNL     1      21.518  -8.152  -4.040 -0.29 -0.00    +0.000 A 
DOCKED: ATOM      8  C   UNL     1      21.409  -7.272  -2.954 -0.37 -0.00    +0.000 A 
DOCKED: ATOM      9  C   UNL     1      21.282  -7.764  -1.652 -0.39 -0.00    +0.000 A 
DOCKED: BRANCH   4  11
DOCKED: ATOM     10  C   UNL     1      20.405 -10.816   0.234 -0.67 -0.00    +0.000 C 
DOCKED: ATOM     11  C   UNL     1      21.136  -9.729  -0.051 -0.68 -0.00    +0.000 C 
DOCKED: BRANCH  10  13
DOCKED: ATOM     12  O   UNL     1      19.893 -12.574   1.715 -1.66 -0.00    +0.000 OA
DOCKED: ATOM     13  C   UNL     1      20.290 -11.385   1.594 -0.76 -0.00    +0.000 C 
DOCKED: ATOM     14  N   UNL     1      20.641 -10.640   2.768 -0.63 -0.00    +0.000 N 
DOCKED: ATOM     15  H   UNL     1      21.048  -9.749   2.681 -0.59 -0.00    +0.000 HD
DOCKED: BRANCH  14  16
DOCKED: ATOM     16  O   UNL     1      20.412 -11.162   3.998 -0.78 -0.00    +0.000 OA
DOCKED: ATOM     17  H   UNL     1      20.568 -12.119   3.976 -0.48 -0.00    +0.000 HD
DOCKED: ENDBRANCH  14  16
DOCKED: ENDBRANCH  10  13
DOCKED: ENDBRANCH   4  11
DOCKED: ENDBRANCH   3   7
DOCKED: ENDBRANCH   1   3
DOCKED: BRANCH   1  18
DOCKED: ATOM     18  C   UNL     1      19.414  -6.674  -5.555 -0.12 -0.00    +0.000 C 
DOCKED: BRANCH  18  19
DOCKED: ATOM     19  C   UNL     1      18.209  -7.370  -4.903 -0.14 -0.00    +0.000 C 
DOCKED: BRANCH  19  20
DOCKED: ATOM     20  O   UNL     1      18.566  -8.625  -4.388 -0.22 -0.00    +0.000 OA
DOCKED: ATOM     21  H   UNL     1      18.645  -8.569  -3.424 -0.01 -0.00    +0.000 HD
DOCKED: ENDBRANCH  19  20
DOCKED: ENDBRANCH  18  19
DOCKED: ENDBRANCH   1  18
DOCKED: BRANCH   1  22
DOCKED: ATOM     22  C   UNL     1      20.535  -7.530  -7.611 -0.06 -0.00    +0.000 C 
DOCKED: BRANCH  22  23
DOCKED: ATOM     23  C   UNL     1      20.119  -8.795  -8.388 -0.10 -0.00    +0.000 C 
DOCKED: BRANCH  23  24
DOCKED: ATOM     24  C   UNL     1      19.584  -9.831  -7.446 -0.19 -0.00    +0.000 A 
DOCKED: ATOM     25  C   UNL     1      20.309 -10.848  -6.831 -0.24 -0.00    +0.000 A 
DOCKED: ATOM     26  N   UNL     1      19.487 -11.643  -6.110 -0.34 -0.00    +0.000 N 
DOCKED: ATOM     27  C   UNL     1      18.249 -11.147  -6.277 -0.34 -0.00    +0.000 A 
DOCKED: ATOM     28  C   UNL     1      18.267 -10.045  -7.092 -0.21 -0.00    +0.000 A 
DOCKED: ATOM     29  C   UNL     1      17.098  -9.366  -7.440 -0.10 -0.00    +0.000 A 
DOCKED: ATOM     30  C   UNL     1      15.882  -9.845  -6.916 -0.12 -0.00    +0.000 A 
DOCKED: ATOM     31  C   UNL     1      15.863 -10.978  -6.073 -0.24 -0.00    +0.000 A 
DOCKED: ATOM     32  C   UNL     1      17.059 -11.645  -5.747 -0.08 -0.00    +0.000 A 
DOCKED: ATOM     33  H   UNL     1      19.743 -12.427  -5.572 -0.39 -0.00    +0.000 HD
DOCKED: ENDBRANCH  23  24
DOCKED: ENDBRANCH  22  23
DOCKED: ENDBRANCH   1  22
DOCKED: TORSDOF 11
DOCKED: TER
DOCKED: ENDMDL
________________________________________________________________________________


	BEGINNING GENETIC ALGORITHM DOCKING 93 of 100
Run: 93 Seed: 2092932567 2120438035 [ Run 93 of 100 GA/GALS ]
Beginning LAMARCKIAN GENETIC ALGORITHM (LGA), with a maximum of 2500000 energy evaluations.

Final-Value: -16.299


	FINAL GENETIC ALGORITHM DOCKED STATE
	_______________________________________________


Detailed state:  trans 19.825 -8.850 -5.130 quatxyzw 0.111757 -0.694572 -0.616538 -0.353498 center 0.460 0.128 -0.007 ntor 11 36.3659 -93.1474 76.8870 33.0741 -152.0986 -154.6780 177.5134 -94.0893 153.6941 -150.3557 46.4436
State:	 19.825  -8.850  -5.130   0.119 -0.743 -0.659 -138.597     36.37  -93.15   76.89   33.07 -152.10 -154.68  177.51  -94.09  153.69 -150.36   46.44

DOCKED: MODEL       93
DOCKED: USER    Run = 93
DOCKED: USER    DPF = ligand_dock.biased.dpf
DOCKED: USER  
DOCKED: USER    Estimated Free Energy of Binding    =   -9.91 kcal/mol  [=(1)+(2)+(3)-(4)]
DOCKED: USER    Estimated Inhibition Constant, Ki   =   54.69 nM (nanomolar)  [Temperature = 298.15 K]
DOCKED: USER    
DOCKED: USER    (1) Final Intermolecular Energy     =  -13.19 kcal/mol
DOCKED: USER        vdW + Hbond + desolv Energy     =  -13.19 kcal/mol
DOCKED: USER        Electrostatic Energy            =   +0.00 kcal/mol
DOCKED: USER    (2) Final Total Internal Energy     =   -3.11 kcal/mol
DOCKED: USER    (3) Torsional Free Energy           =   +3.28 kcal/mol
DOCKED: USER    (4) Unbound System's Energy  [=(2)] =   -3.11 kcal/mol
DOCKED: USER    
DOCKED: USER    
DOCKED: USER    NEWDPF move ligand.pdbqt
DOCKED: USER    NEWDPF about 0.460000 0.128000 -0.007000
DOCKED: USER    NEWDPF tran0 19.825143 -8.850329 -5.130111
DOCKED: USER    NEWDPF quaternion0 0.111757 -0.694572 -0.616538 -0.353498
DOCKED: USER    NEWDPF axisangle0 0.119470 -0.742512 -0.659092 -138.597222
DOCKED: USER    NEWDPF quat0 0.119470 -0.742512 -0.659092 -138.597222
DOCKED: USER    NEWDPF dihe0 36.37 -93.15 76.89 33.07 -152.10 -154.68 177.51 -94.09 153.69 -150.36 46.44 
DOCKED: USER  keepresnum = 1 
DOCKED: USER  
DOCKED: REMARK  Name = 
DOCKED: REMARK  11 active torsions:
DOCKED: REMARK  status: ('A' for Active; 'I' for Inactive)
DOCKED: REMARK    1  A    between atoms: C_2  and  C_5
DOCKED: REMARK    2  A    between atoms: N_3  and  O_4
DOCKED: REMARK    3  A    between atoms: C_6  and  C_7
DOCKED: REMARK    4  A    between atoms: C_10  and  C_11
DOCKED: REMARK    5  A    between atoms: C_11  and  N_12
DOCKED: REMARK    6  A    between atoms: N_12  and  C_13
DOCKED: REMARK    7  A    between atoms: N_12  and  C_16
DOCKED: REMARK    8  A    between atoms: C_13  and  C_14
DOCKED: REMARK    9  A    between atoms: C_14  and  O_15
DOCKED: REMARK   10  A    between atoms: C_16  and  C_17
DOCKED: REMARK   11  A    between atoms: C_17  and  C_18
DOCKED: REMARK                            x       y       z     vdW  Elec       q    Type
DOCKED: REMARK                         _______ _______ _______ _____ _____    ______ ____
DOCKED: USER                              x       y       z     vdW  Elec       q    Type
DOCKED: USER                           _______ _______ _______ _____ _____    ______ ____
DOCKED: ROOT
DOCKED: ATOM      1  N   UNL     1      20.159  -8.572  -6.625 -0.11 -0.00    +0.000 N 
DOCKED: ATOM      2  H   UNL     1      20.296  -9.541  -6.336 +0.01 -0.00    +0.000 HD
DOCKED: ENDROOT
DOCKED: BRANCH   1   3
DOCKED: ATOM      3  C   UNL     1      19.573  -7.829  -5.489 -0.15 -0.00    +0.000 C 
DOCKED: BRANCH   3   7
DOCKED: ATOM      4  C   UNL     1      19.813 -10.176  -1.861 -0.41 -0.00    +0.000 A 
DOCKED: ATOM      5  C   UNL     1      20.764  -9.177  -2.128 -0.45 -0.00    +0.000 A 
DOCKED: ATOM      6  C   UNL     1      20.695  -8.423  -3.302 -0.35 -0.00    +0.000 A 
DOCKED: ATOM      7  C   UNL     1      19.668  -8.649  -4.230 -0.22 -0.00    +0.000 A 
DOCKED: ATOM      8  C   UNL     1      18.704  -9.630  -3.960 -0.25 -0.00    +0.000 A 
DOCKED: ATOM      9  C   UNL     1      18.771 -10.386  -2.786 -0.31 -0.00    +0.000 A 
DOCKED: BRANCH   4  11
DOCKED: ATOM     10  C   UNL     1      20.141 -10.373   0.601 -0.63 -0.00    +0.000 C 
DOCKED: ATOM     11  C   UNL     1      19.926 -10.941  -0.594 -0.55 -0.00    +0.000 C 
DOCKED: BRANCH  10  13
DOCKED: ATOM     12  O   UNL     1      20.350 -12.395   1.790 -1.65 -0.00    +0.000 OA
DOCKED: ATOM     13  C   UNL     1      20.251 -11.142   1.859 -0.75 -0.00    +0.000 C 
DOCKED: ATOM     14  N   UNL     1      20.277 -10.507   3.145 -0.68 -0.00    +0.000 N 
DOCKED: ATOM     15  H   UNL     1      20.304  -9.526   3.208 -0.58 -0.00    +0.000 HD
DOCKED: BRANCH  14  16
DOCKED: ATOM     16  O   UNL     1      20.264 -11.257   4.274 -0.79 -0.00    +0.000 OA
DOCKED: ATOM     17  H   UNL     1      20.784 -12.063   4.131 -0.52 -0.00    +0.000 HD
DOCKED: ENDBRANCH  14  16
DOCKED: ENDBRANCH  10  13
DOCKED: ENDBRANCH   4  11
DOCKED: ENDBRANCH   3   7
DOCKED: ENDBRANCH   1   3
DOCKED: BRANCH   1  18
DOCKED: ATOM     18  C   UNL     1      19.223  -8.634  -7.773 -0.09 -0.00    +0.000 C 
DOCKED: BRANCH  18  19
DOCKED: ATOM     19  C   UNL     1      19.089 -10.056  -8.340 -0.22 -0.00    +0.000 C 
DOCKED: BRANCH  19  20
DOCKED: ATOM     20  O   UNL     1      20.014 -10.928  -7.747 -0.33 -0.00    +0.000 OA
DOCKED: ATOM     21  H   UNL     1      20.208 -11.657  -8.355 -0.25 -0.00    +0.000 HD
DOCKED: ENDBRANCH  19  20
DOCKED: ENDBRANCH  18  19
DOCKED: ENDBRANCH   1  18
DOCKED: BRANCH   1  22
DOCKED: ATOM     22  C   UNL     1      21.518  -8.086  -6.967 -0.13 -0.00    +0.000 C 
DOCKED: BRANCH  22  23
DOCKED: ATOM     23  C   UNL     1      22.649  -8.754  -6.160 -0.22 -0.00    +0.000 C 
DOCKED: BRANCH  23  24
DOCKED: ATOM     24  C   UNL     1      22.933 -10.123  -6.698 -0.25 -0.00    +0.000 A 
DOCKED: ATOM     25  C   UNL     1      22.331 -11.314  -6.300 -0.42 -0.00    +0.000 A 
DOCKED: ATOM     26  N   UNL     1      22.890 -12.363  -6.945 -0.50 -0.00    +0.000 N 
DOCKED: ATOM     27  C   UNL     1      23.847 -11.847  -7.734 -0.45 -0.00    +0.000 A 
DOCKED: ATOM     28  C   UNL     1      23.908 -10.484  -7.606 -0.31 -0.00    +0.000 A 
DOCKED: ATOM     29  C   UNL     1      24.844  -9.719  -8.304 -0.23 -0.00    +0.000 A 
DOCKED: ATOM     30  C   UNL     1      25.730 -10.394  -9.165 -0.24 -0.00    +0.000 A 
DOCKED: ATOM     31  C   UNL     1      25.665 -11.798  -9.301 -0.32 -0.00    +0.000 A 
DOCKED: ATOM     32  C   UNL     1      24.714 -12.542  -8.577 -0.32 -0.00    +0.000 A 
DOCKED: ATOM     33  H   UNL     1      22.644 -13.312  -6.854 -0.49 -0.00    +0.000 HD
DOCKED: ENDBRANCH  23  24
DOCKED: ENDBRANCH  22  23
DOCKED: ENDBRANCH   1  22
DOCKED: TORSDOF 11
DOCKED: TER
DOCKED: ENDMDL
________________________________________________________________________________


	BEGINNING GENETIC ALGORITHM DOCKING 94 of 100
Run: 94 Seed: 2007238627 1074959999 [ Run 94 of 100 GA/GALS ]
Beginning LAMARCKIAN GENETIC ALGORITHM (LGA), with a maximum of 2500000 energy evaluations.

Final-Value: -16.038


	FINAL GENETIC ALGORITHM DOCKED STATE
	_______________________________________________


Detailed state:  trans 21.386 -7.727 -6.204 quatxyzw -0.324275 -0.400607 0.046197 0.855702 center 0.460 0.128 -0.007 ntor 11 14.3203 131.8754 -161.9709 132.4952 49.7463 90.9047 -171.5100 -39.2353 -56.7696 -164.4065 -176.0805
State:	 21.386  -7.727  -6.204  -0.627 -0.774  0.089 62.325     14.32  131.88 -161.97  132.50   49.75   90.90 -171.51  -39.24  -56.77 -164.41 -176.08

DOCKED: MODEL       94
DOCKED: USER    Run = 94
DOCKED: USER    DPF = ligand_dock.biased.dpf
DOCKED: USER  
DOCKED: USER    Estimated Free Energy of Binding    =   -9.74 kcal/mol  [=(1)+(2)+(3)-(4)]
DOCKED: USER    Estimated Inhibition Constant, Ki   =   72.47 nM (nanomolar)  [Temperature = 298.15 K]
DOCKED: USER    
DOCKED: USER    (1) Final Intermolecular Energy     =  -13.02 kcal/mol
DOCKED: USER        vdW + Hbond + desolv Energy     =  -13.02 kcal/mol
DOCKED: USER        Electrostatic Energy            =   +0.00 kcal/mol
DOCKED: USER    (2) Final Total Internal Energy     =   -3.02 kcal/mol
DOCKED: USER    (3) Torsional Free Energy           =   +3.28 kcal/mol
DOCKED: USER    (4) Unbound System's Energy  [=(2)] =   -3.02 kcal/mol
DOCKED: USER    
DOCKED: USER    
DOCKED: USER    NEWDPF move ligand.pdbqt
DOCKED: USER    NEWDPF about 0.460000 0.128000 -0.007000
DOCKED: USER    NEWDPF tran0 21.385916 -7.726608 -6.203584
DOCKED: USER    NEWDPF quaternion0 -0.324275 -0.400607 0.046197 0.855702
DOCKED: USER    NEWDPF axisangle0 -0.626656 -0.774166 0.089274 62.325233
DOCKED: USER    NEWDPF quat0 -0.626656 -0.774166 0.089274 62.325233
DOCKED: USER    NEWDPF dihe0 14.32 131.88 -161.97 132.50 49.75 90.90 -171.51 -39.24 -56.77 -164.41 -176.08 
DOCKED: USER  keepresnum = 1 
DOCKED: USER  
DOCKED: REMARK  Name = 
DOCKED: REMARK  11 active torsions:
DOCKED: REMARK  status: ('A' for Active; 'I' for Inactive)
DOCKED: REMARK    1  A    between atoms: C_2  and  C_5
DOCKED: REMARK    2  A    between atoms: N_3  and  O_4
DOCKED: REMARK    3  A    between atoms: C_6  and  C_7
DOCKED: REMARK    4  A    between atoms: C_10  and  C_11
DOCKED: REMARK    5  A    between atoms: C_11  and  N_12
DOCKED: REMARK    6  A    between atoms: N_12  and  C_13
DOCKED: REMARK    7  A    between atoms: N_12  and  C_16
DOCKED: REMARK    8  A    between atoms: C_13  and  C_14
DOCKED: REMARK    9  A    between atoms: C_14  and  O_15
DOCKED: REMARK   10  A    between atoms: C_16  and  C_17
DOCKED: REMARK   11  A    between atoms: C_17  and  C_18
DOCKED: REMARK                            x       y       z     vdW  Elec       q    Type
DOCKED: REMARK                         _______ _______ _______ _____ _____    ______ ____
DOCKED: USER                              x       y       z     vdW  Elec       q    Type
DOCKED: USER                           _______ _______ _______ _____ _____    ______ ____
DOCKED: ROOT
DOCKED: ATOM      1  N   UNL     1      20.327  -8.868  -6.184 -0.14 -0.00    +0.000 N 
DOCKED: ATOM      2  H   UNL     1      20.202  -8.190  -6.935 +0.00 -0.00    +0.000 HD
DOCKED: ENDROOT
DOCKED: BRANCH   1   3
DOCKED: ATOM      3  C   UNL     1      21.575  -8.534  -5.463 -0.26 -0.00    +0.000 C 
DOCKED: BRANCH   3   7
DOCKED: ATOM      4  C   UNL     1      21.289  -9.708  -1.307 -0.57 -0.00    +0.000 A 
DOCKED: ATOM      5  C   UNL     1      21.677 -10.638  -2.286 -0.30 -0.00    +0.000 A 
DOCKED: ATOM      6  C   UNL     1      21.762 -10.265  -3.630 -0.37 -0.00    +0.000 A 
DOCKED: ATOM      7  C   UNL     1      21.468  -8.951  -4.021 -0.33 -0.00    +0.000 A 
DOCKED: ATOM      8  C   UNL     1      21.099  -8.013  -3.047 -0.38 -0.00    +0.000 A 
DOCKED: ATOM      9  C   UNL     1      21.012  -8.383  -1.701 -0.44 -0.00    +0.000 A 
DOCKED: BRANCH   4  11
DOCKED: ATOM     10  C   UNL     1      20.323 -11.029   0.571 -0.69 -0.00    +0.000 C 
DOCKED: ATOM     11  C   UNL     1      21.224 -10.152   0.107 -0.69 -0.00    +0.000 C 
DOCKED: BRANCH  10  13
DOCKED: ATOM     12  O   UNL     1      19.894 -12.645   2.229 -1.51 -0.00    +0.000 OA
DOCKED: ATOM     13  C   UNL     1      20.265 -11.468   1.981 -0.78 -0.00    +0.000 C 
DOCKED: ATOM     14  N   UNL     1      20.642 -10.609   3.067 -0.65 -0.00    +0.000 N 
DOCKED: ATOM     15  H   UNL     1      21.031  -9.725   2.881 -0.60 -0.00    +0.000 HD
DOCKED: BRANCH  14  16
DOCKED: ATOM     16  O   UNL     1      20.465 -11.014   4.347 -0.71 -0.00    +0.000 OA
DOCKED: ATOM     17  H   UNL     1      20.293 -11.969   4.363 -0.26 -0.00    +0.000 HD
DOCKED: ENDBRANCH  14  16
DOCKED: ENDBRANCH  10  13
DOCKED: ENDBRANCH   4  11
DOCKED: ENDBRANCH   3   7
DOCKED: ENDBRANCH   1   3
DOCKED: BRANCH   1  18
DOCKED: ATOM     18  C   UNL     1      20.426 -10.186  -6.857 -0.28 -0.00    +0.000 C 
DOCKED: BRANCH  18  19
DOCKED: ATOM     19  C   UNL     1      21.854 -10.490  -7.336 -0.32 -0.00    +0.000 C 
DOCKED: BRANCH  19  20
DOCKED: ATOM     20  O   UNL     1      22.406 -11.570  -6.631 -0.52 -0.00    +0.000 OA
DOCKED: ATOM     21  H   UNL     1      21.968 -12.391  -6.902 -0.59 -0.00    +0.000 HD
DOCKED: ENDBRANCH  19  20
DOCKED: ENDBRANCH  18  19
DOCKED: ENDBRANCH   1  18
DOCKED: BRANCH   1  22
DOCKED: ATOM     22  C   UNL     1      19.129  -8.705  -5.326 -0.18 -0.00    +0.000 C 
DOCKED: BRANCH  22  23
DOCKED: ATOM     23  C   UNL     1      18.261  -9.974  -5.206 -0.26 -0.00    +0.000 C 
DOCKED: BRANCH  23  24
DOCKED: ATOM     24  C   UNL     1      17.921 -10.237  -3.771 -0.24 -0.00    +0.000 A 
DOCKED: ATOM     25  C   UNL     1      18.750 -10.814  -2.812 -0.28 -0.00    +0.000 A 
DOCKED: ATOM     26  N   UNL     1      18.084 -10.969  -1.645 -0.34 -0.00    +0.000 N 
DOCKED: ATOM     27  C   UNL     1      16.840 -10.508  -1.862 -0.23 -0.00    +0.000 A 
DOCKED: ATOM     28  C   UNL     1      16.700 -10.059  -3.150 -0.22 -0.00    +0.000 A 
DOCKED: ATOM     29  C   UNL     1      15.489  -9.558  -3.628 -0.19 -0.00    +0.000 A 
DOCKED: ATOM     30  C   UNL     1      14.400  -9.516  -2.737 -0.20 -0.00    +0.000 A 
DOCKED: ATOM     31  C   UNL     1      14.544  -9.974  -1.408 -0.23 -0.00    +0.000 A 
DOCKED: ATOM     32  C   UNL     1      15.779 -10.480  -0.959 -0.27 -0.00    +0.000 A 
DOCKED: ATOM     33  H   UNL     1      18.439 -11.343  -0.807 -0.01 -0.00    +0.000 HD
DOCKED: ENDBRANCH  23  24
DOCKED: ENDBRANCH  22  23
DOCKED: ENDBRANCH   1  22
DOCKED: TORSDOF 11
DOCKED: TER
DOCKED: ENDMDL
________________________________________________________________________________


	BEGINNING GENETIC ALGORITHM DOCKING 95 of 100
Run: 95 Seed: 453234004 295025211 [ Run 95 of 100 GA/GALS ]
Beginning LAMARCKIAN GENETIC ALGORITHM (LGA), with a maximum of 2500000 energy evaluations.

Final-Value: -15.543


	FINAL GENETIC ALGORITHM DOCKED STATE
	_______________________________________________


Detailed state:  trans 21.606 -8.796 -7.476 quatxyzw 0.206226 0.395700 0.216447 -0.868356 center 0.460 0.128 -0.007 ntor 11 -107.7928 49.7588 -173.0529 -176.0561 -179.5968 -179.4164 173.3803 4.0115 165.1641 178.9224 163.3146
State:	 21.606  -8.796  -7.476   0.416  0.798  0.436 -59.464   -107.79   49.76 -173.05 -176.06 -179.60 -179.42  173.38    4.01  165.16  178.92  163.31

DOCKED: MODEL       95
DOCKED: USER    Run = 95
DOCKED: USER    DPF = ligand_dock.biased.dpf
DOCKED: USER  
DOCKED: USER    Estimated Free Energy of Binding    =  -10.03 kcal/mol  [=(1)+(2)+(3)-(4)]
DOCKED: USER    Estimated Inhibition Constant, Ki   =   44.29 nM (nanomolar)  [Temperature = 298.15 K]
DOCKED: USER    
DOCKED: USER    (1) Final Intermolecular Energy     =  -13.31 kcal/mol
DOCKED: USER        vdW + Hbond + desolv Energy     =  -13.31 kcal/mol
DOCKED: USER        Electrostatic Energy            =   +0.00 kcal/mol
DOCKED: USER    (2) Final Total Internal Energy     =   -2.23 kcal/mol
DOCKED: USER    (3) Torsional Free Energy           =   +3.28 kcal/mol
DOCKED: USER    (4) Unbound System's Energy  [=(2)] =   -2.23 kcal/mol
DOCKED: USER    
DOCKED: USER    
DOCKED: USER    NEWDPF move ligand.pdbqt
DOCKED: USER    NEWDPF about 0.460000 0.128000 -0.007000
DOCKED: USER    NEWDPF tran0 21.606109 -8.795534 -7.475565
DOCKED: USER    NEWDPF quaternion0 0.206226 0.395700 0.216447 -0.868356
DOCKED: USER    NEWDPF axisangle0 0.415829 0.797878 0.436436 -59.463602
DOCKED: USER    NEWDPF quat0 0.415829 0.797878 0.436436 -59.463602
DOCKED: USER    NEWDPF dihe0 -107.79 49.76 -173.05 -176.06 -179.60 -179.42 173.38 4.01 165.16 178.92 163.31 
DOCKED: USER  keepresnum = 1 
DOCKED: USER  
DOCKED: REMARK  Name = 
DOCKED: REMARK  11 active torsions:
DOCKED: REMARK  status: ('A' for Active; 'I' for Inactive)
DOCKED: REMARK    1  A    between atoms: C_2  and  C_5
DOCKED: REMARK    2  A    between atoms: N_3  and  O_4
DOCKED: REMARK    3  A    between atoms: C_6  and  C_7
DOCKED: REMARK    4  A    between atoms: C_10  and  C_11
DOCKED: REMARK    5  A    between atoms: C_11  and  N_12
DOCKED: REMARK    6  A    between atoms: N_12  and  C_13
DOCKED: REMARK    7  A    between atoms: N_12  and  C_16
DOCKED: REMARK    8  A    between atoms: C_13  and  C_14
DOCKED: REMARK    9  A    between atoms: C_14  and  O_15
DOCKED: REMARK   10  A    between atoms: C_16  and  C_17
DOCKED: REMARK   11  A    between atoms: C_17  and  C_18
DOCKED: REMARK                            x       y       z     vdW  Elec       q    Type
DOCKED: REMARK                         _______ _______ _______ _____ _____    ______ ____
DOCKED: USER                              x       y       z     vdW  Elec       q    Type
DOCKED: USER                           _______ _______ _______ _____ _____    ______ ____
DOCKED: ROOT
DOCKED: ATOM      1  N   UNL     1      21.309 -10.320  -7.581 -0.24 -0.00    +0.000 N 
DOCKED: ATOM      2  H   UNL     1      20.980  -9.771  -8.375 -0.00 -0.00    +0.000 HD
DOCKED: ENDROOT
DOCKED: BRANCH   1   3
DOCKED: ATOM      3  C   UNL     1      22.058  -9.422  -6.676 -0.27 -0.00    +0.000 C 
DOCKED: BRANCH   3   7
DOCKED: ATOM      4  C   UNL     1      20.631  -9.827  -2.610 -0.46 -0.00    +0.000 A 
DOCKED: ATOM      5  C   UNL     1      21.314 -10.884  -3.235 -0.37 -0.00    +0.000 A 
DOCKED: ATOM      6  C   UNL     1      21.768 -10.761  -4.550 -0.44 -0.00    +0.000 A 
DOCKED: ATOM      7  C   UNL     1      21.555  -9.573  -5.265 -0.31 -0.00    +0.000 A 
DOCKED: ATOM      8  C   UNL     1      20.893  -8.507  -4.640 -0.26 -0.00    +0.000 A 
DOCKED: ATOM      9  C   UNL     1      20.436  -8.628  -3.324 -0.33 -0.00    +0.000 A 
DOCKED: BRANCH   4  11
DOCKED: ATOM     10  C   UNL     1      20.709 -10.902  -0.363 -0.62 -0.00    +0.000 C 
DOCKED: ATOM     11  C   UNL     1      20.178 -10.006  -1.208 -0.52 -0.00    +0.000 C 
DOCKED: BRANCH  10  13
DOCKED: ATOM     12  O   UNL     1      19.558 -10.162   1.553 -0.66 -0.00    +0.000 OA
DOCKED: ATOM     13  C   UNL     1      20.254 -11.074   1.032 -0.71 -0.00    +0.000 C 
DOCKED: ATOM     14  N   UNL     1      20.553 -12.250   1.797 -0.70 -0.00    +0.000 N 
DOCKED: ATOM     15  H   UNL     1      21.006 -13.011   1.369 -0.59 -0.00    +0.000 HD
DOCKED: BRANCH  14  16
DOCKED: ATOM     16  O   UNL     1      20.213 -12.315   3.106 -1.09 -0.00    +0.000 OA
DOCKED: ATOM     17  H   UNL     1      21.012 -12.250   3.651 -0.60 -0.00    +0.000 HD
DOCKED: ENDBRANCH  14  16
DOCKED: ENDBRANCH  10  13
DOCKED: ENDBRANCH   4  11
DOCKED: ENDBRANCH   3   7
DOCKED: ENDBRANCH   1   3
DOCKED: BRANCH   1  18
DOCKED: ATOM     18  C   UNL     1      22.191 -11.361  -8.163 -0.28 -0.00    +0.000 C 
DOCKED: BRANCH  18  19
DOCKED: ATOM     19  C   UNL     1      23.489 -11.542  -7.359 -0.49 -0.00    +0.000 C 
DOCKED: BRANCH  19  20
DOCKED: ATOM     20  O   UNL     1      23.430 -12.688  -6.554 -1.00 -0.00    +0.000 OA
DOCKED: ATOM     21  H   UNL     1      22.523 -13.029  -6.540 -0.57 -0.00    +0.000 HD
DOCKED: ENDBRANCH  19  20
DOCKED: ENDBRANCH  18  19
DOCKED: ENDBRANCH   1  18
DOCKED: BRANCH   1  22
DOCKED: ATOM     22  C   UNL     1      20.075 -10.845  -6.949 -0.28 -0.00    +0.000 C 
DOCKED: BRANCH  22  23
DOCKED: ATOM     23  C   UNL     1      18.793 -10.083  -7.339 -0.25 -0.00    +0.000 C 
DOCKED: BRANCH  23  24
DOCKED: ATOM     24  C   UNL     1      17.591 -10.748  -6.740 -0.29 -0.00    +0.000 A 
DOCKED: ATOM     25  C   UNL     1      16.779 -11.701  -7.348 -0.34 -0.00    +0.000 A 
DOCKED: ATOM     26  N   UNL     1      15.741 -12.020  -6.541 -0.32 -0.00    +0.000 N 
DOCKED: ATOM     27  C   UNL     1      15.883 -11.267  -5.437 -0.22 -0.00    +0.000 A 
DOCKED: ATOM     28  C   UNL     1      16.998 -10.473  -5.523 -0.23 -0.00    +0.000 A 
DOCKED: ATOM     29  C   UNL     1      17.345  -9.579  -4.510 -0.20 -0.00    +0.000 A 
DOCKED: ATOM     30  C   UNL     1      16.515  -9.520  -3.375 -0.19 -0.00    +0.000 A 
DOCKED: ATOM     31  C   UNL     1      15.370 -10.341  -3.283 -0.23 -0.00    +0.000 A 
DOCKED: ATOM     32  C   UNL     1      15.042 -11.229  -4.326 -0.21 -0.00    +0.000 A 
DOCKED: ATOM     33  H   UNL     1      15.027 -12.672  -6.726 -0.02 -0.00    +0.000 HD
DOCKED: ENDBRANCH  23  24
DOCKED: ENDBRANCH  22  23
DOCKED: ENDBRANCH   1  22
DOCKED: TORSDOF 11
DOCKED: TER
DOCKED: ENDMDL
________________________________________________________________________________


	BEGINNING GENETIC ALGORITHM DOCKING 96 of 100
Run: 96 Seed: 628769706 1771117305 [ Run 96 of 100 GA/GALS ]
Beginning LAMARCKIAN GENETIC ALGORITHM (LGA), with a maximum of 2500000 energy evaluations.

Final-Value: -14.836


	FINAL GENETIC ALGORITHM DOCKED STATE
	_______________________________________________


Detailed state:  trans 22.638 -8.641 -7.522 quatxyzw -0.001439 -0.492146 0.023189 -0.870202 center 0.460 0.128 -0.007 ntor 11 -95.8772 62.3491 -125.9464 64.3565 32.6842 174.6176 0.4571 -151.7218 -163.9663 -153.2848 -62.7502
State:	 22.638  -8.641  -7.522  -0.003 -0.999  0.047 -59.036    -95.88   62.35 -125.95   64.36   32.68  174.62    0.46 -151.72 -163.97 -153.28  -62.75

DOCKED: MODEL       96
DOCKED: USER    Run = 96
DOCKED: USER    DPF = ligand_dock.biased.dpf
DOCKED: USER  
DOCKED: USER    Estimated Free Energy of Binding    =   -9.41 kcal/mol  [=(1)+(2)+(3)-(4)]
DOCKED: USER    Estimated Inhibition Constant, Ki   =  126.95 nM (nanomolar)  [Temperature = 298.15 K]
DOCKED: USER    
DOCKED: USER    (1) Final Intermolecular Energy     =  -12.69 kcal/mol
DOCKED: USER        vdW + Hbond + desolv Energy     =  -12.69 kcal/mol
DOCKED: USER        Electrostatic Energy            =   +0.00 kcal/mol
DOCKED: USER    (2) Final Total Internal Energy     =   -2.15 kcal/mol
DOCKED: USER    (3) Torsional Free Energy           =   +3.28 kcal/mol
DOCKED: USER    (4) Unbound System's Energy  [=(2)] =   -2.15 kcal/mol
DOCKED: USER    
DOCKED: USER    
DOCKED: USER    NEWDPF move ligand.pdbqt
DOCKED: USER    NEWDPF about 0.460000 0.128000 -0.007000
DOCKED: USER    NEWDPF tran0 22.637990 -8.641462 -7.522440
DOCKED: USER    NEWDPF quaternion0 -0.001439 -0.492146 0.023189 -0.870202
DOCKED: USER    NEWDPF axisangle0 -0.002921 -0.998888 0.047065 -59.035686
DOCKED: USER    NEWDPF quat0 -0.002921 -0.998888 0.047065 -59.035686
DOCKED: USER    NEWDPF dihe0 -95.88 62.35 -125.95 64.36 32.68 174.62 0.46 -151.72 -163.97 -153.28 -62.75 
DOCKED: USER  keepresnum = 1 
DOCKED: USER  
DOCKED: REMARK  Name = 
DOCKED: REMARK  11 active torsions:
DOCKED: REMARK  status: ('A' for Active; 'I' for Inactive)
DOCKED: REMARK    1  A    between atoms: C_2  and  C_5
DOCKED: REMARK    2  A    between atoms: N_3  and  O_4
DOCKED: REMARK    3  A    between atoms: C_6  and  C_7
DOCKED: REMARK    4  A    between atoms: C_10  and  C_11
DOCKED: REMARK    5  A    between atoms: C_11  and  N_12
DOCKED: REMARK    6  A    between atoms: N_12  and  C_13
DOCKED: REMARK    7  A    between atoms: N_12  and  C_16
DOCKED: REMARK    8  A    between atoms: C_13  and  C_14
DOCKED: REMARK    9  A    between atoms: C_14  and  O_15
DOCKED: REMARK   10  A    between atoms: C_16  and  C_17
DOCKED: REMARK   11  A    between atoms: C_17  and  C_18
DOCKED: REMARK                            x       y       z     vdW  Elec       q    Type
DOCKED: REMARK                         _______ _______ _______ _____ _____    ______ ____
DOCKED: USER                              x       y       z     vdW  Elec       q    Type
DOCKED: USER                           _______ _______ _______ _____ _____    ______ ____
DOCKED: ROOT
DOCKED: ATOM      1  N   UNL     1      22.213  -9.924  -8.296 -0.18 -0.00    +0.000 N 
DOCKED: ATOM      2  H   UNL     1      23.222  -9.782  -8.237 +0.00 -0.00    +0.000 HD
DOCKED: ENDROOT
DOCKED: BRANCH   1   3
DOCKED: ATOM      3  C   UNL     1      21.550  -8.870  -7.498 -0.15 -0.00    +0.000 C 
DOCKED: BRANCH   3   7
DOCKED: ATOM      4  C   UNL     1      20.585 -10.348  -3.546 -0.44 -0.00    +0.000 A 
DOCKED: ATOM      5  C   UNL     1      21.771  -9.627  -3.768 -0.30 -0.00    +0.000 A 
DOCKED: ATOM      6  C   UNL     1      22.090  -9.156  -5.044 -0.20 -0.00    +0.000 A 
DOCKED: ATOM      7  C   UNL     1      21.225  -9.391  -6.123 -0.23 -0.00    +0.000 A 
DOCKED: ATOM      8  C   UNL     1      20.031 -10.091  -5.904 -0.26 -0.00    +0.000 A 
DOCKED: ATOM      9  C   UNL     1      19.709 -10.564  -4.628 -0.36 -0.00    +0.000 A 
DOCKED: BRANCH   4  11
DOCKED: ATOM     10  C   UNL     1      20.909 -10.354  -1.076 -0.65 -0.00    +0.000 C 
DOCKED: ATOM     11  C   UNL     1      20.288 -10.817  -2.170 -0.44 -0.00    +0.000 C 
DOCKED: BRANCH  10  13
DOCKED: ATOM     12  O   UNL     1      21.009 -10.136   1.267 -0.68 -0.00    +0.000 OA
DOCKED: ATOM     13  C   UNL     1      20.607 -10.826   0.292 -0.69 -0.00    +0.000 C 
DOCKED: ATOM     14  N   UNL     1      19.853 -12.020   0.543 -0.58 -0.00    +0.000 N 
DOCKED: ATOM     15  H   UNL     1      19.446 -12.509  -0.208 -0.19 -0.00    +0.000 HD
DOCKED: BRANCH  14  16
DOCKED: ATOM     16  O   UNL     1      19.698 -12.473   1.809 -1.64 -0.00    +0.000 OA
DOCKED: ATOM     17  H   UNL     1      20.367 -13.151   1.994 -0.61 -0.00    +0.000 HD
DOCKED: ENDBRANCH  14  16
DOCKED: ENDBRANCH  10  13
DOCKED: ENDBRANCH   4  11
DOCKED: ENDBRANCH   3   7
DOCKED: ENDBRANCH   1   3
DOCKED: BRANCH   1  18
DOCKED: ATOM     18  C   UNL     1      21.972 -11.270  -7.724 -0.25 -0.00    +0.000 C 
DOCKED: BRANCH  18  19
DOCKED: ATOM     19  C   UNL     1      23.170 -11.779  -6.906 -0.52 -0.00    +0.000 C 
DOCKED: BRANCH  19  20
DOCKED: ATOM     20  O   UNL     1      22.752 -12.624  -5.867 -0.78 -0.00    +0.000 OA
DOCKED: ATOM     21  H   UNL     1      21.789 -12.727  -5.901 -0.60 -0.00    +0.000 HD
DOCKED: ENDBRANCH  19  20
DOCKED: ENDBRANCH  18  19
DOCKED: ENDBRANCH   1  18
DOCKED: BRANCH   1  22
DOCKED: ATOM     22  C   UNL     1      21.901  -9.807  -9.741 -0.13 -0.00    +0.000 C 
DOCKED: BRANCH  22  23
DOCKED: ATOM     23  C   UNL     1      23.141  -9.819 -10.658 -0.08 -0.00    +0.000 C 
DOCKED: BRANCH  23  24
DOCKED: ATOM     24  C   UNL     1      24.311 -10.419  -9.940 -0.12 -0.00    +0.000 A 
DOCKED: ATOM     25  C   UNL     1      24.709 -11.753  -9.968 -0.24 -0.00    +0.000 A 
DOCKED: ATOM     26  N   UNL     1      25.759 -11.949  -9.139 -0.39 -0.00    +0.000 N 
DOCKED: ATOM     27  C   UNL     1      26.019 -10.755  -8.578 -0.35 -0.00    +0.000 A 
DOCKED: ATOM     28  C   UNL     1      25.152  -9.798  -9.037 -0.17 -0.00    +0.000 A 
DOCKED: ATOM     29  C   UNL     1      25.200  -8.480  -8.581 -0.13 -0.00    +0.000 A 
DOCKED: ATOM     30  C   UNL     1      26.185  -8.152  -7.630 -0.21 -0.00    +0.000 A 
DOCKED: ATOM     31  C   UNL     1      27.082  -9.136  -7.160 -0.38 -0.00    +0.000 A 
DOCKED: ATOM     32  C   UNL     1      27.002 -10.459  -7.635 -0.27 -0.00    +0.000 A 
DOCKED: ATOM     33  H   UNL     1      26.237 -12.794  -8.980 -0.49 -0.00    +0.000 HD
DOCKED: ENDBRANCH  23  24
DOCKED: ENDBRANCH  22  23
DOCKED: ENDBRANCH   1  22
DOCKED: TORSDOF 11
DOCKED: TER
DOCKED: ENDMDL
________________________________________________________________________________


	BEGINNING GENETIC ALGORITHM DOCKING 97 of 100
Run: 97 Seed: 91284609 1205973780 [ Run 97 of 100 GA/GALS ]
Beginning LAMARCKIAN GENETIC ALGORITHM (LGA), with a maximum of 2500000 energy evaluations.

Final-Value: -15.737


	FINAL GENETIC ALGORITHM DOCKED STATE
	_______________________________________________


Detailed state:  trans 17.009 -10.681 1.347 quatxyzw 0.192111 -0.580932 0.552863 -0.565645 center 0.460 0.128 -0.007 ntor 11 13.8659 -180.0000 113.3505 1.3092 -73.8282 -151.4993 159.2898 -1.7398 -166.1904 82.3208 19.2509
State:	 17.009 -10.681   1.347   0.233 -0.704  0.670 -111.106     13.87 -180.00  113.35    1.31  -73.83 -151.50  159.29   -1.74 -166.19   82.32   19.25

DOCKED: MODEL       97
DOCKED: USER    Run = 97
DOCKED: USER    DPF = ligand_dock.biased.dpf
DOCKED: USER  
DOCKED: USER    Estimated Free Energy of Binding    =   -9.85 kcal/mol  [=(1)+(2)+(3)-(4)]
DOCKED: USER    Estimated Inhibition Constant, Ki   =   60.11 nM (nanomolar)  [Temperature = 298.15 K]
DOCKED: USER    
DOCKED: USER    (1) Final Intermolecular Energy     =  -13.13 kcal/mol
DOCKED: USER        vdW + Hbond + desolv Energy     =  -13.13 kcal/mol
DOCKED: USER        Electrostatic Energy            =   +0.00 kcal/mol
DOCKED: USER    (2) Final Total Internal Energy     =   -2.60 kcal/mol
DOCKED: USER    (3) Torsional Free Energy           =   +3.28 kcal/mol
DOCKED: USER    (4) Unbound System's Energy  [=(2)] =   -2.60 kcal/mol
DOCKED: USER    
DOCKED: USER    
DOCKED: USER    NEWDPF move ligand.pdbqt
DOCKED: USER    NEWDPF about 0.460000 0.128000 -0.007000
DOCKED: USER    NEWDPF tran0 17.009320 -10.681278 1.347205
DOCKED: USER    NEWDPF quaternion0 0.192111 -0.580932 0.552863 -0.565645
DOCKED: USER    NEWDPF axisangle0 0.232961 -0.704460 0.670422 -111.105824
DOCKED: USER    NEWDPF quat0 0.232961 -0.704460 0.670422 -111.105824
DOCKED: USER    NEWDPF dihe0 13.87 -180.00 113.35 1.31 -73.83 -151.50 159.29 -1.74 -166.19 82.32 19.25 
DOCKED: USER  keepresnum = 1 
DOCKED: USER  
DOCKED: REMARK  Name = 
DOCKED: REMARK  11 active torsions:
DOCKED: REMARK  status: ('A' for Active; 'I' for Inactive)
DOCKED: REMARK    1  A    between atoms: C_2  and  C_5
DOCKED: REMARK    2  A    between atoms: N_3  and  O_4
DOCKED: REMARK    3  A    between atoms: C_6  and  C_7
DOCKED: REMARK    4  A    between atoms: C_10  and  C_11
DOCKED: REMARK    5  A    between atoms: C_11  and  N_12
DOCKED: REMARK    6  A    between atoms: N_12  and  C_13
DOCKED: REMARK    7  A    between atoms: N_12  and  C_16
DOCKED: REMARK    8  A    between atoms: C_13  and  C_14
DOCKED: REMARK    9  A    between atoms: C_14  and  O_15
DOCKED: REMARK   10  A    between atoms: C_16  and  C_17
DOCKED: REMARK   11  A    between atoms: C_17  and  C_18
DOCKED: REMARK                            x       y       z     vdW  Elec       q    Type
DOCKED: REMARK                         _______ _______ _______ _____ _____    ______ ____
DOCKED: USER                              x       y       z     vdW  Elec       q    Type
DOCKED: USER                           _______ _______ _______ _____ _____    ______ ____
DOCKED: ROOT
DOCKED: ATOM      1  N   UNL     1      18.338 -11.442   1.061 -0.46 -0.00    +0.000 N 
DOCKED: ATOM      2  H   UNL     1      18.459 -10.459   1.309 -0.01 -0.00    +0.000 HD
DOCKED: ENDROOT
DOCKED: BRANCH   1   3
DOCKED: ATOM      3  C   UNL     1      16.903 -11.776   1.189 -0.48 +0.00    +0.000 C 
DOCKED: BRANCH   3   7
DOCKED: ATOM      4  C   UNL     1      14.835  -8.666   3.375 -0.31 +0.00    +0.000 A 
DOCKED: ATOM      5  C   UNL     1      16.194  -8.925   3.618 -0.27 +0.00    +0.000 A 
DOCKED: ATOM      6  C   UNL     1      16.864  -9.934   2.920 -0.41 +0.00    +0.000 A 
DOCKED: ATOM      7  C   UNL     1      16.186 -10.700   1.960 -0.37 +0.00    +0.000 A 
DOCKED: ATOM      8  C   UNL     1      14.835 -10.433   1.698 -0.29 +0.00    +0.000 A 
DOCKED: ATOM      9  C   UNL     1      14.163  -9.424   2.395 -0.24 +0.00    +0.000 A 
DOCKED: BRANCH   4  11
DOCKED: ATOM     10  C   UNL     1      14.679  -6.341   4.256 -0.38 +0.00    +0.000 C 
DOCKED: ATOM     11  C   UNL     1      14.174  -7.576   4.136 -0.33 +0.00    +0.000 C 
DOCKED: BRANCH  10  13
DOCKED: ATOM     12  O   UNL     1      14.278  -5.139   6.240 -1.03 +0.00    +0.000 OA
DOCKED: ATOM     13  C   UNL     1      14.015  -5.260   5.014 -0.39 +0.00    +0.000 C 
DOCKED: ATOM     14  N   UNL     1      13.110  -4.334   4.397 -0.27 +0.00    +0.000 N 
DOCKED: ATOM     15  H   UNL     1      12.977  -4.354   3.422 +0.01 +0.00    +0.000 HD
DOCKED: BRANCH  14  16
DOCKED: ATOM     16  O   UNL     1      12.439  -3.433   5.153 -0.42 +0.00    +0.000 OA
DOCKED: ATOM     17  H   UNL     1      12.835  -3.395   6.037 -0.59 +0.00    +0.000 HD
DOCKED: ENDBRANCH  14  16
DOCKED: ENDBRANCH  10  13
DOCKED: ENDBRANCH   4  11
DOCKED: ENDBRANCH   3   7
DOCKED: ENDBRANCH   1   3
DOCKED: BRANCH   1  18
DOCKED: ATOM     18  C   UNL     1      19.159 -12.197   2.037 -0.58 -0.00    +0.000 C 
DOCKED: BRANCH  18  19
DOCKED: ATOM     19  C   UNL     1      20.563 -11.594   2.208 -0.77 -0.00    +0.000 C 
DOCKED: BRANCH  19  20
DOCKED: ATOM     20  O   UNL     1      20.554 -10.213   1.967 -0.64 -0.00    +0.000 OA
DOCKED: ATOM     21  H   UNL     1      20.838  -9.743   2.766 -0.59 -0.00    +0.000 HD
DOCKED: ENDBRANCH  19  20
DOCKED: ENDBRANCH  18  19
DOCKED: ENDBRANCH   1  18
DOCKED: BRANCH   1  22
DOCKED: ATOM     22  C   UNL     1      18.809 -11.537  -0.342 -0.52 -0.00    +0.000 C 
DOCKED: BRANCH  22  23
DOCKED: ATOM     23  C   UNL     1      19.518 -10.269  -0.857 -0.41 -0.00    +0.000 C 
DOCKED: BRANCH  23  24
DOCKED: ATOM     24  C   UNL     1      20.171 -10.539  -2.178 -0.45 -0.00    +0.000 A 
DOCKED: ATOM     25  C   UNL     1      21.536 -10.660  -2.422 -0.35 -0.00    +0.000 A 
DOCKED: ATOM     26  N   UNL     1      21.766 -10.824  -3.744 -0.52 -0.00    +0.000 N 
DOCKED: ATOM     27  C   UNL     1      20.561 -10.795  -4.338 -0.44 -0.00    +0.000 A 
DOCKED: ATOM     28  C   UNL     1      19.563 -10.616  -3.416 -0.38 -0.00    +0.000 A 
DOCKED: ATOM     29  C   UNL     1      18.221 -10.522  -3.790 -0.24 -0.00    +0.000 A 
DOCKED: ATOM     30  C   UNL     1      17.915 -10.629  -5.160 -0.27 -0.00    +0.000 A 
DOCKED: ATOM     31  C   UNL     1      18.942 -10.818  -6.111 -0.33 -0.00    +0.000 A 
DOCKED: ATOM     32  C   UNL     1      20.286 -10.901  -5.701 -0.38 -0.00    +0.000 A 
DOCKED: ATOM     33  H   UNL     1      22.640 -10.943  -4.183 -0.02 -0.00    +0.000 HD
DOCKED: ENDBRANCH  23  24
DOCKED: ENDBRANCH  22  23
DOCKED: ENDBRANCH   1  22
DOCKED: TORSDOF 11
DOCKED: TER
DOCKED: ENDMDL
________________________________________________________________________________


	BEGINNING GENETIC ALGORITHM DOCKING 98 of 100
Run: 98 Seed: 1049821676 1390553009 [ Run 98 of 100 GA/GALS ]
Beginning LAMARCKIAN GENETIC ALGORITHM (LGA), with a maximum of 2500000 energy evaluations.

Final-Value: -14.467


	FINAL GENETIC ALGORITHM DOCKED STATE
	_______________________________________________


Detailed state:  trans 18.273 -13.025 0.372 quatxyzw 0.679558 -0.579496 0.234780 0.383749 center 0.460 0.128 -0.007 ntor 11 -0.0509 106.3796 -165.8290 -57.2569 79.8174 76.4594 127.9283 61.6299 -136.0130 152.4899 -153.9523
State:	 18.273 -13.025   0.372   0.736 -0.628  0.254 134.868     -0.05  106.38 -165.83  -57.26   79.82   76.46  127.93   61.63 -136.01  152.49 -153.95

DOCKED: MODEL       98
DOCKED: USER    Run = 98
DOCKED: USER    DPF = ligand_dock.biased.dpf
DOCKED: USER  
DOCKED: USER    Estimated Free Energy of Binding    =   -9.55 kcal/mol  [=(1)+(2)+(3)-(4)]
DOCKED: USER    Estimated Inhibition Constant, Ki   =   99.61 nM (nanomolar)  [Temperature = 298.15 K]
DOCKED: USER    
DOCKED: USER    (1) Final Intermolecular Energy     =  -12.83 kcal/mol
DOCKED: USER        vdW + Hbond + desolv Energy     =  -12.83 kcal/mol
DOCKED: USER        Electrostatic Energy            =   +0.00 kcal/mol
DOCKED: USER    (2) Final Total Internal Energy     =   -1.63 kcal/mol
DOCKED: USER    (3) Torsional Free Energy           =   +3.28 kcal/mol
DOCKED: USER    (4) Unbound System's Energy  [=(2)] =   -1.63 kcal/mol
DOCKED: USER    
DOCKED: USER    
DOCKED: USER    NEWDPF move ligand.pdbqt
DOCKED: USER    NEWDPF about 0.460000 0.128000 -0.007000
DOCKED: USER    NEWDPF tran0 18.273041 -13.025242 0.372194
DOCKED: USER    NEWDPF quaternion0 0.679558 -0.579496 0.234780 0.383749
DOCKED: USER    NEWDPF axisangle0 0.735900 -0.627543 0.254246 134.867778
DOCKED: USER    NEWDPF quat0 0.735900 -0.627543 0.254246 134.867778
DOCKED: USER    NEWDPF dihe0 -0.05 106.38 -165.83 -57.26 79.82 76.46 127.93 61.63 -136.01 152.49 -153.95 
DOCKED: USER  keepresnum = 1 
DOCKED: USER  
DOCKED: REMARK  Name = 
DOCKED: REMARK  11 active torsions:
DOCKED: REMARK  status: ('A' for Active; 'I' for Inactive)
DOCKED: REMARK    1  A    between atoms: C_2  and  C_5
DOCKED: REMARK    2  A    between atoms: N_3  and  O_4
DOCKED: REMARK    3  A    between atoms: C_6  and  C_7
DOCKED: REMARK    4  A    between atoms: C_10  and  C_11
DOCKED: REMARK    5  A    between atoms: C_11  and  N_12
DOCKED: REMARK    6  A    between atoms: N_12  and  C_13
DOCKED: REMARK    7  A    between atoms: N_12  and  C_16
DOCKED: REMARK    8  A    between atoms: C_13  and  C_14
DOCKED: REMARK    9  A    between atoms: C_14  and  O_15
DOCKED: REMARK   10  A    between atoms: C_16  and  C_17
DOCKED: REMARK   11  A    between atoms: C_17  and  C_18
DOCKED: REMARK                            x       y       z     vdW  Elec       q    Type
DOCKED: REMARK                         _______ _______ _______ _____ _____    ______ ____
DOCKED: USER                              x       y       z     vdW  Elec       q    Type
DOCKED: USER                           _______ _______ _______ _____ _____    ______ ____
DOCKED: ROOT
DOCKED: ATOM      1  N   UNL     1      18.818 -12.080   1.483 -0.57 -0.00    +0.000 N 
DOCKED: ATOM      2  H   UNL     1      18.244 -12.850   1.828 -0.06 +0.00    +0.000 HD
DOCKED: ENDROOT
DOCKED: BRANCH   1   3
DOCKED: ATOM      3  C   UNL     1      18.992 -12.252   0.025 -0.39 -0.00    +0.000 C 
DOCKED: BRANCH   3   7
DOCKED: ATOM      4  C   UNL     1      20.957  -8.797  -1.689 -0.46 -0.00    +0.000 A 
DOCKED: ATOM      5  C   UNL     1      21.384  -9.323  -0.458 -0.55 -0.00    +0.000 A 
DOCKED: ATOM      6  C   UNL     1      20.747 -10.433   0.103 -0.61 -0.00    +0.000 A 
DOCKED: ATOM      7  C   UNL     1      19.673 -11.044  -0.561 -0.46 -0.00    +0.000 A 
DOCKED: ATOM      8  C   UNL     1      19.255 -10.536  -1.799 -0.38 -0.00    +0.000 A 
DOCKED: ATOM      9  C   UNL     1      19.890  -9.425  -2.362 -0.21 -0.00    +0.000 A 
DOCKED: BRANCH   4  11
DOCKED: ATOM     10  C   UNL     1      21.427  -6.358  -1.880 -0.42 -0.00    +0.000 C 
DOCKED: ATOM     11  C   UNL     1      21.674  -7.623  -2.246 -0.33 -0.00    +0.000 C 
DOCKED: BRANCH  10  13
DOCKED: ATOM     12  O   UNL     1      22.841  -4.488  -1.661 -0.84 +0.00    +0.000 OA
DOCKED: ATOM     13  C   UNL     1      22.146  -5.193  -2.438 -0.38 -0.00    +0.000 C 
DOCKED: ATOM     14  N   UNL     1      22.100  -4.861  -3.833 -0.18 -0.00    +0.000 N 
DOCKED: ATOM     15  H   UNL     1      21.646  -5.462  -4.466 -0.00 -0.00    +0.000 HD
DOCKED: BRANCH  14  16
DOCKED: ATOM     16  O   UNL     1      22.681  -3.722  -4.280 -0.11 -0.00    +0.000 OA
DOCKED: ATOM     17  H   UNL     1      23.079  -3.248  -3.533 +0.00 -0.00    +0.000 HD
DOCKED: ENDBRANCH  14  16
DOCKED: ENDBRANCH  10  13
DOCKED: ENDBRANCH   4  11
DOCKED: ENDBRANCH   3   7
DOCKED: ENDBRANCH   1   3
DOCKED: BRANCH   1  18
DOCKED: ATOM     18  C   UNL     1      20.110 -12.203   2.201 -0.71 -0.00    +0.000 C 
DOCKED: BRANCH  18  19
DOCKED: ATOM     19  C   UNL     1      20.267 -11.144   3.305 -0.74 -0.00    +0.000 C 
DOCKED: BRANCH  19  20
DOCKED: ATOM     20  O   UNL     1      20.193 -11.726   4.579 -0.69 -0.00    +0.000 OA
DOCKED: ATOM     21  H   UNL     1      20.739 -12.527   4.601 -0.39 -0.00    +0.000 HD
DOCKED: ENDBRANCH  19  20
DOCKED: ENDBRANCH  18  19
DOCKED: ENDBRANCH   1  18
DOCKED: BRANCH   1  22
DOCKED: ATOM     22  C   UNL     1      18.047 -10.858   1.812 -0.52 -0.00    +0.000 C 
DOCKED: BRANCH  22  23
DOCKED: ATOM     23  C   UNL     1      17.362 -10.896   3.193 -0.47 +0.00    +0.000 C 
DOCKED: BRANCH  23  24
DOCKED: ATOM     24  C   UNL     1      15.901 -10.592   3.056 -0.43 +0.00    +0.000 A 
DOCKED: ATOM     25  C   UNL     1      15.134  -9.799   3.906 -0.40 +0.00    +0.000 A 
DOCKED: ATOM     26  N   UNL     1      13.838  -9.812   3.520 -0.32 +0.00    +0.000 N 
DOCKED: ATOM     27  C   UNL     1      13.778 -10.616   2.444 -0.32 +0.00    +0.000 A 
DOCKED: ATOM     28  C   UNL     1      15.016 -11.116   2.135 -0.40 +0.00    +0.000 A 
DOCKED: ATOM     29  C   UNL     1      15.209 -12.000   1.072 -0.43 +0.00    +0.000 A 
DOCKED: ATOM     30  C   UNL     1      14.084 -12.362   0.309 -0.40 +0.00    +0.000 A 
DOCKED: ATOM     31  C   UNL     1      12.808 -11.843   0.624 -0.35 +0.00    +0.000 A 
DOCKED: ATOM     32  C   UNL     1      12.646 -10.958   1.707 -0.32 +0.00    +0.000 A 
DOCKED: ATOM     33  H   UNL     1      13.091  -9.330   3.941 -0.01 +0.00    +0.000 HD
DOCKED: ENDBRANCH  23  24
DOCKED: ENDBRANCH  22  23
DOCKED: ENDBRANCH   1  22
DOCKED: TORSDOF 11
DOCKED: TER
DOCKED: ENDMDL
________________________________________________________________________________


	BEGINNING GENETIC ALGORITHM DOCKING 99 of 100
Run: 99 Seed: 357908103 1273358035 [ Run 99 of 100 GA/GALS ]
Beginning LAMARCKIAN GENETIC ALGORITHM (LGA), with a maximum of 2500000 energy evaluations.

Final-Value: -15.686


	FINAL GENETIC ALGORITHM DOCKED STATE
	_______________________________________________


Detailed state:  trans 20.403 -8.081 -6.926 quatxyzw 0.192092 0.007112 -0.840407 0.506721 center 0.460 0.128 -0.007 ntor 11 33.4105 -28.2027 115.7310 20.8816 179.8725 180.0000 33.3421 -39.7035 167.3457 -170.5073 -160.5998
State:	 20.403  -8.081  -6.926   0.223  0.008 -0.975 119.109     33.41  -28.20  115.73   20.88  179.87  180.00   33.34  -39.70  167.35 -170.51 -160.60

DOCKED: MODEL       99
DOCKED: USER    Run = 99
DOCKED: USER    DPF = ligand_dock.biased.dpf
DOCKED: USER  
DOCKED: USER    Estimated Free Energy of Binding    =   -9.68 kcal/mol  [=(1)+(2)+(3)-(4)]
DOCKED: USER    Estimated Inhibition Constant, Ki   =   80.65 nM (nanomolar)  [Temperature = 298.15 K]
DOCKED: USER    
DOCKED: USER    (1) Final Intermolecular Energy     =  -12.96 kcal/mol
DOCKED: USER        vdW + Hbond + desolv Energy     =  -12.96 kcal/mol
DOCKED: USER        Electrostatic Energy            =   +0.00 kcal/mol
DOCKED: USER    (2) Final Total Internal Energy     =   -2.73 kcal/mol
DOCKED: USER    (3) Torsional Free Energy           =   +3.28 kcal/mol
DOCKED: USER    (4) Unbound System's Energy  [=(2)] =   -2.73 kcal/mol
DOCKED: USER    
DOCKED: USER    
DOCKED: USER    NEWDPF move ligand.pdbqt
DOCKED: USER    NEWDPF about 0.460000 0.128000 -0.007000
DOCKED: USER    NEWDPF tran0 20.402890 -8.081041 -6.925907
DOCKED: USER    NEWDPF quaternion0 0.192092 0.007112 -0.840407 0.506721
DOCKED: USER    NEWDPF axisangle0 0.222816 0.008250 -0.974826 119.108656
DOCKED: USER    NEWDPF quat0 0.222816 0.008250 -0.974826 119.108656
DOCKED: USER    NEWDPF dihe0 33.41 -28.20 115.73 20.88 179.87 180.00 33.34 -39.70 167.35 -170.51 -160.60 
DOCKED: USER  keepresnum = 1 
DOCKED: USER  
DOCKED: REMARK  Name = 
DOCKED: REMARK  11 active torsions:
DOCKED: REMARK  status: ('A' for Active; 'I' for Inactive)
DOCKED: REMARK    1  A    between atoms: C_2  and  C_5
DOCKED: REMARK    2  A    between atoms: N_3  and  O_4
DOCKED: REMARK    3  A    between atoms: C_6  and  C_7
DOCKED: REMARK    4  A    between atoms: C_10  and  C_11
DOCKED: REMARK    5  A    between atoms: C_11  and  N_12
DOCKED: REMARK    6  A    between atoms: N_12  and  C_13
DOCKED: REMARK    7  A    between atoms: N_12  and  C_16
DOCKED: REMARK    8  A    between atoms: C_13  and  C_14
DOCKED: REMARK    9  A    between atoms: C_14  and  O_15
DOCKED: REMARK   10  A    between atoms: C_16  and  C_17
DOCKED: REMARK   11  A    between atoms: C_17  and  C_18
DOCKED: REMARK                            x       y       z     vdW  Elec       q    Type
DOCKED: REMARK                         _______ _______ _______ _____ _____    ______ ____
DOCKED: USER                              x       y       z     vdW  Elec       q    Type
DOCKED: USER                           _______ _______ _______ _____ _____    ______ ____
DOCKED: ROOT
DOCKED: ATOM      1  N   UNL     1      21.849  -8.276  -6.382 -0.17 -0.00    +0.000 N 
DOCKED: ATOM      2  H   UNL     1      21.801  -7.986  -7.359 +0.00 -0.00    +0.000 HD
DOCKED: ENDROOT
DOCKED: BRANCH   1   3
DOCKED: ATOM      3  C   UNL     1      20.475  -8.285  -5.835 -0.17 -0.00    +0.000 C 
DOCKED: BRANCH   3   7
DOCKED: ATOM      4  C   UNL     1      20.348 -10.431  -2.079 -0.47 -0.00    +0.000 A 
DOCKED: ATOM      5  C   UNL     1      20.833  -9.114  -2.132 -0.46 -0.00    +0.000 A 
DOCKED: ATOM      6  C   UNL     1      20.884  -8.420  -3.344 -0.36 -0.00    +0.000 A 
DOCKED: ATOM      7  C   UNL     1      20.442  -9.030  -4.527 -0.27 -0.00    +0.000 A 
DOCKED: ATOM      8  C   UNL     1      19.937 -10.336  -4.478 -0.35 -0.00    +0.000 A 
DOCKED: ATOM      9  C   UNL     1      19.886 -11.033  -3.267 -0.38 -0.00    +0.000 A 
DOCKED: BRANCH   4  11
DOCKED: ATOM     10  C   UNL     1      20.308 -10.476   0.412 -0.65 -0.00    +0.000 C 
DOCKED: ATOM     11  C   UNL     1      20.305 -11.119  -0.765 -0.35 -0.00    +0.000 C 
DOCKED: BRANCH  10  13
DOCKED: ATOM     12  O   UNL     1      19.902 -12.374   1.746 -1.76 -0.00    +0.000 OA
DOCKED: ATOM     13  C   UNL     1      20.265 -11.168   1.717 -0.75 -0.00    +0.000 C 
DOCKED: ATOM     14  N   UNL     1      20.648 -10.523   2.939 -0.62 -0.00    +0.000 N 
DOCKED: ATOM     15  H   UNL     1      21.031  -9.617   2.917 -0.60 -0.00    +0.000 HD
DOCKED: BRANCH  14  16
DOCKED: ATOM     16  O   UNL     1      20.485 -11.159   4.124 -0.72 -0.00    +0.000 OA
DOCKED: ATOM     17  H   UNL     1      20.618 -12.112   4.000 -0.52 -0.00    +0.000 HD
DOCKED: ENDBRANCH  14  16
DOCKED: ENDBRANCH  10  13
DOCKED: ENDBRANCH   4  11
DOCKED: ENDBRANCH   3   7
DOCKED: ENDBRANCH   1   3
DOCKED: BRANCH   1  18
DOCKED: ATOM     18  C   UNL     1      22.692  -7.258  -5.711 -0.10 -0.00    +0.000 C 
DOCKED: BRANCH  18  19
DOCKED: ATOM     19  C   UNL     1      23.687  -6.596  -6.678 -0.14 -0.00    +0.000 C 
DOCKED: BRANCH  19  20
DOCKED: ATOM     20  O   UNL     1      23.165  -6.532  -7.978 -0.06 -0.00    +0.000 OA
DOCKED: ATOM     21  H   UNL     1      23.394  -7.342  -8.459 +0.00 -0.00    +0.000 HD
DOCKED: ENDBRANCH  19  20
DOCKED: ENDBRANCH  18  19
DOCKED: ENDBRANCH   1  18
DOCKED: BRANCH   1  22
DOCKED: ATOM     22  C   UNL     1      22.441  -9.635  -6.421 -0.31 -0.00    +0.000 C 
DOCKED: BRANCH  22  23
DOCKED: ATOM     23  C   UNL     1      22.402 -10.301  -7.811 -0.28 -0.00    +0.000 C 
DOCKED: BRANCH  23  24
DOCKED: ATOM     24  C   UNL     1      23.745 -10.872  -8.151 -0.31 -0.00    +0.000 A 
DOCKED: ATOM     25  C   UNL     1      24.017 -12.182  -8.536 -0.41 -0.00    +0.000 A 
DOCKED: ATOM     26  N   UNL     1      25.349 -12.361  -8.686 -0.45 -0.00    +0.000 N 
DOCKED: ATOM     27  C   UNL     1      25.920 -11.182  -8.387 -0.37 -0.00    +0.000 A 
DOCKED: ATOM     28  C   UNL     1      24.973 -10.249  -8.049 -0.30 -0.00    +0.000 A 
DOCKED: ATOM     29  C   UNL     1      25.319  -8.952  -7.669 -0.24 -0.00    +0.000 A 
DOCKED: ATOM     30  C   UNL     1      26.686  -8.617  -7.652 -0.26 -0.00    +0.000 A 
DOCKED: ATOM     31  C   UNL     1      27.662  -9.575  -8.005 -0.35 -0.00    +0.000 A 
DOCKED: ATOM     32  C   UNL     1      27.281 -10.878  -8.377 -0.35 -0.00    +0.000 A 
DOCKED: ATOM     33  H   UNL     1      25.808 -13.188  -8.960 -0.43 -0.00    +0.000 HD
DOCKED: ENDBRANCH  23  24
DOCKED: ENDBRANCH  22  23
DOCKED: ENDBRANCH   1  22
DOCKED: TORSDOF 11
DOCKED: TER
DOCKED: ENDMDL
________________________________________________________________________________


	BEGINNING GENETIC ALGORITHM DOCKING 100 of 100
Run: 100 Seed: 1130241388 680532455 [ Run 100 of 100 GA/GALS ]
Beginning LAMARCKIAN GENETIC ALGORITHM (LGA), with a maximum of 2500000 energy evaluations.

Final-Value: -15.338


	FINAL GENETIC ALGORITHM DOCKED STATE
	_______________________________________________


Detailed state:  trans 21.009 -10.217 -5.431 quatxyzw -0.655041 0.389776 -0.431056 0.482894 center 0.460 0.128 -0.007 ntor 11 -3.2734 165.7813 1.5965 -151.7384 -166.0390 61.4835 33.3904 128.2752 170.9925 79.7253 23.1292
State:	 21.009 -10.217  -5.431  -0.748  0.445 -0.492 122.251     -3.27  165.78    1.60 -151.74 -166.04   61.48   33.39  128.28  170.99   79.73   23.13

DOCKED: MODEL      100
DOCKED: USER    Run = 100
DOCKED: USER    DPF = ligand_dock.biased.dpf
DOCKED: USER  
DOCKED: USER    Estimated Free Energy of Binding    =   -8.72 kcal/mol  [=(1)+(2)+(3)-(4)]
DOCKED: USER    Estimated Inhibition Constant, Ki   =  405.21 nM (nanomolar)  [Temperature = 298.15 K]
DOCKED: USER    
DOCKED: USER    (1) Final Intermolecular Energy     =  -12.00 kcal/mol
DOCKED: USER        vdW + Hbond + desolv Energy     =  -12.00 kcal/mol
DOCKED: USER        Electrostatic Energy            =   +0.00 kcal/mol
DOCKED: USER    (2) Final Total Internal Energy     =   -3.34 kcal/mol
DOCKED: USER    (3) Torsional Free Energy           =   +3.28 kcal/mol
DOCKED: USER    (4) Unbound System's Energy  [=(2)] =   -3.34 kcal/mol
DOCKED: USER    
DOCKED: USER    
DOCKED: USER    NEWDPF move ligand.pdbqt
DOCKED: USER    NEWDPF about 0.460000 0.128000 -0.007000
DOCKED: USER    NEWDPF tran0 21.009498 -10.216874 -5.430758
DOCKED: USER    NEWDPF quaternion0 -0.655041 0.389776 -0.431056 0.482894
DOCKED: USER    NEWDPF axisangle0 -0.748038 0.445113 -0.492253 122.250791
DOCKED: USER    NEWDPF quat0 -0.748038 0.445113 -0.492253 122.250791
DOCKED: USER    NEWDPF dihe0 -3.27 165.78 1.60 -151.74 -166.04 61.48 33.39 128.28 170.99 79.73 23.13 
DOCKED: USER  keepresnum = 1 
DOCKED: USER  
DOCKED: REMARK  Name = 
DOCKED: REMARK  11 active torsions:
DOCKED: REMARK  status: ('A' for Active; 'I' for Inactive)
DOCKED: REMARK    1  A    between atoms: C_2  and  C_5
DOCKED: REMARK    2  A    between atoms: N_3  and  O_4
DOCKED: REMARK    3  A    between atoms: C_6  and  C_7
DOCKED: REMARK    4  A    between atoms: C_10  and  C_11
DOCKED: REMARK    5  A    between atoms: C_11  and  N_12
DOCKED: REMARK    6  A    between atoms: N_12  and  C_13
DOCKED: REMARK    7  A    between atoms: N_12  and  C_16
DOCKED: REMARK    8  A    between atoms: C_13  and  C_14
DOCKED: REMARK    9  A    between atoms: C_14  and  O_15
DOCKED: REMARK   10  A    between atoms: C_16  and  C_17
DOCKED: REMARK   11  A    between atoms: C_17  and  C_18
DOCKED: REMARK                            x       y       z     vdW  Elec       q    Type
DOCKED: REMARK                         _______ _______ _______ _____ _____    ______ ____
DOCKED: USER                              x       y       z     vdW  Elec       q    Type
DOCKED: USER                           _______ _______ _______ _____ _____    ______ ____
DOCKED: ROOT
DOCKED: ATOM      1  N   UNL     1      21.858  -9.834  -6.679 -0.26 -0.00    +0.000 N 
DOCKED: ATOM      2  H   UNL     1      21.794  -9.102  -5.971 -0.00 -0.00    +0.000 HD
DOCKED: ENDROOT
DOCKED: BRANCH   1   3
DOCKED: ATOM      3  C   UNL     1      21.184 -11.041  -6.156 -0.39 -0.00    +0.000 C 
DOCKED: BRANCH   3   7
DOCKED: ATOM      4  C   UNL     1      20.255 -10.530  -1.960 -0.46 -0.00    +0.000 A 
DOCKED: ATOM      5  C   UNL     1      21.391  -9.921  -2.518 -0.49 -0.00    +0.000 A 
DOCKED: ATOM      6  C   UNL     1      21.700 -10.091  -3.870 -0.37 -0.00    +0.000 A 
DOCKED: ATOM      7  C   UNL     1      20.872 -10.868  -4.693 -0.45 -0.00    +0.000 A 
DOCKED: ATOM      8  C   UNL     1      19.725 -11.461  -4.147 -0.41 -0.00    +0.000 A 
DOCKED: ATOM      9  C   UNL     1      19.415 -11.294  -2.794 -0.26 -0.00    +0.000 A 
DOCKED: BRANCH   4  11
DOCKED: ATOM     10  C   UNL     1      20.307 -11.173   0.447 -0.67 -0.00    +0.000 C 
DOCKED: ATOM     11  C   UNL     1      19.968 -10.309  -0.520 -0.55 -0.00    +0.000 C 
DOCKED: BRANCH  10  13
DOCKED: ATOM     12  O   UNL     1      19.470  -9.863   2.216 -0.58 -0.00    +0.000 OA
DOCKED: ATOM     13  C   UNL     1      20.017 -10.946   1.879 -0.72 -0.00    +0.000 C 
DOCKED: ATOM     14  N   UNL     1      20.312 -11.925   2.885 -0.72 -0.00    +0.000 N 
DOCKED: ATOM     15  H   UNL     1      20.643 -12.814   2.622 -0.58 -0.00    +0.000 HD
DOCKED: BRANCH  14  16
DOCKED: ATOM     16  O   UNL     1      20.134 -11.629   4.194 -0.79 -0.00    +0.000 OA
DOCKED: ATOM     17  H   UNL     1      19.856 -10.704   4.281 -0.05 -0.00    +0.000 HD
DOCKED: ENDBRANCH  14  16
DOCKED: ENDBRANCH  10  13
DOCKED: ENDBRANCH   4  11
DOCKED: ENDBRANCH   3   7
DOCKED: ENDBRANCH   1   3
DOCKED: BRANCH   1  18
DOCKED: ATOM     18  C   UNL     1      23.310 -10.065  -6.873 -0.27 -0.00    +0.000 C 
DOCKED: BRANCH  18  19
DOCKED: ATOM     19  C   UNL     1      23.601 -11.428  -7.521 -0.47 -0.00    +0.000 C 
DOCKED: BRANCH  19  20
DOCKED: ATOM     20  O   UNL     1      23.609 -12.453  -6.564 -1.14 -0.00    +0.000 OA
DOCKED: ATOM     21  H   UNL     1      22.793 -12.972  -6.639 -0.37 -0.00    +0.000 HD
DOCKED: ENDBRANCH  19  20
DOCKED: ENDBRANCH  18  19
DOCKED: ENDBRANCH   1  18
DOCKED: BRANCH   1  22
DOCKED: ATOM     22  C   UNL     1      21.162  -9.276  -7.863 -0.16 -0.00    +0.000 C 
DOCKED: BRANCH  22  23
DOCKED: ATOM     23  C   UNL     1      20.335  -8.008  -7.569 -0.08 -0.00    +0.000 C 
DOCKED: BRANCH  23  24
DOCKED: ATOM     24  C   UNL     1      19.275  -8.303  -6.552 -0.09 -0.00    +0.000 A 
DOCKED: ATOM     25  C   UNL     1      19.056  -7.620  -5.359 -0.13 -0.00    +0.000 A 
DOCKED: ATOM     26  N   UNL     1      18.065  -8.212  -4.653 -0.16 -0.00    +0.000 N 
DOCKED: ATOM     27  C   UNL     1      17.668  -9.269  -5.382 -0.16 -0.00    +0.000 A 
DOCKED: ATOM     28  C   UNL     1      18.388  -9.361  -6.545 -0.14 -0.00    +0.000 A 
DOCKED: ATOM     29  C   UNL     1      18.181 -10.395  -7.460 -0.25 -0.00    +0.000 A 
DOCKED: ATOM     30  C   UNL     1      17.191 -11.348  -7.157 -0.33 -0.00    +0.000 A 
DOCKED: ATOM     31  C   UNL     1      16.445 -11.251  -5.962 -0.27 -0.00    +0.000 A 
DOCKED: ATOM     32  C   UNL     1      16.683 -10.200  -5.056 -0.21 -0.00    +0.000 A 
DOCKED: ATOM     33  H   UNL     1      17.707  -7.925  -3.782 -0.01 -0.00    +0.000 HD
DOCKED: ENDBRANCH  23  24
DOCKED: ENDBRANCH  22  23
DOCKED: ENDBRANCH   1  22
DOCKED: TORSDOF 11
DOCKED: TER
DOCKED: ENDMDL
________________________________________________________________________________

DPF>                           # do this many hybrid GA-LS runs

DPF> analysis                             # perform a ranked cluster analysis


		CLUSTER ANALYSIS OF CONFORMATIONS
		_________________________________

Number of conformations = 100

RMSD cluster analysis will be performed using the ligand atoms only (33 / 33 total atoms).

Outputting structurally similar clusters, ranked in order of increasing energy.


________________________________________________________________________________

Number of distinct conformational clusters found = 36,  out of 100 runs,
Using an rmsd-tolerance of 2.0 A


	CLUSTERING HISTOGRAM
	____________________

________________________________________________________________________________
     |           |     |           |     |                                    
Clus | Lowest    | Run | Mean      | Num | Histogram                          
-ter | Binding   |     | Binding   | in  |                                    
Rank | Energy    |     | Energy    | Clus|    5    10   15   20   25   30   35
_____|___________|_____|___________|_____|____:____|____:____|____:____|____:___
   1 |    -11.42 |  45 |    -10.77 |   9 |#########
   2 |    -10.79 |  19 |    -10.75 |   2 |##
   3 |    -10.76 |  13 |     -9.88 |   3 |###
   4 |    -10.69 |  24 |     -9.85 |  23 |#######################
   5 |    -10.65 |  91 |    -10.65 |   1 |#
   6 |    -10.49 |  71 |    -10.23 |   2 |##
   7 |    -10.38 |  20 |     -9.94 |   2 |##
   8 |    -10.32 |  27 |    -10.11 |   3 |###
   9 |    -10.29 |  44 |    -10.29 |   1 |#
  10 |    -10.29 |  22 |    -10.07 |   2 |##
  11 |    -10.16 |  81 |     -9.88 |   2 |##
  12 |    -10.03 |  95 |     -9.03 |   6 |######
  13 |     -9.96 |  60 |     -9.96 |   1 |#
  14 |     -9.83 |  83 |     -9.48 |   2 |##
  15 |     -9.76 |  67 |     -9.67 |   2 |##
  16 |     -9.67 |  89 |     -9.67 |   1 |#
  17 |     -9.55 |  98 |     -9.55 |   1 |#
  18 |     -9.52 |  57 |     -9.52 |   1 |#
  19 |     -9.44 |  88 |     -8.84 |   3 |###
  20 |     -9.32 |  63 |     -8.93 |   3 |###
  21 |     -9.24 |   4 |     -9.00 |   2 |##
  22 |     -9.13 |  38 |     -8.80 |   4 |####
  23 |     -9.11 |  35 |     -8.87 |   2 |##
  24 |     -8.99 |  46 |     -8.99 |   1 |#
  25 |     -8.94 |  16 |     -8.94 |   1 |#
  26 |     -8.93 |  80 |     -8.93 |   1 |#
  27 |     -8.93 |  72 |     -7.98 |   6 |######
  28 |     -8.91 |  42 |     -8.66 |   3 |###
  29 |     -8.84 |  66 |     -8.84 |   1 |#
  30 |     -8.57 |   2 |     -8.51 |   2 |##
  31 |     -8.50 |  86 |     -8.34 |   2 |##
  32 |     -8.50 |  65 |     -8.50 |   1 |#
  33 |     -8.45 |  32 |     -8.45 |   1 |#
  34 |     -7.87 |   3 |     -7.87 |   1 |#
  35 |     -7.66 |  59 |     -7.66 |   1 |#
  36 |     -7.35 |  68 |     -7.35 |   1 |#
_____|___________|_____|___________|_____|______________________________________


Number of multi-member conformational clusters found = 21, out of 100 runs.

	RMSD TABLE
	__________

_____________________________________________________________________
     |      |      |           |         |                 |
Rank | Sub- | Run  | Binding   | Cluster | Reference       | Grep
     | Rank |      | Energy    | RMSD    | RMSD            | Pattern
_____|______|______|___________|_________|_________________|___________
   1      1     45      -11.42      0.00     17.48           RANKING
   1      2     25      -11.37      0.76     17.39           RANKING
   1      3     30      -11.15      0.61     17.38           RANKING
   1      4      5      -11.02      1.37     17.71           RANKING
   1      5     58      -10.77      1.56     17.25           RANKING
   1      6     56      -10.66      1.40     17.70           RANKING
   1      7     23      -10.41      1.76     17.41           RANKING
   1      8     69      -10.11      1.36     17.17           RANKING
   1      9     78      -10.00      1.13     17.10           RANKING
   2      1     19      -10.79      0.00     18.54           RANKING
   2      2     26      -10.70      1.56     19.30           RANKING
   3      1     13      -10.76      0.00     15.84           RANKING
   3      2     75      -10.35      1.23     15.89           RANKING
   3      3     84       -8.53      1.89     15.49           RANKING
   4      1     24      -10.69      0.00     21.31           RANKING
   4      2     36      -10.66      1.11     21.03           RANKING
   4      3     18      -10.44      1.16     21.22           RANKING
   4      4     11      -10.31      1.72     21.20           RANKING
   4      5     31      -10.24      1.33     21.28           RANKING
   4      6     33      -10.15      0.74     20.93           RANKING
   4      7     90      -10.15      1.78     21.73           RANKING
   4      8      1      -10.10      1.28     21.21           RANKING
   4      9     53      -10.07      1.95     21.67           RANKING
   4     10     34      -10.03      1.61     20.20           RANKING
   4     11     55      -10.01      1.58     21.35           RANKING
   4     12     10       -9.97      1.73     21.52           RANKING
   4     13      9       -9.94      1.79     21.82           RANKING
   4     14     93       -9.91      1.59     20.15           RANKING
   4     15     99       -9.68      1.61     20.91           RANKING
   4     16     40       -9.52      1.55     20.20           RANKING
   4     17     96       -9.41      1.96     21.57           RANKING
   4     18     61       -9.39      1.76     21.24           RANKING
   4     19     70       -9.34      1.89     19.97           RANKING
   4     20     76       -9.32      1.72     20.40           RANKING
   4     21     52       -9.30      1.70     21.09           RANKING
   4     22     87       -9.04      1.81     20.90           RANKING
   4     23     62       -8.96      1.94     20.17           RANKING
   5      1     91      -10.65      0.00     16.79           RANKING
   6      1     71      -10.49      0.00     13.65           RANKING
   6      2     39       -9.98      1.06     13.34           RANKING
   7      1     20      -10.38      0.00     22.20           RANKING
   7      2     12       -9.50      1.23     22.20           RANKING
   8      1     27      -10.32      0.00     16.14           RANKING
   8      2     21      -10.16      1.71     16.65           RANKING
   8      3     97       -9.85      1.30     16.26           RANKING
   9      1     44      -10.29      0.00     21.71           RANKING
  10      1     22      -10.29      0.00     17.01           RANKING
  10      2      7       -9.85      1.51     17.17           RANKING
  11      1     81      -10.16      0.00     17.34           RANKING
  11      2     73       -9.61      1.39     17.47           RANKING
  12      1     95      -10.03      0.00     18.90           RANKING
  12      2     94       -9.74      1.85     18.05           RANKING
  12      3     64       -9.22      1.37     18.00           RANKING
  12      4    100       -8.72      1.89     18.82           RANKING
  12      5     82       -8.69      1.79     18.93           RANKING
  12      6     15       -7.76      1.64     18.39           RANKING
  13      1     60       -9.96      0.00     15.20           RANKING
  14      1     83       -9.83      0.00     18.86           RANKING
  14      2     17       -9.14      1.12     18.79           RANKING
  15      1     67       -9.76      0.00     18.53           RANKING
  15      2     54       -9.59      1.90     17.98           RANKING
  16      1     89       -9.67      0.00     13.65           RANKING
  17      1     98       -9.55      0.00     16.84           RANKING
  18      1     57       -9.52      0.00     21.41           RANKING
  19      1     88       -9.44      0.00     17.78           RANKING
  19      2     43       -9.10      1.51     17.48           RANKING
  19      3     37       -7.98      1.58     17.74           RANKING
  20      1     63       -9.32      0.00     18.64           RANKING
  20      2     48       -9.29      1.59     18.39           RANKING
  20      3     77       -8.17      1.74     18.21           RANKING
  21      1      4       -9.24      0.00     14.19           RANKING
  21      2     29       -8.75      1.70     13.78           RANKING
  22      1     38       -9.13      0.00     20.48           RANKING
  22      2     79       -8.84      1.90     20.43           RANKING
  22      3     49       -8.82      1.40     20.35           RANKING
  22      4      8       -8.42      1.70     20.52           RANKING
  23      1     35       -9.11      0.00     15.21           RANKING
  23      2     74       -8.63      0.86     14.77           RANKING
  24      1     46       -8.99      0.00     15.50           RANKING
  25      1     16       -8.94      0.00     23.08           RANKING
  26      1     80       -8.93      0.00     18.30           RANKING
  27      1     72       -8.93      0.00     17.99           RANKING
  27      2     92       -8.61      1.40     18.18           RANKING
  27      3     50       -8.52      1.47     18.21           RANKING
  27      4     14       -7.48      1.86     18.45           RANKING
  27      5     85       -7.24      1.54     17.59           RANKING
  27      6     47       -7.07      1.69     18.07           RANKING
  28      1     42       -8.91      0.00     17.03           RANKING
  28      2      6       -8.72      1.19     16.51           RANKING
  28      3     51       -8.36      1.77     17.20           RANKING
  29      1     66       -8.84      0.00     14.34           RANKING
  30      1      2       -8.57      0.00     16.11           RANKING
  30      2     41       -8.45      1.78     15.99           RANKING
  31      1     86       -8.50      0.00     21.26           RANKING
  31      2     28       -8.17      2.00     21.50           RANKING
  32      1     65       -8.50      0.00     17.85           RANKING
  33      1     32       -8.45      0.00     19.36           RANKING
  34      1      3       -7.87      0.00     15.96           RANKING
  35      1     59       -7.66      0.00     13.56           RANKING
  36      1     68       -7.35      0.00     22.35           RANKING
_______________________________________________________________________



	INFORMATION ENTROPY ANALYSIS FOR THIS CLUSTERING
	________________________________________________


Information entropy for this clustering = 0.67  (rmstol = 2.00 Angstrom)

_______________________________________________________________________


	STATISTICAL MECHANICAL ANALYSIS
	_______________________________


Partition function, Q =   101.61            at Temperature, T = 298.15 K
Free energy,        A ~ -2737.92 kcal/mol   at Temperature, T = 298.15 K
Internal energy,    U =    -9.45 kcal/mol   at Temperature, T = 298.15 K
Entropy,            S =     9.15 kcal/mol/K at Temperature, T = 298.15 K

_______________________________________________________________________


	LOWEST ENERGY DOCKED CONFORMATION from EACH CLUSTER
	___________________________________________________



Keeping original residue number (specified in the input PDBQ file) for outputting.

MODEL       45
USER    Run = 45
USER    Cluster Rank = 1
USER    Number of conformations in this cluster = 9
USER  
USER    RMSD from reference structure       = 17.478 A
USER  
USER    Estimated Free Energy of Binding    =  -11.42 kcal/mol  [=(1)+(2)+(3)-(4)]
USER    Estimated Inhibition Constant, Ki   =    4.28 nM (nanomolar)  [Temperature = 298.15 K]
USER    
USER    (1) Final Intermolecular Energy     =  -14.70 kcal/mol
USER        vdW + Hbond + desolv Energy     =  -14.70 kcal/mol
USER        Electrostatic Energy            =   +0.00 kcal/mol
USER    (2) Final Total Internal Energy     =   -2.04 kcal/mol
USER    (3) Torsional Free Energy           =   +3.28 kcal/mol
USER    (4) Unbound System's Energy  [=(2)] =   -2.04 kcal/mol
USER    
USER    
USER  
USER    DPF = ligand_dock.biased.dpf
USER    NEWDPF move	ligand.pdbqt
USER    NEWDPF about	0.460000 0.128000 -0.007000
USER    NEWDPF tran0	18.779854 -10.443368 -0.853216
USER    NEWDPF axisangle0	-0.203604 0.629389 -0.749943 159.920756
USER    NEWDPF quaternion0	-0.200486 0.619752 -0.738460 0.174329
USER    NEWDPF dihe0	116.14 -75.52 -45.03 -171.20 -93.15 -122.13 -154.19 97.92 137.46 -154.26 1.23 
USER  
USER                              x       y       z    vdW   Elec        q     RMS 
ATOM      1  N   UNL     1      20.212 -10.230  -0.281 -0.55 -0.00    +0.000    17.478
ATOM      2  H   UNL     1      19.599  -9.418  -0.198 -0.02 -0.00    +0.000    17.478
ATOM      3  C   UNL     1      19.421 -11.351  -0.832 -0.41 -0.00    +0.000    17.478
ATOM      4  C   UNL     1      15.315 -11.114   0.515 -0.31 +0.00    +0.000    17.478
ATOM      5  C   UNL     1      15.692 -10.565  -0.722 -0.27 -0.00    +0.000    17.478
ATOM      6  C   UNL     1      17.019 -10.632  -1.157 -0.26 -0.00    +0.000    17.478
ATOM      7  C   UNL     1      17.993 -11.256  -0.365 -0.39 -0.00    +0.000    17.478
ATOM      8  C   UNL     1      17.619 -11.824   0.861 -0.46 +0.00    +0.000    17.478
ATOM      9  C   UNL     1      16.293 -11.758   1.299 -0.40 +0.00    +0.000    17.478
ATOM     10  C   UNL     1      12.931 -11.837   0.459 -0.39 +0.00    +0.000    17.478
ATOM     11  C   UNL     1      13.891 -11.025   0.925 -0.36 +0.00    +0.000    17.478
ATOM     12  O   UNL     1      10.842 -10.751   0.487 -0.30 +0.00    +0.000    17.478
ATOM     13  C   UNL     1      11.515 -11.743   0.872 -0.41 +0.00    +0.000    17.478
ATOM     14  N   UNL     1      10.881 -12.753   1.668 -0.42 +0.00    +0.000    17.478
ATOM     15  H   UNL     1      11.365 -13.581   1.888 -0.63 +0.00    +0.000    17.478
ATOM     16  O   UNL     1       9.616 -12.570   2.118 -0.46 +0.00    +0.000    17.478
ATOM     17  H   UNL     1       9.034 -13.239   1.724 -0.58 -0.00    +0.000    17.478
ATOM     18  C   UNL     1      20.671 -10.517   1.099 -0.66 -0.00    +0.000    17.478
ATOM     19  C   UNL     1      20.742 -12.026   1.388 -0.67 -0.00    +0.000    17.478
ATOM     20  O   UNL     1      20.071 -12.346   2.577 -1.42 -0.00    +0.000    17.478
ATOM     21  H   UNL     1      20.605 -12.970   3.092 -0.56 -0.00    +0.000    17.478
ATOM     22  C   UNL     1      21.286  -9.798  -1.207 -0.65 -0.00    +0.000    17.478
ATOM     23  C   UNL     1      20.777  -9.077  -2.472 -0.49 -0.00    +0.000    17.478
ATOM     24  C   UNL     1      20.535 -10.066  -3.571 -0.42 -0.00    +0.000    17.478
ATOM     25  C   UNL     1      21.482 -10.897  -4.165 -0.46 -0.00    +0.000    17.478
ATOM     26  N   UNL     1      20.923 -11.600  -5.177 -0.51 -0.00    +0.000    17.478
ATOM     27  C   UNL     1      19.638 -11.210  -5.235 -0.42 -0.00    +0.000    17.478
ATOM     28  C   UNL     1      19.365 -10.270  -4.275 -0.32 -0.00    +0.000    17.478
ATOM     29  C   UNL     1      18.102  -9.689  -4.152 -0.23 -0.00    +0.000    17.478
ATOM     30  C   UNL     1      17.099 -10.107  -5.045 -0.21 -0.00    +0.000    17.478
ATOM     31  C   UNL     1      17.377 -11.078  -6.032 -0.30 -0.00    +0.000    17.478
ATOM     32  C   UNL     1      18.664 -11.641  -6.135 -0.25 -0.00    +0.000    17.478
ATOM     33  H   UNL     1      21.368 -12.263  -5.752 -0.52 -0.00    +0.000    17.478
TER
ENDMDL
MODEL       19
USER    Run = 19
USER    Cluster Rank = 2
USER    Number of conformations in this cluster = 2
USER  
USER    RMSD from reference structure       = 18.537 A
USER  
USER    Estimated Free Energy of Binding    =  -10.79 kcal/mol  [=(1)+(2)+(3)-(4)]
USER    Estimated Inhibition Constant, Ki   =   12.24 nM (nanomolar)  [Temperature = 298.15 K]
USER    
USER    (1) Final Intermolecular Energy     =  -14.08 kcal/mol
USER        vdW + Hbond + desolv Energy     =  -14.08 kcal/mol
USER        Electrostatic Energy            =   +0.00 kcal/mol
USER    (2) Final Total Internal Energy     =   -2.10 kcal/mol
USER    (3) Torsional Free Energy           =   +3.28 kcal/mol
USER    (4) Unbound System's Energy  [=(2)] =   -2.10 kcal/mol
USER    
USER    
USER  
USER    DPF = ligand_dock.biased.dpf
USER    NEWDPF move	ligand.pdbqt
USER    NEWDPF about	0.460000 0.128000 -0.007000
USER    NEWDPF tran0	19.743856 -11.300957 -0.850876
USER    NEWDPF axisangle0	-0.887514 0.385175 0.252902 -67.592753
USER    NEWDPF quaternion0	-0.493673 0.214251 0.140675 -0.831020
USER    NEWDPF dihe0	19.89 128.33 -155.13 -138.73 168.56 -151.91 -169.27 39.30 70.25 7.49 33.36 
USER  
USER                              x       y       z    vdW   Elec        q     RMS 
ATOM      1  N   UNL     1      19.484 -11.919   0.555 -0.58 -0.00    +0.000    18.537
ATOM      2  H   UNL     1      19.758 -12.594  -0.159 -0.22 -0.00    +0.000    18.537
ATOM      3  C   UNL     1      19.557 -10.566  -0.038 -0.54 -0.00    +0.000    18.537
ATOM      4  C   UNL     1      20.860 -10.847  -4.156 -0.46 -0.00    +0.000    18.537
ATOM      5  C   UNL     1      21.749 -10.423  -3.154 -0.36 -0.00    +0.000    18.537
ATOM      6  C   UNL     1      21.330 -10.322  -1.825 -0.53 -0.00    +0.000    18.537
ATOM      7  C   UNL     1      20.014 -10.652  -1.470 -0.44 -0.00    +0.000    18.537
ATOM      8  C   UNL     1      19.128 -11.096  -2.462 -0.32 -0.00    +0.000    18.537
ATOM      9  C   UNL     1      19.544 -11.197  -3.792 -0.40 -0.00    +0.000    18.537
ATOM     10  C   UNL     1      22.495 -11.571  -5.891 -0.46 -0.00    +0.000    18.537
ATOM     11  C   UNL     1      21.359 -10.947  -5.550 -0.49 -0.00    +0.000    18.537
ATOM     12  O   UNL     1      22.142 -11.652  -8.218 -0.36 -0.00    +0.000    18.537
ATOM     13  C   UNL     1      22.985 -11.667  -7.282 -0.50 -0.00    +0.000    18.537
ATOM     14  N   UNL     1      24.381 -11.748  -7.599 -0.47 -0.00    +0.000    18.537
ATOM     15  H   UNL     1      25.052 -11.658  -6.885 -0.02 +0.00    +0.000    18.537
ATOM     16  O   UNL     1      24.778 -11.949  -8.879 -0.45 -0.00    +0.000    18.537
ATOM     17  H   UNL     1      24.057 -11.708  -9.481 +0.00 -0.00    +0.000    18.537
ATOM     18  C   UNL     1      20.470 -12.084   1.650 -0.71 -0.00    +0.000    18.537
ATOM     19  C   UNL     1      20.303 -11.023   2.749 -0.74 -0.00    +0.000    18.537
ATOM     20  O   UNL     1      20.034 -11.617   3.991 -0.83 -0.00    +0.000    18.537
ATOM     21  H   UNL     1      20.814 -12.108   4.291 -0.49 -0.00    +0.000    18.537
ATOM     22  C   UNL     1      18.096 -12.294   0.916 -0.57 -0.00    +0.000    18.537
ATOM     23  C   UNL     1      17.036 -11.244   0.527 -0.43 +0.00    +0.000    18.537
ATOM     24  C   UNL     1      15.895 -11.274   1.496 -0.37 +0.00    +0.000    18.537
ATOM     25  C   UNL     1      14.874 -12.220   1.550 -0.40 +0.00    +0.000    18.537
ATOM     26  N   UNL     1      13.973 -11.888   2.502 -0.45 +0.00    +0.000    18.537
ATOM     27  C   UNL     1      14.407 -10.734   3.039 -0.38 +0.00    +0.000    18.537
ATOM     28  C   UNL     1      15.574 -10.325   2.447 -0.36 +0.00    +0.000    18.537
ATOM     29  C   UNL     1      16.208  -9.137   2.812 -0.33 +0.00    +0.000    18.537
ATOM     30  C   UNL     1      15.615  -8.364   3.828 -0.31 +0.00    +0.000    18.537
ATOM     31  C   UNL     1      14.416  -8.787   4.443 -0.36 +0.00    +0.000    18.537
ATOM     32  C   UNL     1      13.797  -9.988   4.046 -0.29 +0.00    +0.000    18.537
ATOM     33  H   UNL     1      13.164 -12.389   2.751 -0.44 +0.00    +0.000    18.537
TER
ENDMDL
MODEL       13
USER    Run = 13
USER    Cluster Rank = 3
USER    Number of conformations in this cluster = 3
USER  
USER    RMSD from reference structure       = 15.840 A
USER  
USER    Estimated Free Energy of Binding    =  -10.76 kcal/mol  [=(1)+(2)+(3)-(4)]
USER    Estimated Inhibition Constant, Ki   =   12.95 nM (nanomolar)  [Temperature = 298.15 K]
USER    
USER    (1) Final Intermolecular Energy     =  -14.04 kcal/mol
USER        vdW + Hbond + desolv Energy     =  -14.04 kcal/mol
USER        Electrostatic Energy            =   +0.00 kcal/mol
USER    (2) Final Total Internal Energy     =   -2.61 kcal/mol
USER    (3) Torsional Free Energy           =   +3.28 kcal/mol
USER    (4) Unbound System's Energy  [=(2)] =   -2.61 kcal/mol
USER    
USER    
USER  
USER    DPF = ligand_dock.biased.dpf
USER    NEWDPF move	ligand.pdbqt
USER    NEWDPF about	0.460000 0.128000 -0.007000
USER    NEWDPF tran0	14.834519 -13.439367 1.071677
USER    NEWDPF axisangle0	0.197359 -0.481617 -0.853870 -145.902378
USER    NEWDPF quaternion0	0.188686 -0.460453 -0.816347 -0.293186
USER    NEWDPF dihe0	4.54 178.20 4.90 -67.29 17.35 -159.59 36.28 16.14 138.73 -165.72 -160.94 
USER  
USER                              x       y       z    vdW   Elec        q     RMS 
ATOM      1  N   UNL     1      15.168 -12.332   0.029 -0.47 +0.00    +0.000    15.840
ATOM      2  H   UNL     1      15.246 -13.285  -0.328 -0.04 +0.00    +0.000    15.840
ATOM      3  C   UNL     1      14.644 -12.398   1.410 -0.43 +0.00    +0.000    15.840
ATOM      4  C   UNL     1      15.220  -8.616   3.434 -0.33 +0.00    +0.000    15.840
ATOM      5  C   UNL     1      14.112  -8.813   2.592 -0.23 +0.00    +0.000    15.840
ATOM      6  C   UNL     1      13.927 -10.029   1.930 -0.24 +0.00    +0.000    15.840
ATOM      7  C   UNL     1      14.844 -11.076   2.104 -0.39 +0.00    +0.000    15.840
ATOM      8  C   UNL     1      15.940 -10.893   2.958 -0.45 +0.00    +0.000    15.840
ATOM      9  C   UNL     1      16.128  -9.677   3.621 -0.36 +0.00    +0.000    15.840
ATOM     10  C   UNL     1      14.341  -6.644   4.677 -0.39 +0.00    +0.000    15.840
ATOM     11  C   UNL     1      15.364  -7.308   4.122 -0.40 +0.00    +0.000    15.840
ATOM     12  O   UNL     1      13.469  -4.804   5.860 -0.81 +0.00    +0.000    15.840
ATOM     13  C   UNL     1      14.492  -5.342   5.361 -0.47 +0.00    +0.000    15.840
ATOM     14  N   UNL     1      15.763  -4.691   5.499 -0.51 +0.00    +0.000    15.840
ATOM     15  H   UNL     1      16.583  -5.149   5.205 -0.62 -0.00    +0.000    15.840
ATOM     16  O   UNL     1      15.836  -3.448   6.032 -0.64 +0.00    +0.000    15.840
ATOM     17  H   UNL     1      14.956  -3.173   6.332 -0.25 +0.00    +0.000    15.840
ATOM     18  C   UNL     1      14.216 -11.650  -0.880 -0.41 +0.00    +0.000    15.840
ATOM     19  C   UNL     1      14.879 -10.509  -1.669 -0.30 -0.00    +0.000    15.840
ATOM     20  O   UNL     1      15.000  -9.353  -0.884 -0.27 -0.00    +0.000    15.840
ATOM     21  H   UNL     1      15.938  -9.135  -0.772 -0.02 -0.00    +0.000    15.840
ATOM     22  C   UNL     1      16.550 -11.798  -0.017 -0.45 +0.00    +0.000    15.840
ATOM     23  C   UNL     1      17.620 -12.767   0.524 -0.48 +0.00    +0.000    15.840
ATOM     24  C   UNL     1      18.948 -12.079   0.613 -0.52 -0.00    +0.000    15.840
ATOM     25  C   UNL     1      19.791 -12.038   1.721 -0.67 -0.00    +0.000    15.840
ATOM     26  N   UNL     1      20.867 -11.259   1.465 -0.66 -0.00    +0.000    15.840
ATOM     27  C   UNL     1      20.703 -10.797   0.214 -0.62 -0.00    +0.000    15.840
ATOM     28  C   UNL     1      19.540 -11.270  -0.337 -0.48 -0.00    +0.000    15.840
ATOM     29  C   UNL     1      19.133 -10.909  -1.622 -0.40 -0.00    +0.000    15.840
ATOM     30  C   UNL     1      19.965 -10.041  -2.353 -0.41 -0.00    +0.000    15.840
ATOM     31  C   UNL     1      21.166  -9.557  -1.788 -0.53 -0.00    +0.000    15.840
ATOM     32  C   UNL     1      21.546  -9.935  -0.486 -0.59 -0.00    +0.000    15.840
ATOM     33  H   UNL     1      21.617 -11.070   2.073 -0.22 -0.00    +0.000    15.840
TER
ENDMDL
MODEL       24
USER    Run = 24
USER    Cluster Rank = 4
USER    Number of conformations in this cluster = 23
USER  
USER    RMSD from reference structure       = 21.307 A
USER  
USER    Estimated Free Energy of Binding    =  -10.69 kcal/mol  [=(1)+(2)+(3)-(4)]
USER    Estimated Inhibition Constant, Ki   =   14.52 nM (nanomolar)  [Temperature = 298.15 K]
USER    
USER    (1) Final Intermolecular Energy     =  -13.97 kcal/mol
USER        vdW + Hbond + desolv Energy     =  -13.97 kcal/mol
USER        Electrostatic Energy            =   +0.00 kcal/mol
USER    (2) Final Total Internal Energy     =   -2.56 kcal/mol
USER    (3) Torsional Free Energy           =   +3.28 kcal/mol
USER    (4) Unbound System's Energy  [=(2)] =   -2.56 kcal/mol
USER    
USER    
USER  
USER    DPF = ligand_dock.biased.dpf
USER    NEWDPF move	ligand.pdbqt
USER    NEWDPF about	0.460000 0.128000 -0.007000
USER    NEWDPF tran0	21.358593 -9.035561 -4.954027
USER    NEWDPF axisangle0	0.042597 -0.776678 -0.628456 -147.480029
USER    NEWDPF quaternion0	0.040893 -0.745612 -0.603318 -0.279996
USER    NEWDPF dihe0	31.97 -17.99 79.08 53.40 118.84 43.72 5.56 57.52 -74.50 100.92 50.61 
USER  
USER                              x       y       z    vdW   Elec        q     RMS 
ATOM      1  N   UNL     1      21.803  -9.005  -6.446 -0.21 -0.00    +0.000    21.307
ATOM      2  H   UNL     1      21.738  -9.941  -6.044 -0.00 -0.00    +0.000    21.307
ATOM      3  C   UNL     1      21.324  -8.035  -5.438 -0.23 -0.00    +0.000    21.307
ATOM      4  C   UNL     1      21.287  -9.849  -1.508 -0.56 -0.00    +0.000    21.307
ATOM      5  C   UNL     1      21.496 -10.634  -2.654 -0.39 -0.00    +0.000    21.307
ATOM      6  C   UNL     1      21.500 -10.054  -3.926 -0.41 -0.00    +0.000    21.307
ATOM      7  C   UNL     1      21.302  -8.674  -4.074 -0.33 -0.00    +0.000    21.307
ATOM      8  C   UNL     1      21.115  -7.881  -2.933 -0.38 -0.00    +0.000    21.307
ATOM      9  C   UNL     1      21.109  -8.459  -1.661 -0.45 -0.00    +0.000    21.307
ATOM     10  C   UNL     1      20.235 -10.588   0.626 -0.66 -0.00    +0.000    21.307
ATOM     11  C   UNL     1      21.303 -10.513  -0.181 -0.71 -0.00    +0.000    21.307
ATOM     12  O   UNL     1      20.204 -12.509   1.987 -1.58 -0.00    +0.000    21.307
ATOM     13  C   UNL     1      20.258 -11.252   1.946 -0.76 -0.00    +0.000    21.307
ATOM     14  N   UNL     1      20.367 -10.515   3.172 -0.68 -0.00    +0.000    21.307
ATOM     15  H   UNL     1      20.514  -9.543   3.149 -0.58 -0.00    +0.000    21.307
ATOM     16  O   UNL     1      20.270 -11.156   4.362 -0.75 -0.00    +0.000    21.307
ATOM     17  H   UNL     1      20.625 -12.055   4.274 -0.48 -0.00    +0.000    21.307
ATOM     18  C   UNL     1      20.922  -9.028  -7.638 -0.14 -0.00    +0.000    21.307
ATOM     19  C   UNL     1      20.146 -10.348  -7.764 -0.26 -0.00    +0.000    21.307
ATOM     20  O   UNL     1      20.547 -11.268  -6.785 -0.29 -0.00    +0.000    21.307
ATOM     21  H   UNL     1      21.385 -11.679  -7.050 -0.47 -0.00    +0.000    21.307
ATOM     22  C   UNL     1      23.243  -8.826  -6.750 -0.23 -0.00    +0.000    21.307
ATOM     23  C   UNL     1      23.603  -9.017  -8.237 -0.17 -0.00    +0.000    21.307
ATOM     24  C   UNL     1      24.773  -9.944  -8.373 -0.24 -0.00    +0.000    21.307
ATOM     25  C   UNL     1      24.726 -11.305  -8.665 -0.35 -0.00    +0.000    21.307
ATOM     26  N   UNL     1      25.969 -11.837  -8.631 -0.39 -0.00    +0.000    21.307
ATOM     27  C   UNL     1      26.797 -10.829  -8.306 -0.34 -0.00    +0.000    21.307
ATOM     28  C   UNL     1      26.103  -9.659  -8.134 -0.29 -0.00    +0.000    21.307
ATOM     29  C   UNL     1      26.738  -8.473  -7.764 -0.23 -0.00    +0.000    21.307
ATOM     30  C   UNL     1      28.133  -8.507  -7.580 -0.27 -0.00    +0.000    21.307
ATOM     31  C   UNL     1      28.850  -9.711  -7.761 -0.42 -0.00    +0.000    21.307
ATOM     32  C   UNL     1      28.178 -10.893  -8.128 -0.28 -0.00    +0.000    21.307
ATOM     33  H   UNL     1      26.216 -12.773  -8.808 -0.44 -0.00    +0.000    21.307
TER
ENDMDL
MODEL       91
USER    Run = 91
USER    Cluster Rank = 5
USER    Number of conformations in this cluster = 1
USER  
USER    RMSD from reference structure       = 16.787 A
USER  
USER    Estimated Free Energy of Binding    =  -10.65 kcal/mol  [=(1)+(2)+(3)-(4)]
USER    Estimated Inhibition Constant, Ki   =   15.52 nM (nanomolar)  [Temperature = 298.15 K]
USER    
USER    (1) Final Intermolecular Energy     =  -13.93 kcal/mol
USER        vdW + Hbond + desolv Energy     =  -13.93 kcal/mol
USER        Electrostatic Energy            =   +0.00 kcal/mol
USER    (2) Final Total Internal Energy     =   -1.47 kcal/mol
USER    (3) Torsional Free Energy           =   +3.28 kcal/mol
USER    (4) Unbound System's Energy  [=(2)] =   -1.47 kcal/mol
USER    
USER    
USER  
USER    DPF = ligand_dock.biased.dpf
USER    NEWDPF move	ligand.pdbqt
USER    NEWDPF about	0.460000 0.128000 -0.007000
USER    NEWDPF tran0	17.954109 -10.507653 1.086188
USER    NEWDPF axisangle0	-0.281581 -0.592941 0.754409 68.090718
USER    NEWDPF quaternion0	-0.157643 -0.331958 0.422355 0.828595
USER    NEWDPF dihe0	-136.25 20.15 171.86 57.58 115.43 165.85 130.80 -24.84 -59.76 107.03 25.36 
USER  
USER                              x       y       z    vdW   Elec        q     RMS 
ATOM      1  N   UNL     1      16.553 -10.685   1.742 -0.36 +0.00    +0.000    16.787
ATOM      2  H   UNL     1      16.530 -10.515   0.737 -0.00 +0.00    +0.000    16.787
ATOM      3  C   UNL     1      17.968 -10.806   2.157 -0.53 -0.00    +0.000    16.787
ATOM      4  C   UNL     1      20.551 -10.887  -1.315 -0.40 -0.00    +0.000    16.787
ATOM      5  C   UNL     1      19.155 -10.866  -1.465 -0.40 -0.00    +0.000    16.787
ATOM      6  C   UNL     1      18.317 -10.849  -0.347 -0.37 -0.00    +0.000    16.787
ATOM      7  C   UNL     1      18.861 -10.844   0.945 -0.48 -0.00    +0.000    16.787
ATOM      8  C   UNL     1      20.254 -10.843   1.103 -0.62 -0.00    +0.000    16.787
ATOM      9  C   UNL     1      21.094 -10.861  -0.014 -0.59 -0.00    +0.000    16.787
ATOM     10  C   UNL     1      20.911 -10.750  -3.776 -0.51 -0.00    +0.000    16.787
ATOM     11  C   UNL     1      21.396 -10.894  -2.535 -0.36 -0.00    +0.000    16.787
ATOM     12  O   UNL     1      22.358  -9.697  -5.306 -0.36 -0.00    +0.000    16.787
ATOM     13  C   UNL     1      21.759 -10.757  -4.987 -0.50 -0.00    +0.000    16.787
ATOM     14  N   UNL     1      21.941 -11.933  -5.788 -0.51 -0.00    +0.000    16.787
ATOM     15  H   UNL     1      21.562 -12.792  -5.492 -0.52 -0.00    +0.000    16.787
ATOM     16  O   UNL     1      22.634 -11.864  -6.950 -0.53 -0.00    +0.000    16.787
ATOM     17  H   UNL     1      22.165 -12.365  -7.635 -0.60 -0.00    +0.000    16.787
ATOM     18  C   UNL     1      15.819 -11.957   1.943 -0.45 +0.00    +0.000    16.787
ATOM     19  C   UNL     1      15.510 -12.668   0.615 -0.45 +0.00    +0.000    16.787
ATOM     20  O   UNL     1      16.569 -13.500   0.227 -1.23 +0.00    +0.000    16.787
ATOM     21  H   UNL     1      17.412 -13.057   0.406 -0.06 +0.00    +0.000    16.787
ATOM     22  C   UNL     1      15.898  -9.497   2.341 -0.38 +0.00    +0.000    16.787
ATOM     23  C   UNL     1      14.589  -9.810   3.092 -0.38 +0.00    +0.000    16.787
ATOM     24  C   UNL     1      14.425  -8.884   4.258 -0.35 +0.00    +0.000    16.787
ATOM     25  C   UNL     1      14.012  -9.229   5.543 -0.44 +0.00    +0.000    16.787
ATOM     26  N   UNL     1      13.902  -8.124   6.315 -0.50 +0.00    +0.000    16.787
ATOM     27  C   UNL     1      14.228  -7.085   5.527 -0.42 +0.00    +0.000    16.787
ATOM     28  C   UNL     1      14.547  -7.509   4.263 -0.33 +0.00    +0.000    16.787
ATOM     29  C   UNL     1      14.893  -6.612   3.251 -0.24 +0.00    +0.000    16.787
ATOM     30  C   UNL     1      14.917  -5.241   3.571 -0.29 +0.00    +0.000    16.787
ATOM     31  C   UNL     1      14.594  -4.805   4.874 -0.38 +0.00    +0.000    16.787
ATOM     32  C   UNL     1      14.242  -5.734   5.871 -0.38 +0.00    +0.000    16.787
ATOM     33  H   UNL     1      13.638  -8.089   7.262 -0.04 +0.00    +0.000    16.787
TER
ENDMDL
MODEL       71
USER    Run = 71
USER    Cluster Rank = 6
USER    Number of conformations in this cluster = 2
USER  
USER    RMSD from reference structure       = 13.650 A
USER  
USER    Estimated Free Energy of Binding    =  -10.49 kcal/mol  [=(1)+(2)+(3)-(4)]
USER    Estimated Inhibition Constant, Ki   =   20.60 nM (nanomolar)  [Temperature = 298.15 K]
USER    
USER    (1) Final Intermolecular Energy     =  -13.77 kcal/mol
USER        vdW + Hbond + desolv Energy     =  -13.77 kcal/mol
USER        Electrostatic Energy            =   +0.00 kcal/mol
USER    (2) Final Total Internal Energy     =   -2.52 kcal/mol
USER    (3) Torsional Free Energy           =   +3.28 kcal/mol
USER    (4) Unbound System's Energy  [=(2)] =   -2.52 kcal/mol
USER    
USER    
USER  
USER    DPF = ligand_dock.biased.dpf
USER    NEWDPF move	ligand.pdbqt
USER    NEWDPF about	0.460000 0.128000 -0.007000
USER    NEWDPF tran0	13.760719 -8.806830 5.131232
USER    NEWDPF axisangle0	0.968957 -0.209323 -0.131554 -157.568316
USER    NEWDPF quaternion0	0.950451 -0.205326 -0.129042 -0.194506
USER    NEWDPF dihe0	-19.87 -114.58 119.19 26.17 144.73 -106.02 20.37 -13.44 5.79 28.96 -27.42 
USER  
USER                              x       y       z    vdW   Elec        q     RMS 
ATOM      1  N   UNL     1      13.362  -7.346   4.768 -0.28 +0.00    +0.000    13.650
ATOM      2  H   UNL     1      14.108  -7.420   5.460 -0.02 +0.00    +0.000    13.650
ATOM      3  C   UNL     1      13.032  -8.709   4.297 -0.31 +0.00    +0.000    13.650
ATOM      4  C   UNL     1      16.515 -10.506   2.460 -0.40 +0.00    +0.000    13.650
ATOM      5  C   UNL     1      15.696  -9.629   1.730 -0.29 +0.00    +0.000    13.650
ATOM      6  C   UNL     1      14.565  -9.053   2.316 -0.25 +0.00    +0.000    13.650
ATOM      7  C   UNL     1      14.237  -9.339   3.649 -0.31 +0.00    +0.000    13.650
ATOM      8  C   UNL     1      15.061 -10.197   4.390 -0.43 +0.00    +0.000    13.650
ATOM      9  C   UNL     1      16.192 -10.775   3.805 -0.45 +0.00    +0.000    13.650
ATOM     10  C   UNL     1      18.939 -10.558   1.889 -0.59 -0.00    +0.000    13.650
ATOM     11  C   UNL     1      17.709 -11.082   1.794 -0.50 -0.00    +0.000    13.650
ATOM     12  O   UNL     1      20.373 -12.360   1.396 -1.55 -0.00    +0.000    13.650
ATOM     13  C   UNL     1      20.124 -11.137   1.222 -0.71 -0.00    +0.000    13.650
ATOM     14  N   UNL     1      20.978 -10.364   0.368 -0.65 -0.00    +0.000    13.650
ATOM     15  H   UNL     1      20.737  -9.437   0.143 -0.07 -0.00    +0.000    13.650
ATOM     16  O   UNL     1      22.115 -10.907  -0.130 -0.70 -0.00    +0.000    13.650
ATOM     17  H   UNL     1      22.370 -11.671   0.410 -0.53 -0.00    +0.000    13.650
ATOM     18  C   UNL     1      13.923  -6.516   3.674 -0.26 +0.00    +0.000    13.650
ATOM     19  C   UNL     1      15.103  -5.652   4.145 -0.39 +0.00    +0.000    13.650
ATOM     20  O   UNL     1      15.864  -6.318   5.117 -0.57 +0.00    +0.000    13.650
ATOM     21  H   UNL     1      16.556  -5.726   5.449 -0.64 -0.00    +0.000    13.650
ATOM     22  C   UNL     1      12.233  -6.720   5.496 -0.25 +0.00    +0.000    13.650
ATOM     23  C   UNL     1      10.955  -6.545   4.650 -0.18 +0.00    +0.000    13.650
ATOM     24  C   UNL     1       9.756  -6.421   5.540 -0.21 +0.00    +0.000    13.650
ATOM     25  C   UNL     1       8.956  -5.293   5.705 -0.28 +0.00    +0.000    13.650
ATOM     26  N   UNL     1       8.012  -5.519   6.646 -0.36 +0.00    +0.000    13.650
ATOM     27  C   UNL     1       8.217  -6.773   7.086 -0.39 +0.00    +0.000    13.650
ATOM     28  C   UNL     1       9.277  -7.353   6.439 -0.27 +0.00    +0.000    13.650
ATOM     29  C   UNL     1       9.707  -8.646   6.741 -0.33 +0.00    +0.000    13.650
ATOM     30  C   UNL     1       9.005  -9.353   7.736 -0.53 +0.00    +0.000    13.650
ATOM     31  C   UNL     1       7.910  -8.758   8.400 -0.49 +0.00    +0.000    13.650
ATOM     32  C   UNL     1       7.506  -7.449   8.076 -0.54 +0.00    +0.000    13.650
ATOM     33  H   UNL     1       7.315  -4.893   6.947 -0.02 +0.00    +0.000    13.650
TER
ENDMDL
MODEL       20
USER    Run = 20
USER    Cluster Rank = 7
USER    Number of conformations in this cluster = 2
USER  
USER    RMSD from reference structure       = 22.197 A
USER  
USER    Estimated Free Energy of Binding    =  -10.38 kcal/mol  [=(1)+(2)+(3)-(4)]
USER    Estimated Inhibition Constant, Ki   =   24.60 nM (nanomolar)  [Temperature = 298.15 K]
USER    
USER    (1) Final Intermolecular Energy     =  -13.66 kcal/mol
USER        vdW + Hbond + desolv Energy     =  -13.66 kcal/mol
USER        Electrostatic Energy            =   +0.00 kcal/mol
USER    (2) Final Total Internal Energy     =   -1.74 kcal/mol
USER    (3) Torsional Free Energy           =   +3.28 kcal/mol
USER    (4) Unbound System's Energy  [=(2)] =   -1.74 kcal/mol
USER    
USER    
USER  
USER    DPF = ligand_dock.biased.dpf
USER    NEWDPF move	ligand.pdbqt
USER    NEWDPF about	0.460000 0.128000 -0.007000
USER    NEWDPF tran0	22.713769 -9.073799 -6.168472
USER    NEWDPF axisangle0	-0.523251 0.842901 -0.125408 123.489328
USER    NEWDPF quaternion0	-0.460904 0.742466 -0.110466 0.473402
USER    NEWDPF dihe0	-110.03 -148.64 -11.34 165.65 158.61 179.92 162.19 -126.23 -142.08 13.54 22.53 
USER  
USER                              x       y       z    vdW   Elec        q     RMS 
ATOM      1  N   UNL     1      23.820  -9.212  -7.255 -0.24 -0.00    +0.000    22.197
ATOM      2  H   UNL     1      24.170  -8.988  -6.323 -0.02 -0.00    +0.000    22.197
ATOM      3  C   UNL     1      22.360  -9.429  -7.161 -0.25 -0.00    +0.000    22.197
ATOM      4  C   UNL     1      21.187  -9.668  -3.002 -0.46 -0.00    +0.000    22.197
ATOM      5  C   UNL     1      21.401 -10.837  -3.751 -0.44 -0.00    +0.000    22.197
ATOM      6  C   UNL     1      21.771 -10.765  -5.096 -0.44 -0.00    +0.000    22.197
ATOM      7  C   UNL     1      21.943  -9.519  -5.717 -0.28 -0.00    +0.000    22.197
ATOM      8  C   UNL     1      21.751  -8.348  -4.970 -0.24 -0.00    +0.000    22.197
ATOM      9  C   UNL     1      21.379  -8.418  -3.624 -0.35 -0.00    +0.000    22.197
ATOM     10  C   UNL     1      21.032 -10.901  -0.842 -0.51 -0.00    +0.000    22.197
ATOM     11  C   UNL     1      20.805  -9.801  -1.574 -0.60 -0.00    +0.000    22.197
ATOM     12  O   UNL     1      20.779 -10.020   1.327 -0.59 -0.00    +0.000    22.197
ATOM     13  C   UNL     1      20.650 -11.026   0.580 -0.71 -0.00    +0.000    22.197
ATOM     14  N   UNL     1      20.113 -12.239   1.126 -0.64 -0.00    +0.000    22.197
ATOM     15  H   UNL     1      19.911 -12.997   0.532 -0.49 -0.00    +0.000    22.197
ATOM     16  O   UNL     1      19.883 -12.343   2.457 -1.51 -0.00    +0.000    22.197
ATOM     17  H   UNL     1      20.520 -12.962   2.847 -0.56 -0.00    +0.000    22.197
ATOM     18  C   UNL     1      24.528 -10.453  -7.652 -0.36 -0.00    +0.000    22.197
ATOM     19  C   UNL     1      23.563 -11.628  -7.876 -0.47 -0.00    +0.000    22.197
ATOM     20  O   UNL     1      23.464 -12.428  -6.729 -1.01 -0.00    +0.000    22.197
ATOM     21  H   UNL     1      22.585 -12.837  -6.694 -0.52 -0.00    +0.000    22.197
ATOM     22  C   UNL     1      24.155  -8.025  -8.078 -0.14 -0.00    +0.000    22.197
ATOM     23  C   UNL     1      25.472  -7.331  -7.679 -0.15 -0.00    +0.000    22.197
ATOM     24  C   UNL     1      26.552  -8.349  -7.469 -0.25 -0.00    +0.000    22.197
ATOM     25  C   UNL     1      27.063  -8.778  -6.247 -0.29 -0.00    +0.000    22.197
ATOM     26  N   UNL     1      28.082  -9.645  -6.441 -0.52 -0.00    +0.000    22.197
ATOM     27  C   UNL     1      28.228  -9.756  -7.772 -0.42 -0.00    +0.000    22.197
ATOM     28  C   UNL     1      27.316  -8.975  -8.434 -0.21 -0.00    +0.000    22.197
ATOM     29  C   UNL     1      27.285  -8.897  -9.827 -0.09 -0.00    +0.000    22.197
ATOM     30  C   UNL     1      28.222  -9.662 -10.546 -0.15 -0.00    +0.000    22.197
ATOM     31  C   UNL     1      29.159 -10.472  -9.866 -0.28 -0.00    +0.000    22.197
ATOM     32  C   UNL     1      29.169 -10.523  -8.459 -0.34 -0.00    +0.000    22.197
ATOM     33  H   UNL     1      28.609 -10.103  -5.747 -0.11 -0.00    +0.000    22.197
TER
ENDMDL
MODEL       27
USER    Run = 27
USER    Cluster Rank = 8
USER    Number of conformations in this cluster = 3
USER  
USER    RMSD from reference structure       = 16.141 A
USER  
USER    Estimated Free Energy of Binding    =  -10.32 kcal/mol  [=(1)+(2)+(3)-(4)]
USER    Estimated Inhibition Constant, Ki   =   27.35 nM (nanomolar)  [Temperature = 298.15 K]
USER    
USER    (1) Final Intermolecular Energy     =  -13.60 kcal/mol
USER        vdW + Hbond + desolv Energy     =  -13.60 kcal/mol
USER        Electrostatic Energy            =   +0.00 kcal/mol
USER    (2) Final Total Internal Energy     =   -2.75 kcal/mol
USER    (3) Torsional Free Energy           =   +3.28 kcal/mol
USER    (4) Unbound System's Energy  [=(2)] =   -2.75 kcal/mol
USER    
USER    
USER  
USER    DPF = ligand_dock.biased.dpf
USER    NEWDPF move	ligand.pdbqt
USER    NEWDPF about	0.460000 0.128000 -0.007000
USER    NEWDPF tran0	17.193161 -10.533115 1.531153
USER    NEWDPF axisangle0	-0.260173 0.781399 -0.567209 114.093940
USER    NEWDPF quaternion0	-0.218315 0.655685 -0.475954 0.543951
USER    NEWDPF dihe0	13.19 -18.55 68.66 51.10 -97.57 -63.94 20.19 45.27 -112.24 26.31 26.16 
USER  
USER                              x       y       z    vdW   Elec        q     RMS 
ATOM      1  N   UNL     1      18.491 -11.304   1.151 -0.47 -0.00    +0.000    16.141
ATOM      2  H   UNL     1      18.653 -10.405   1.605 -0.01 -0.00    +0.000    16.141
ATOM      3  C   UNL     1      17.035 -11.562   1.141 -0.47 +0.00    +0.000    16.141
ATOM      4  C   UNL     1      14.998  -8.537   3.472 -0.32 +0.00    +0.000    16.141
ATOM      5  C   UNL     1      15.542  -9.672   4.096 -0.29 +0.00    +0.000    16.141
ATOM      6  C   UNL     1      16.192 -10.656   3.346 -0.46 +0.00    +0.000    16.141
ATOM      7  C   UNL     1      16.319 -10.518   1.956 -0.37 +0.00    +0.000    16.141
ATOM      8  C   UNL     1      15.797  -9.378   1.330 -0.23 +0.00    +0.000    16.141
ATOM      9  C   UNL     1      15.145  -8.393   2.078 -0.25 +0.00    +0.000    16.141
ATOM     10  C   UNL     1      14.493  -6.196   4.160 -0.36 +0.00    +0.000    16.141
ATOM     11  C   UNL     1      14.326  -7.517   4.315 -0.36 +0.00    +0.000    16.141
ATOM     12  O   UNL     1      14.117  -5.132   6.226 -1.02 +0.00    +0.000    16.141
ATOM     13  C   UNL     1      13.820  -5.186   5.003 -0.38 +0.00    +0.000    16.141
ATOM     14  N   UNL     1      12.869  -4.255   4.472 -0.28 +0.00    +0.000    16.141
ATOM     15  H   UNL     1      12.706  -4.219   3.502 +0.01 +0.00    +0.000    16.141
ATOM     16  O   UNL     1      12.194  -3.423   5.301 -0.42 +0.00    +0.000    16.141
ATOM     17  H   UNL     1      12.609  -3.435   6.178 -0.52 +0.00    +0.000    16.141
ATOM     18  C   UNL     1      19.212 -12.298   1.982 -0.58 -0.00    +0.000    16.141
ATOM     19  C   UNL     1      19.853 -11.662   3.227 -0.75 -0.00    +0.000    16.141
ATOM     20  O   UNL     1      19.915 -10.266   3.107 -0.75 -0.00    +0.000    16.141
ATOM     21  H   UNL     1      20.667 -10.022   2.546 -0.47 -0.00    +0.000    16.141
ATOM     22  C   UNL     1      19.036 -11.138  -0.218 -0.52 -0.00    +0.000    16.141
ATOM     23  C   UNL     1      20.557 -10.887  -0.266 -0.64 -0.00    +0.000    16.141
ATOM     24  C   UNL     1      20.888  -9.915  -1.358 -0.56 -0.00    +0.000    16.141
ATOM     25  C   UNL     1      21.387  -8.625  -1.199 -0.45 -0.00    +0.000    16.141
ATOM     26  N   UNL     1      21.492  -8.010  -2.399 -0.45 -0.00    +0.000    16.141
ATOM     27  C   UNL     1      21.051  -8.894  -3.311 -0.39 -0.00    +0.000    16.141
ATOM     28  C   UNL     1      20.668 -10.067  -2.713 -0.47 -0.00    +0.000    16.141
ATOM     29  C   UNL     1      20.147 -11.132  -3.447 -0.36 -0.00    +0.000    16.141
ATOM     30  C   UNL     1      20.033 -10.973  -4.841 -0.42 -0.00    +0.000    16.141
ATOM     31  C   UNL     1      20.432  -9.767  -5.459 -0.26 -0.00    +0.000    16.141
ATOM     32  C   UNL     1      20.948  -8.708  -4.688 -0.27 -0.00    +0.000    16.141
ATOM     33  H   UNL     1      21.824  -7.099  -2.570 -0.04 -0.00    +0.000    16.141
TER
ENDMDL
MODEL       44
USER    Run = 44
USER    Cluster Rank = 9
USER    Number of conformations in this cluster = 1
USER  
USER    RMSD from reference structure       = 21.713 A
USER  
USER    Estimated Free Energy of Binding    =  -10.29 kcal/mol  [=(1)+(2)+(3)-(4)]
USER    Estimated Inhibition Constant, Ki   =   28.54 nM (nanomolar)  [Temperature = 298.15 K]
USER    
USER    (1) Final Intermolecular Energy     =  -13.57 kcal/mol
USER        vdW + Hbond + desolv Energy     =  -13.57 kcal/mol
USER        Electrostatic Energy            =   +0.00 kcal/mol
USER    (2) Final Total Internal Energy     =   -2.25 kcal/mol
USER    (3) Torsional Free Energy           =   +3.28 kcal/mol
USER    (4) Unbound System's Energy  [=(2)] =   -2.25 kcal/mol
USER    
USER    
USER  
USER    DPF = ligand_dock.biased.dpf
USER    NEWDPF move	ligand.pdbqt
USER    NEWDPF about	0.460000 0.128000 -0.007000
USER    NEWDPF tran0	21.774879 -10.294512 -5.753431
USER    NEWDPF axisangle0	0.296852 0.755257 0.584350 133.187442
USER    NEWDPF quaternion0	0.272425 0.693108 0.536265 0.397248
USER    NEWDPF dihe0	-133.29 -17.98 95.81 65.64 -66.69 82.53 -0.45 0.19 156.47 166.79 10.56 
USER  
USER                              x       y       z    vdW   Elec        q     RMS 
ATOM      1  N   UNL     1      21.278 -10.602  -7.197 -0.28 -0.00    +0.000    21.713
ATOM      2  H   UNL     1      21.266 -11.404  -6.567 -0.25 -0.00    +0.000    21.713
ATOM      3  C   UNL     1      21.673  -9.409  -6.418 -0.27 -0.00    +0.000    21.713
ATOM      4  C   UNL     1      20.832  -9.991  -2.212 -0.51 -0.00    +0.000    21.713
ATOM      5  C   UNL     1      21.638 -10.905  -2.911 -0.21 -0.00    +0.000    21.713
ATOM      6  C   UNL     1      21.904 -10.725  -4.271 -0.31 -0.00    +0.000    21.713
ATOM      7  C   UNL     1      21.376  -9.622  -4.957 -0.33 -0.00    +0.000    21.713
ATOM      8  C   UNL     1      20.588  -8.695  -4.260 -0.29 -0.00    +0.000    21.713
ATOM      9  C   UNL     1      20.319  -8.873  -2.900 -0.32 -0.00    +0.000    21.713
ATOM     10  C   UNL     1      19.734 -11.141  -0.294 -0.55 -0.00    +0.000    21.713
ATOM     11  C   UNL     1      20.588 -10.222  -0.766 -0.64 -0.00    +0.000    21.713
ATOM     12  O   UNL     1      18.508 -10.803   1.688 -0.59 -0.00    +0.000    21.713
ATOM     13  C   UNL     1      19.497 -11.366   1.148 -0.66 -0.00    +0.000    21.713
ATOM     14  N   UNL     1      20.334 -12.220   1.938 -0.71 -0.00    +0.000    21.713
ATOM     15  H   UNL     1      21.046 -12.745   1.507 -0.54 -0.00    +0.000    21.713
ATOM     16  O   UNL     1      20.146 -12.307   3.277 -1.00 -0.00    +0.000    21.713
ATOM     17  H   UNL     1      21.002 -12.235   3.728 -0.59 -0.00    +0.000    21.713
ATOM     18  C   UNL     1      19.890 -10.482  -7.704 -0.28 -0.00    +0.000    21.713
ATOM     19  C   UNL     1      18.882 -11.249  -6.833 -0.32 -0.00    +0.000    21.713
ATOM     20  O   UNL     1      19.467 -11.665  -5.628 -0.51 -0.00    +0.000    21.713
ATOM     21  H   UNL     1      20.006 -12.455  -5.786 -0.53 -0.00    +0.000    21.713
ATOM     22  C   UNL     1      22.282 -10.949  -8.231 -0.31 -0.00    +0.000    21.713
ATOM     23  C   UNL     1      23.382 -11.913  -7.744 -0.50 -0.00    +0.000    21.713
ATOM     24  C   UNL     1      24.227 -12.361  -8.897 -0.40 -0.00    +0.000    21.713
ATOM     25  C   UNL     1      25.406 -11.770  -9.343 -0.33 -0.00    +0.000    21.713
ATOM     26  N   UNL     1      25.855 -12.394 -10.456 -0.15 -0.00    +0.000    21.713
ATOM     27  C   UNL     1      24.964 -13.363 -10.724 -0.26 -0.00    +0.000    21.713
ATOM     28  C   UNL     1      23.952 -13.371  -9.798 -0.35 -0.00    +0.000    21.713
ATOM     29  C   UNL     1      22.888 -14.270  -9.877 -0.35 +0.00    +0.000    21.713
ATOM     30  C   UNL     1      22.885 -15.189 -10.943 -0.44 +0.00    +0.000    21.713
ATOM     31  C   UNL     1      23.929 -15.186 -11.894 -0.27 +0.00    +0.000    21.713
ATOM     32  C   UNL     1      24.985 -14.261 -11.790 -0.23 -0.00    +0.000    21.713
ATOM     33  H   UNL     1      26.670 -12.181 -10.965 -0.29 -0.00    +0.000    21.713
TER
ENDMDL
MODEL       22
USER    Run = 22
USER    Cluster Rank = 10
USER    Number of conformations in this cluster = 2
USER  
USER    RMSD from reference structure       = 17.007 A
USER  
USER    Estimated Free Energy of Binding    =  -10.29 kcal/mol  [=(1)+(2)+(3)-(4)]
USER    Estimated Inhibition Constant, Ki   =   28.77 nM (nanomolar)  [Temperature = 298.15 K]
USER    
USER    (1) Final Intermolecular Energy     =  -13.57 kcal/mol
USER        vdW + Hbond + desolv Energy     =  -13.57 kcal/mol
USER        Electrostatic Energy            =   +0.00 kcal/mol
USER    (2) Final Total Internal Energy     =   -2.00 kcal/mol
USER    (3) Torsional Free Energy           =   +3.28 kcal/mol
USER    (4) Unbound System's Energy  [=(2)] =   -2.00 kcal/mol
USER    
USER    
USER  
USER    DPF = ligand_dock.biased.dpf
USER    NEWDPF move	ligand.pdbqt
USER    NEWDPF about	0.460000 0.128000 -0.007000
USER    NEWDPF tran0	17.569795 -11.289210 0.281726
USER    NEWDPF axisangle0	-0.393964 0.401506 -0.826792 140.832231
USER    NEWDPF quaternion0	-0.371174 0.378280 -0.778964 0.335187
USER    NEWDPF dihe0	9.72 -179.69 -179.39 135.59 -168.82 -86.19 174.30 54.10 -62.97 179.77 41.86 
USER  
USER                              x       y       z    vdW   Elec        q     RMS 
ATOM      1  N   UNL     1      19.034 -10.898  -0.076 -0.45 -0.00    +0.000    17.007
ATOM      2  H   UNL     1      18.394 -10.108   0.002 -0.01 -0.00    +0.000    17.007
ATOM      3  C   UNL     1      18.302 -12.125   0.305 -0.55 -0.00    +0.000    17.007
ATOM      4  C   UNL     1      14.088 -11.283   0.824 -0.34 +0.00    +0.000    17.007
ATOM      5  C   UNL     1      14.675 -11.230  -0.452 -0.32 +0.00    +0.000    17.007
ATOM      6  C   UNL     1      16.037 -11.493  -0.622 -0.33 +0.00    +0.000    17.007
ATOM      7  C   UNL     1      16.838 -11.822   0.481 -0.42 +0.00    +0.000    17.007
ATOM      8  C   UNL     1      16.255 -11.897   1.753 -0.37 +0.00    +0.000    17.007
ATOM      9  C   UNL     1      14.893 -11.634   1.927 -0.43 +0.00    +0.000    17.007
ATOM     10  C   UNL     1      11.735 -11.919   1.340 -0.42 +0.00    +0.000    17.007
ATOM     11  C   UNL     1      12.636 -11.006   0.949 -0.37 +0.00    +0.000    17.007
ATOM     12  O   UNL     1       9.894 -10.453   1.291 -0.24 +0.00    +0.000    17.007
ATOM     13  C   UNL     1      10.290 -11.636   1.463 -0.39 +0.00    +0.000    17.007
ATOM     14  N   UNL     1       9.328 -12.663   1.741 -0.39 +0.00    +0.000    17.007
ATOM     15  H   UNL     1       9.612 -13.604   1.774 -0.60 -0.00    +0.000    17.007
ATOM     16  O   UNL     1       8.031 -12.339   1.957 -0.45 +0.00    +0.000    17.007
ATOM     17  H   UNL     1       7.891 -11.405   1.739 -0.01 +0.00    +0.000    17.007
ATOM     18  C   UNL     1      20.135 -10.607   0.873 -0.66 -0.00    +0.000    17.007
ATOM     19  C   UNL     1      19.833 -11.119   2.291 -0.73 -0.00    +0.000    17.007
ATOM     20  O   UNL     1      20.413 -12.378   2.509 -1.37 -0.00    +0.000    17.007
ATOM     21  H   UNL     1      21.042 -12.322   3.244 -0.61 -0.00    +0.000    17.007
ATOM     22  C   UNL     1      19.441 -10.914  -1.502 -0.46 -0.00    +0.000    17.007
ATOM     23  C   UNL     1      20.928 -10.581  -1.737 -0.56 -0.00    +0.000    17.007
ATOM     24  C   UNL     1      21.068  -9.599  -2.860 -0.46 -0.00    +0.000    17.007
ATOM     25  C   UNL     1      21.276  -9.897  -4.205 -0.40 -0.00    +0.000    17.007
ATOM     26  N   UNL     1      21.434  -8.761  -4.921 -0.28 -0.00    +0.000    17.007
ATOM     27  C   UNL     1      21.342  -7.750  -4.040 -0.30 -0.00    +0.000    17.007
ATOM     28  C   UNL     1      21.126  -8.222  -2.771 -0.40 -0.00    +0.000    17.007
ATOM     29  C   UNL     1      21.023  -7.366  -1.674 -0.32 -0.00    +0.000    17.007
ATOM     30  C   UNL     1      21.138  -5.983  -1.910 -0.41 -0.00    +0.000    17.007
ATOM     31  C   UNL     1      21.356  -5.495  -3.217 -0.28 -0.00    +0.000    17.007
ATOM     32  C   UNL     1      21.463  -6.386  -4.302 -0.22 -0.00    +0.000    17.007
ATOM     33  H   UNL     1      21.585  -8.689  -5.891 -0.00 -0.00    +0.000    17.007
TER
ENDMDL
MODEL       81
USER    Run = 81
USER    Cluster Rank = 11
USER    Number of conformations in this cluster = 2
USER  
USER    RMSD from reference structure       = 17.340 A
USER  
USER    Estimated Free Energy of Binding    =  -10.16 kcal/mol  [=(1)+(2)+(3)-(4)]
USER    Estimated Inhibition Constant, Ki   =   35.98 nM (nanomolar)  [Temperature = 298.15 K]
USER    
USER    (1) Final Intermolecular Energy     =  -13.44 kcal/mol
USER        vdW + Hbond + desolv Energy     =  -13.44 kcal/mol
USER        Electrostatic Energy            =   +0.00 kcal/mol
USER    (2) Final Total Internal Energy     =   -1.77 kcal/mol
USER    (3) Torsional Free Energy           =   +3.28 kcal/mol
USER    (4) Unbound System's Energy  [=(2)] =   -1.77 kcal/mol
USER    
USER    
USER  
USER    DPF = ligand_dock.biased.dpf
USER    NEWDPF move	ligand.pdbqt
USER    NEWDPF about	0.460000 0.128000 -0.007000
USER    NEWDPF tran0	18.064029 -10.433878 -0.315435
USER    NEWDPF axisangle0	-0.201907 0.487472 -0.849473 131.873117
USER    NEWDPF quaternion0	-0.184360 0.445108 -0.775649 0.407748
USER    NEWDPF dihe0	-10.46 -156.56 1.55 -136.68 -97.33 -117.05 -65.28 23.06 -179.39 29.24 -11.75 
USER  
USER                              x       y       z    vdW   Elec        q     RMS 
ATOM      1  N   UNL     1      19.617 -10.527  -0.255 -0.48 -0.00    +0.000    17.340
ATOM      2  H   UNL     1      19.256  -9.581  -0.383 +0.00 -0.00    +0.000    17.340
ATOM      3  C   UNL     1      18.468 -11.438  -0.062 -0.51 -0.00    +0.000    17.340
ATOM      4  C   UNL     1      15.659  -9.682   2.723 -0.35 +0.00    +0.000    17.340
ATOM      5  C   UNL     1      16.793 -10.366   3.191 -0.42 +0.00    +0.000    17.340
ATOM      6  C   UNL     1      17.699 -10.942   2.295 -0.45 +0.00    +0.000    17.340
ATOM      7  C   UNL     1      17.489 -10.838   0.912 -0.37 -0.00    +0.000    17.340
ATOM      8  C   UNL     1      16.370 -10.139   0.439 -0.23 -0.00    +0.000    17.340
ATOM      9  C   UNL     1      15.463  -9.563   1.333 -0.27 +0.00    +0.000    17.340
ATOM     10  C   UNL     1      14.922  -7.873   4.270 -0.40 +0.00    +0.000    17.340
ATOM     11  C   UNL     1      14.735  -9.079   3.716 -0.39 +0.00    +0.000    17.340
ATOM     12  O   UNL     1      13.885  -7.833   6.384 -0.57 +0.00    +0.000    17.340
ATOM     13  C   UNL     1      13.997  -7.279   5.258 -0.43 +0.00    +0.000    17.340
ATOM     14  N   UNL     1      13.250  -6.086   4.987 -0.29 +0.00    +0.000    17.340
ATOM     15  H   UNL     1      13.406  -5.588   4.153 +0.01 +0.00    +0.000    17.340
ATOM     16  O   UNL     1      12.330  -5.642   5.878 -0.64 +0.00    +0.000    17.340
ATOM     17  H   UNL     1      12.181  -6.322   6.553 +0.05 +0.00    +0.000    17.340
ATOM     18  C   UNL     1      20.466 -10.460   0.959 -0.66 -0.00    +0.000    17.340
ATOM     19  C   UNL     1      21.008 -11.839   1.368 -0.60 -0.00    +0.000    17.340
ATOM     20  O   UNL     1      20.063 -12.552   2.120 -1.56 -0.00    +0.000    17.340
ATOM     21  H   UNL     1      20.104 -13.492   1.884 -0.60 -0.00    +0.000    17.340
ATOM     22  C   UNL     1      20.357 -10.821  -1.505 -0.47 -0.00    +0.000    17.340
ATOM     23  C   UNL     1      20.273  -9.704  -2.566 -0.47 -0.00    +0.000    17.340
ATOM     24  C   UNL     1      20.731 -10.217  -3.897 -0.42 -0.00    +0.000    17.340
ATOM     25  C   UNL     1      20.671 -11.534  -4.346 -0.29 -0.00    +0.000    17.340
ATOM     26  N   UNL     1      21.246 -11.643  -5.565 -0.49 -0.00    +0.000    17.340
ATOM     27  C   UNL     1      21.681 -10.412  -5.883 -0.36 -0.00    +0.000    17.340
ATOM     28  C   UNL     1      21.391  -9.516  -4.886 -0.32 -0.00    +0.000    17.340
ATOM     29  C   UNL     1      21.767  -8.174  -4.969 -0.24 -0.00    +0.000    17.340
ATOM     30  C   UNL     1      22.453  -7.757  -6.125 -0.17 -0.00    +0.000    17.340
ATOM     31  C   UNL     1      22.749  -8.678  -7.154 -0.18 -0.00    +0.000    17.340
ATOM     32  C   UNL     1      22.362 -10.027  -7.037 -0.27 -0.00    +0.000    17.340
ATOM     33  H   UNL     1      21.329 -12.459  -6.109 -0.58 -0.00    +0.000    17.340
TER
ENDMDL
MODEL       95
USER    Run = 95
USER    Cluster Rank = 12
USER    Number of conformations in this cluster = 6
USER  
USER    RMSD from reference structure       = 18.896 A
USER  
USER    Estimated Free Energy of Binding    =  -10.03 kcal/mol  [=(1)+(2)+(3)-(4)]
USER    Estimated Inhibition Constant, Ki   =   44.29 nM (nanomolar)  [Temperature = 298.15 K]
USER    
USER    (1) Final Intermolecular Energy     =  -13.31 kcal/mol
USER        vdW + Hbond + desolv Energy     =  -13.31 kcal/mol
USER        Electrostatic Energy            =   +0.00 kcal/mol
USER    (2) Final Total Internal Energy     =   -2.23 kcal/mol
USER    (3) Torsional Free Energy           =   +3.28 kcal/mol
USER    (4) Unbound System's Energy  [=(2)] =   -2.23 kcal/mol
USER    
USER    
USER  
USER    DPF = ligand_dock.biased.dpf
USER    NEWDPF move	ligand.pdbqt
USER    NEWDPF about	0.460000 0.128000 -0.007000
USER    NEWDPF tran0	21.606109 -8.795534 -7.475565
USER    NEWDPF axisangle0	0.415829 0.797878 0.436436 -59.463602
USER    NEWDPF quaternion0	0.206226 0.395700 0.216447 -0.868356
USER    NEWDPF dihe0	-107.79 49.76 -173.05 -176.06 -179.60 -179.42 173.38 4.01 165.16 178.92 163.31 
USER  
USER                              x       y       z    vdW   Elec        q     RMS 
ATOM      1  N   UNL     1      21.309 -10.320  -7.581 -0.24 -0.00    +0.000    18.896
ATOM      2  H   UNL     1      20.980  -9.771  -8.375 -0.00 -0.00    +0.000    18.896
ATOM      3  C   UNL     1      22.058  -9.422  -6.676 -0.27 -0.00    +0.000    18.896
ATOM      4  C   UNL     1      20.631  -9.827  -2.610 -0.46 -0.00    +0.000    18.896
ATOM      5  C   UNL     1      21.314 -10.884  -3.235 -0.37 -0.00    +0.000    18.896
ATOM      6  C   UNL     1      21.768 -10.761  -4.550 -0.44 -0.00    +0.000    18.896
ATOM      7  C   UNL     1      21.555  -9.573  -5.265 -0.31 -0.00    +0.000    18.896
ATOM      8  C   UNL     1      20.893  -8.507  -4.640 -0.26 -0.00    +0.000    18.896
ATOM      9  C   UNL     1      20.436  -8.628  -3.324 -0.33 -0.00    +0.000    18.896
ATOM     10  C   UNL     1      20.709 -10.902  -0.363 -0.62 -0.00    +0.000    18.896
ATOM     11  C   UNL     1      20.178 -10.006  -1.208 -0.52 -0.00    +0.000    18.896
ATOM     12  O   UNL     1      19.558 -10.162   1.553 -0.66 -0.00    +0.000    18.896
ATOM     13  C   UNL     1      20.254 -11.074   1.032 -0.71 -0.00    +0.000    18.896
ATOM     14  N   UNL     1      20.553 -12.250   1.797 -0.70 -0.00    +0.000    18.896
ATOM     15  H   UNL     1      21.006 -13.011   1.369 -0.59 -0.00    +0.000    18.896
ATOM     16  O   UNL     1      20.213 -12.315   3.106 -1.09 -0.00    +0.000    18.896
ATOM     17  H   UNL     1      21.012 -12.250   3.651 -0.60 -0.00    +0.000    18.896
ATOM     18  C   UNL     1      22.191 -11.361  -8.163 -0.28 -0.00    +0.000    18.896
ATOM     19  C   UNL     1      23.489 -11.542  -7.359 -0.49 -0.00    +0.000    18.896
ATOM     20  O   UNL     1      23.430 -12.688  -6.554 -1.00 -0.00    +0.000    18.896
ATOM     21  H   UNL     1      22.523 -13.029  -6.540 -0.57 -0.00    +0.000    18.896
ATOM     22  C   UNL     1      20.075 -10.845  -6.949 -0.28 -0.00    +0.000    18.896
ATOM     23  C   UNL     1      18.793 -10.083  -7.339 -0.25 -0.00    +0.000    18.896
ATOM     24  C   UNL     1      17.591 -10.748  -6.740 -0.29 -0.00    +0.000    18.896
ATOM     25  C   UNL     1      16.779 -11.701  -7.348 -0.34 -0.00    +0.000    18.896
ATOM     26  N   UNL     1      15.741 -12.020  -6.541 -0.32 -0.00    +0.000    18.896
ATOM     27  C   UNL     1      15.883 -11.267  -5.437 -0.22 -0.00    +0.000    18.896
ATOM     28  C   UNL     1      16.998 -10.473  -5.523 -0.23 -0.00    +0.000    18.896
ATOM     29  C   UNL     1      17.345  -9.579  -4.510 -0.20 -0.00    +0.000    18.896
ATOM     30  C   UNL     1      16.515  -9.520  -3.375 -0.19 -0.00    +0.000    18.896
ATOM     31  C   UNL     1      15.370 -10.341  -3.283 -0.23 -0.00    +0.000    18.896
ATOM     32  C   UNL     1      15.042 -11.229  -4.326 -0.21 -0.00    +0.000    18.896
ATOM     33  H   UNL     1      15.027 -12.672  -6.726 -0.02 -0.00    +0.000    18.896
TER
ENDMDL
MODEL       60
USER    Run = 60
USER    Cluster Rank = 13
USER    Number of conformations in this cluster = 1
USER  
USER    RMSD from reference structure       = 15.198 A
USER  
USER    Estimated Free Energy of Binding    =   -9.96 kcal/mol  [=(1)+(2)+(3)-(4)]
USER    Estimated Inhibition Constant, Ki   =   49.76 nM (nanomolar)  [Temperature = 298.15 K]
USER    
USER    (1) Final Intermolecular Energy     =  -13.24 kcal/mol
USER        vdW + Hbond + desolv Energy     =  -13.24 kcal/mol
USER        Electrostatic Energy            =   +0.00 kcal/mol
USER    (2) Final Total Internal Energy     =   -2.40 kcal/mol
USER    (3) Torsional Free Energy           =   +3.28 kcal/mol
USER    (4) Unbound System's Energy  [=(2)] =   -2.40 kcal/mol
USER    
USER    
USER  
USER    DPF = ligand_dock.biased.dpf
USER    NEWDPF move	ligand.pdbqt
USER    NEWDPF about	0.460000 0.128000 -0.007000
USER    NEWDPF tran0	15.132333 -10.064561 3.598753
USER    NEWDPF axisangle0	0.269325 0.814283 0.514204 171.435963
USER    NEWDPF quaternion0	0.268574 0.812011 0.512769 0.074666
USER    NEWDPF dihe0	-1.81 -123.94 145.97 12.73 11.83 111.84 -76.41 -39.20 -27.79 15.97 -5.75 
USER  
USER                              x       y       z    vdW   Elec        q     RMS 
ATOM      1  N   UNL     1      15.282 -10.819   2.245 -0.36 +0.00    +0.000    15.198
ATOM      2  H   UNL     1      14.719 -11.309   2.941 -0.03 +0.00    +0.000    15.198
ATOM      3  C   UNL     1      15.646  -9.495   2.794 -0.40 +0.00    +0.000    15.198
ATOM      4  C   UNL     1      12.285  -7.841   4.962 -0.25 +0.00    +0.000    15.198
ATOM      5  C   UNL     1      12.505  -7.497   3.618 -0.13 +0.00    +0.000    15.198
ATOM      6  C   UNL     1      13.595  -8.021   2.917 -0.18 +0.00    +0.000    15.198
ATOM      7  C   UNL     1      14.480  -8.908   3.546 -0.30 +0.00    +0.000    15.198
ATOM      8  C   UNL     1      14.254  -9.273   4.880 -0.41 +0.00    +0.000    15.198
ATOM      9  C   UNL     1      13.165  -8.748   5.584 -0.41 +0.00    +0.000    15.198
ATOM     10  C   UNL     1      10.780  -5.965   5.613 -0.24 +0.00    +0.000    15.198
ATOM     11  C   UNL     1      11.107  -7.264   5.658 -0.13 +0.00    +0.000    15.198
ATOM     12  O   UNL     1       9.438  -4.149   6.282 -1.09 +0.00    +0.000    15.198
ATOM     13  C   UNL     1       9.606  -5.397   6.308 -0.37 +0.00    +0.000    15.198
ATOM     14  N   UNL     1       8.643  -6.219   6.982 -0.40 +0.00    +0.000    15.198
ATOM     15  H   UNL     1       8.706  -7.199   6.922 -0.01 +0.00    +0.000    15.198
ATOM     16  O   UNL     1       7.646  -5.649   7.701 -0.88 +0.00    +0.000    15.198
ATOM     17  H   UNL     1       7.745  -4.684   7.681 -0.00 +0.00    +0.000    15.198
ATOM     18  C   UNL     1      14.410 -10.691   1.053 -0.32 +0.00    +0.000    15.198
ATOM     19  C   UNL     1      13.491 -11.910   0.870 -0.45 +0.00    +0.000    15.198
ATOM     20  O   UNL     1      12.627 -12.062   1.964 -0.44 +0.00    +0.000    15.198
ATOM     21  H   UNL     1      12.010 -12.789   1.791 -0.59 +0.00    +0.000    15.198
ATOM     22  C   UNL     1      16.470 -11.684   2.046 -0.40 +0.00    +0.000    15.198
ATOM     23  C   UNL     1      17.053 -11.638   0.620 -0.48 +0.00    +0.000    15.198
ATOM     24  C   UNL     1      18.540 -11.456   0.673 -0.48 -0.00    +0.000    15.198
ATOM     25  C   UNL     1      19.363 -11.654   1.779 -0.62 -0.00    +0.000    15.198
ATOM     26  N   UNL     1      20.639 -11.318   1.482 -0.69 -0.00    +0.000    15.198
ATOM     27  C   UNL     1      20.626 -10.896   0.206 -0.61 -0.00    +0.000    15.198
ATOM     28  C   UNL     1      19.361 -10.960  -0.320 -0.48 -0.00    +0.000    15.198
ATOM     29  C   UNL     1      19.084 -10.549  -1.624 -0.36 -0.00    +0.000    15.198
ATOM     30  C   UNL     1      20.156 -10.069  -2.401 -0.43 -0.00    +0.000    15.198
ATOM     31  C   UNL     1      21.460 -10.008  -1.862 -0.48 -0.00    +0.000    15.198
ATOM     32  C   UNL     1      21.705 -10.424  -0.540 -0.58 -0.00    +0.000    15.198
ATOM     33  H   UNL     1      21.419 -11.371   2.080 -0.23 -0.00    +0.000    15.198
TER
ENDMDL
MODEL       83
USER    Run = 83
USER    Cluster Rank = 14
USER    Number of conformations in this cluster = 2
USER  
USER    RMSD from reference structure       = 18.855 A
USER  
USER    Estimated Free Energy of Binding    =   -9.83 kcal/mol  [=(1)+(2)+(3)-(4)]
USER    Estimated Inhibition Constant, Ki   =   62.65 nM (nanomolar)  [Temperature = 298.15 K]
USER    
USER    (1) Final Intermolecular Energy     =  -13.11 kcal/mol
USER        vdW + Hbond + desolv Energy     =  -13.11 kcal/mol
USER        Electrostatic Energy            =   +0.00 kcal/mol
USER    (2) Final Total Internal Energy     =   -2.10 kcal/mol
USER    (3) Torsional Free Energy           =   +3.28 kcal/mol
USER    (4) Unbound System's Energy  [=(2)] =   -2.10 kcal/mol
USER    
USER    
USER  
USER    DPF = ligand_dock.biased.dpf
USER    NEWDPF move	ligand.pdbqt
USER    NEWDPF about	0.460000 0.128000 -0.007000
USER    NEWDPF tran0	19.499455 -10.992015 -6.146877
USER    NEWDPF axisangle0	-0.611491 0.657699 0.439898 -118.094055
USER    NEWDPF quaternion0	-0.524409 0.564036 0.377252 -0.514334
USER    NEWDPF dihe0	8.21 151.63 -18.52 91.97 -127.41 75.03 16.86 39.32 28.17 -153.55 68.72 
USER  
USER                              x       y       z    vdW   Elec        q     RMS 
ATOM      1  N   UNL     1      20.643 -11.016  -5.091 -0.43 -0.00    +0.000    18.855
ATOM      2  H   UNL     1      20.436 -11.924  -5.509 -0.25 -0.00    +0.000    18.855
ATOM      3  C   UNL     1      19.814  -9.996  -5.768 -0.28 -0.00    +0.000    18.855
ATOM      4  C   UNL     1      15.962 -11.647  -6.847 -0.31 -0.00    +0.000    18.855
ATOM      5  C   UNL     1      16.121 -10.931  -5.649 -0.24 -0.00    +0.000    18.855
ATOM      6  C   UNL     1      17.365 -10.404  -5.292 -0.24 -0.00    +0.000    18.855
ATOM      7  C   UNL     1      18.474 -10.576  -6.133 -0.29 -0.00    +0.000    18.855
ATOM      8  C   UNL     1      18.318 -11.271  -7.340 -0.29 -0.00    +0.000    18.855
ATOM      9  C   UNL     1      17.075 -11.801  -7.699 -0.26 -0.00    +0.000    18.855
ATOM     10  C   UNL     1      14.140 -13.342  -6.723 -0.37 -0.00    +0.000    18.855
ATOM     11  C   UNL     1      14.618 -12.177  -7.184 -0.33 -0.00    +0.000    18.855
ATOM     12  O   UNL     1      12.350 -13.655  -8.220 -0.25 -0.00    +0.000    18.855
ATOM     13  C   UNL     1      12.800 -13.863  -7.062 -0.36 -0.00    +0.000    18.855
ATOM     14  N   UNL     1      12.013 -14.618  -6.131 -0.34 -0.00    +0.000    18.855
ATOM     15  H   UNL     1      12.394 -14.876  -5.261 -0.21 -0.00    +0.000    18.855
ATOM     16  O   UNL     1      10.745 -14.978  -6.446 -0.33 -0.00    +0.000    18.855
ATOM     17  H   UNL     1      10.570 -14.763  -7.375 -0.01 -0.00    +0.000    18.855
ATOM     18  C   UNL     1      22.088 -10.792  -5.338 -0.42 -0.00    +0.000    18.855
ATOM     19  C   UNL     1      22.498 -11.160  -6.774 -0.46 -0.00    +0.000    18.855
ATOM     20  O   UNL     1      23.160 -12.396  -6.811 -0.80 -0.00    +0.000    18.855
ATOM     21  H   UNL     1      22.514 -13.105  -6.952 -0.60 -0.00    +0.000    18.855
ATOM     22  C   UNL     1      20.282 -11.169  -3.661 -0.43 -0.00    +0.000    18.855
ATOM     23  C   UNL     1      19.944  -9.843  -2.951 -0.43 -0.00    +0.000    18.855
ATOM     24  C   UNL     1      20.321  -9.919  -1.502 -0.48 -0.00    +0.000    18.855
ATOM     25  C   UNL     1      21.366  -9.242  -0.878 -0.55 -0.00    +0.000    18.855
ATOM     26  N   UNL     1      21.458  -9.613   0.419 -0.57 -0.00    +0.000    18.855
ATOM     27  C   UNL     1      20.493 -10.526   0.615 -0.60 -0.00    +0.000    18.855
ATOM     28  C   UNL     1      19.781 -10.745  -0.536 -0.49 -0.00    +0.000    18.855
ATOM     29  C   UNL     1      18.741 -11.673  -0.595 -0.44 -0.00    +0.000    18.855
ATOM     30  C   UNL     1      18.430 -12.383   0.581 -0.46 -0.00    +0.000    18.855
ATOM     31  C   UNL     1      19.159 -12.155   1.769 -0.57 -0.00    +0.000    18.855
ATOM     32  C   UNL     1      20.208 -11.216   1.793 -0.67 -0.00    +0.000    18.855
ATOM     33  H   UNL     1      22.103  -9.280   1.084 -0.34 -0.00    +0.000    18.855
TER
ENDMDL
MODEL       67
USER    Run = 67
USER    Cluster Rank = 15
USER    Number of conformations in this cluster = 2
USER  
USER    RMSD from reference structure       = 18.535 A
USER  
USER    Estimated Free Energy of Binding    =   -9.76 kcal/mol  [=(1)+(2)+(3)-(4)]
USER    Estimated Inhibition Constant, Ki   =   69.94 nM (nanomolar)  [Temperature = 298.15 K]
USER    
USER    (1) Final Intermolecular Energy     =  -13.04 kcal/mol
USER        vdW + Hbond + desolv Energy     =  -13.04 kcal/mol
USER        Electrostatic Energy            =   +0.00 kcal/mol
USER    (2) Final Total Internal Energy     =   -2.58 kcal/mol
USER    (3) Torsional Free Energy           =   +3.28 kcal/mol
USER    (4) Unbound System's Energy  [=(2)] =   -2.58 kcal/mol
USER    
USER    
USER  
USER    DPF = ligand_dock.biased.dpf
USER    NEWDPF move	ligand.pdbqt
USER    NEWDPF about	0.460000 0.128000 -0.007000
USER    NEWDPF tran0	21.561572 -10.633850 -0.249806
USER    NEWDPF axisangle0	0.932439 -0.185459 0.310102 69.663521
USER    NEWDPF quaternion0	0.532580 -0.105929 0.177121 0.820833
USER    NEWDPF dihe0	14.59 94.53 121.79 -17.76 -116.74 110.12 173.46 -33.66 160.86 59.62 88.24 
USER  
USER                              x       y       z    vdW   Elec        q     RMS 
ATOM      1  N   UNL     1      20.481 -10.725   0.868 -0.62 -0.00    +0.000    18.535
ATOM      2  H   UNL     1      20.723 -11.619   0.441 -0.04 -0.00    +0.000    18.535
ATOM      3  C   UNL     1      21.371  -9.688   0.302 -0.56 -0.00    +0.000    18.535
ATOM      4  C   UNL     1      21.099  -9.704  -4.017 -0.39 -0.00    +0.000    18.535
ATOM      5  C   UNL     1      21.356 -10.893  -3.315 -0.38 -0.00    +0.000    18.535
ATOM      6  C   UNL     1      21.453 -10.891  -1.920 -0.28 -0.00    +0.000    18.535
ATOM      7  C   UNL     1      21.288  -9.698  -1.201 -0.57 -0.00    +0.000    18.535
ATOM      8  C   UNL     1      21.011  -8.512  -1.895 -0.45 -0.00    +0.000    18.535
ATOM      9  C   UNL     1      20.914  -8.512  -3.290 -0.37 -0.00    +0.000    18.535
ATOM     10  C   UNL     1      21.894 -10.374  -6.282 -0.38 -0.00    +0.000    18.535
ATOM     11  C   UNL     1      20.995  -9.763  -5.497 -0.33 -0.00    +0.000    18.535
ATOM     12  O   UNL     1      21.504  -9.370  -8.376 -0.14 -0.00    +0.000    18.535
ATOM     13  C   UNL     1      21.784 -10.430  -7.755 -0.29 -0.00    +0.000    18.535
ATOM     14  N   UNL     1      22.011 -11.636  -8.495 -0.27 -0.00    +0.000    18.535
ATOM     15  H   UNL     1      22.331 -12.443  -8.032 -0.54 -0.00    +0.000    18.535
ATOM     16  O   UNL     1      21.788 -11.667  -9.831 -0.28 -0.00    +0.000    18.535
ATOM     17  H   UNL     1      21.705 -10.760 -10.165 -0.01 -0.00    +0.000    18.535
ATOM     18  C   UNL     1      20.717 -10.907   2.321 -0.52 -0.00    +0.000    18.535
ATOM     19  C   UNL     1      19.755 -11.932   2.943 -0.72 -0.00    +0.000    18.535
ATOM     20  O   UNL     1      19.511 -12.997   2.063 -1.24 -0.00    +0.000    18.535
ATOM     21  H   UNL     1      20.308 -13.174   1.541 -0.60 -0.00    +0.000    18.535
ATOM     22  C   UNL     1      19.063 -10.503   0.499 -0.46 -0.00    +0.000    18.535
ATOM     23  C   UNL     1      18.610 -11.268  -0.760 -0.48 -0.00    +0.000    18.535
ATOM     24  C   UNL     1      17.247 -11.854  -0.551 -0.35 -0.00    +0.000    18.535
ATOM     25  C   UNL     1      16.955 -13.139  -0.101 -0.43 +0.00    +0.000    18.535
ATOM     26  N   UNL     1      15.619 -13.348  -0.109 -0.58 +0.00    +0.000    18.535
ATOM     27  C   UNL     1      15.067 -12.213  -0.572 -0.43 +0.00    +0.000    18.535
ATOM     28  C   UNL     1      16.030 -11.280  -0.859 -0.31 +0.00    +0.000    18.535
ATOM     29  C   UNL     1      15.708 -10.027  -1.382 -0.24 -0.00    +0.000    18.535
ATOM     30  C   UNL     1      14.348  -9.738  -1.600 -0.22 -0.00    +0.000    18.535
ATOM     31  C   UNL     1      13.355 -10.696  -1.300 -0.27 -0.00    +0.000    18.535
ATOM     32  C   UNL     1      13.713 -11.955  -0.780 -0.27 +0.00    +0.000    18.535
ATOM     33  H   UNL     1      15.147 -14.166   0.169 -0.05 +0.00    +0.000    18.535
TER
ENDMDL
MODEL       89
USER    Run = 89
USER    Cluster Rank = 16
USER    Number of conformations in this cluster = 1
USER  
USER    RMSD from reference structure       = 13.653 A
USER  
USER    Estimated Free Energy of Binding    =   -9.67 kcal/mol  [=(1)+(2)+(3)-(4)]
USER    Estimated Inhibition Constant, Ki   =   82.09 nM (nanomolar)  [Temperature = 298.15 K]
USER    
USER    (1) Final Intermolecular Energy     =  -12.95 kcal/mol
USER        vdW + Hbond + desolv Energy     =  -12.95 kcal/mol
USER        Electrostatic Energy            =   +0.00 kcal/mol
USER    (2) Final Total Internal Energy     =   -2.31 kcal/mol
USER    (3) Torsional Free Energy           =   +3.28 kcal/mol
USER    (4) Unbound System's Energy  [=(2)] =   -2.31 kcal/mol
USER    
USER    
USER  
USER    DPF = ligand_dock.biased.dpf
USER    NEWDPF move	ligand.pdbqt
USER    NEWDPF about	0.460000 0.128000 -0.007000
USER    NEWDPF tran0	13.013882 -7.535286 4.220390
USER    NEWDPF axisangle0	0.186053 0.015601 -0.982416 -82.773201
USER    NEWDPF quaternion0	0.123006 0.010314 -0.649511 -0.750266
USER    NEWDPF dihe0	-18.73 164.14 -3.67 -176.29 -150.29 -127.46 164.72 -86.05 50.29 153.46 29.33 
USER  
USER                              x       y       z    vdW   Elec        q     RMS 
ATOM      1  N   UNL     1      11.653  -6.781   4.162 -0.14 +0.00    +0.000    13.653
ATOM      2  H   UNL     1      11.962  -7.163   3.268 +0.01 +0.00    +0.000    13.653
ATOM      3  C   UNL     1      12.609  -7.214   5.205 -0.31 +0.00    +0.000    13.653
ATOM      4  C   UNL     1      15.574  -9.887   3.532 -0.41 +0.00    +0.000    13.653
ATOM      5  C   UNL     1      15.173  -8.737   2.831 -0.31 +0.00    +0.000    13.653
ATOM      6  C   UNL     1      14.210  -7.876   3.363 -0.25 +0.00    +0.000    13.653
ATOM      7  C   UNL     1      13.633  -8.145   4.613 -0.31 +0.00    +0.000    13.653
ATOM      8  C   UNL     1      14.044  -9.279   5.328 -0.43 +0.00    +0.000    13.653
ATOM      9  C   UNL     1      15.007 -10.142   4.797 -0.34 +0.00    +0.000    13.653
ATOM     10  C   UNL     1      17.909 -10.442   2.863 -0.53 -0.00    +0.000    13.653
ATOM     11  C   UNL     1      16.608 -10.762   2.927 -0.50 +0.00    +0.000    13.653
ATOM     12  O   UNL     1      18.552 -12.299   1.566 -0.89 -0.00    +0.000    13.653
ATOM     13  C   UNL     1      18.933 -11.319   2.259 -0.63 -0.00    +0.000    13.653
ATOM     14  N   UNL     1      20.338 -11.075   2.413 -0.67 -0.00    +0.000    13.653
ATOM     15  H   UNL     1      20.648 -10.258   2.864 -0.33 -0.00    +0.000    13.653
ATOM     16  O   UNL     1      21.240 -11.968   1.938 -1.06 -0.00    +0.000    13.653
ATOM     17  H   UNL     1      20.804 -12.824   1.800 -0.59 -0.00    +0.000    13.653
ATOM     18  C   UNL     1      10.306  -7.358   4.390 -0.15 +0.00    +0.000    13.653
ATOM     19  C   UNL     1      10.118  -7.851   5.834 -0.30 +0.00    +0.000    13.653
ATOM     20  O   UNL     1      10.543  -9.180   5.974 -0.41 +0.00    +0.000    13.653
ATOM     21  H   UNL     1      11.407  -9.199   6.413 -0.04 +0.00    +0.000    13.653
ATOM     22  C   UNL     1      11.667  -5.311   3.970 -0.17 +0.00    +0.000    13.653
ATOM     23  C   UNL     1      12.331  -4.530   5.121 -0.30 +0.00    +0.000    13.653
ATOM     24  C   UNL     1      13.813  -4.458   4.912 -0.32 +0.00    +0.000    13.653
ATOM     25  C   UNL     1      14.782  -5.220   5.560 -0.40 +0.00    +0.000    13.653
ATOM     26  N   UNL     1      16.020  -4.830   5.179 -0.44 -0.00    +0.000    13.653
ATOM     27  C   UNL     1      15.842  -3.821   4.309 -0.43 -0.00    +0.000    13.653
ATOM     28  C   UNL     1      14.508  -3.560   4.125 -0.32 -0.00    +0.000    13.653
ATOM     29  C   UNL     1      14.066  -2.535   3.288 -0.31 -0.00    +0.000    13.653
ATOM     30  C   UNL     1      15.040  -1.771   2.618 -0.26 -0.00    +0.000    13.653
ATOM     31  C   UNL     1      16.414  -2.042   2.803 -0.37 -0.00    +0.000    13.653
ATOM     32  C   UNL     1      16.828  -3.079   3.661 -0.43 -0.00    +0.000    13.653
ATOM     33  H   UNL     1      16.877  -5.209   5.478 -0.62 -0.00    +0.000    13.653
TER
ENDMDL
MODEL       98
USER    Run = 98
USER    Cluster Rank = 17
USER    Number of conformations in this cluster = 1
USER  
USER    RMSD from reference structure       = 16.844 A
USER  
USER    Estimated Free Energy of Binding    =   -9.55 kcal/mol  [=(1)+(2)+(3)-(4)]
USER    Estimated Inhibition Constant, Ki   =   99.61 nM (nanomolar)  [Temperature = 298.15 K]
USER    
USER    (1) Final Intermolecular Energy     =  -12.83 kcal/mol
USER        vdW + Hbond + desolv Energy     =  -12.83 kcal/mol
USER        Electrostatic Energy            =   +0.00 kcal/mol
USER    (2) Final Total Internal Energy     =   -1.63 kcal/mol
USER    (3) Torsional Free Energy           =   +3.28 kcal/mol
USER    (4) Unbound System's Energy  [=(2)] =   -1.63 kcal/mol
USER    
USER    
USER  
USER    DPF = ligand_dock.biased.dpf
USER    NEWDPF move	ligand.pdbqt
USER    NEWDPF about	0.460000 0.128000 -0.007000
USER    NEWDPF tran0	18.273041 -13.025242 0.372194
USER    NEWDPF axisangle0	0.735900 -0.627543 0.254246 134.867778
USER    NEWDPF quaternion0	0.679558 -0.579496 0.234780 0.383749
USER    NEWDPF dihe0	-0.05 106.38 -165.83 -57.26 79.82 76.46 127.93 61.63 -136.01 152.49 -153.95 
USER  
USER                              x       y       z    vdW   Elec        q     RMS 
ATOM      1  N   UNL     1      18.818 -12.080   1.483 -0.57 -0.00    +0.000    16.844
ATOM      2  H   UNL     1      18.244 -12.850   1.828 -0.06 +0.00    +0.000    16.844
ATOM      3  C   UNL     1      18.992 -12.252   0.025 -0.39 -0.00    +0.000    16.844
ATOM      4  C   UNL     1      20.957  -8.797  -1.689 -0.46 -0.00    +0.000    16.844
ATOM      5  C   UNL     1      21.384  -9.323  -0.458 -0.55 -0.00    +0.000    16.844
ATOM      6  C   UNL     1      20.747 -10.433   0.103 -0.61 -0.00    +0.000    16.844
ATOM      7  C   UNL     1      19.673 -11.044  -0.561 -0.46 -0.00    +0.000    16.844
ATOM      8  C   UNL     1      19.255 -10.536  -1.799 -0.38 -0.00    +0.000    16.844
ATOM      9  C   UNL     1      19.890  -9.425  -2.362 -0.21 -0.00    +0.000    16.844
ATOM     10  C   UNL     1      21.427  -6.358  -1.880 -0.42 -0.00    +0.000    16.844
ATOM     11  C   UNL     1      21.674  -7.623  -2.246 -0.33 -0.00    +0.000    16.844
ATOM     12  O   UNL     1      22.841  -4.488  -1.661 -0.84 +0.00    +0.000    16.844
ATOM     13  C   UNL     1      22.146  -5.193  -2.438 -0.38 -0.00    +0.000    16.844
ATOM     14  N   UNL     1      22.100  -4.861  -3.833 -0.18 -0.00    +0.000    16.844
ATOM     15  H   UNL     1      21.646  -5.462  -4.466 -0.00 -0.00    +0.000    16.844
ATOM     16  O   UNL     1      22.681  -3.722  -4.280 -0.11 -0.00    +0.000    16.844
ATOM     17  H   UNL     1      23.079  -3.248  -3.533 +0.00 -0.00    +0.000    16.844
ATOM     18  C   UNL     1      20.110 -12.203   2.201 -0.71 -0.00    +0.000    16.844
ATOM     19  C   UNL     1      20.267 -11.144   3.305 -0.74 -0.00    +0.000    16.844
ATOM     20  O   UNL     1      20.193 -11.726   4.579 -0.69 -0.00    +0.000    16.844
ATOM     21  H   UNL     1      20.739 -12.527   4.601 -0.39 -0.00    +0.000    16.844
ATOM     22  C   UNL     1      18.047 -10.858   1.812 -0.52 -0.00    +0.000    16.844
ATOM     23  C   UNL     1      17.362 -10.896   3.193 -0.47 +0.00    +0.000    16.844
ATOM     24  C   UNL     1      15.901 -10.592   3.056 -0.43 +0.00    +0.000    16.844
ATOM     25  C   UNL     1      15.134  -9.799   3.906 -0.40 +0.00    +0.000    16.844
ATOM     26  N   UNL     1      13.838  -9.812   3.520 -0.32 +0.00    +0.000    16.844
ATOM     27  C   UNL     1      13.778 -10.616   2.444 -0.32 +0.00    +0.000    16.844
ATOM     28  C   UNL     1      15.016 -11.116   2.135 -0.40 +0.00    +0.000    16.844
ATOM     29  C   UNL     1      15.209 -12.000   1.072 -0.43 +0.00    +0.000    16.844
ATOM     30  C   UNL     1      14.084 -12.362   0.309 -0.40 +0.00    +0.000    16.844
ATOM     31  C   UNL     1      12.808 -11.843   0.624 -0.35 +0.00    +0.000    16.844
ATOM     32  C   UNL     1      12.646 -10.958   1.707 -0.32 +0.00    +0.000    16.844
ATOM     33  H   UNL     1      13.091  -9.330   3.941 -0.01 +0.00    +0.000    16.844
TER
ENDMDL
MODEL       57
USER    Run = 57
USER    Cluster Rank = 18
USER    Number of conformations in this cluster = 1
USER  
USER    RMSD from reference structure       = 21.412 A
USER  
USER    Estimated Free Energy of Binding    =   -9.52 kcal/mol  [=(1)+(2)+(3)-(4)]
USER    Estimated Inhibition Constant, Ki   =  104.58 nM (nanomolar)  [Temperature = 298.15 K]
USER    
USER    (1) Final Intermolecular Energy     =  -12.80 kcal/mol
USER        vdW + Hbond + desolv Energy     =  -12.80 kcal/mol
USER        Electrostatic Energy            =   +0.00 kcal/mol
USER    (2) Final Total Internal Energy     =   -1.72 kcal/mol
USER    (3) Torsional Free Energy           =   +3.28 kcal/mol
USER    (4) Unbound System's Energy  [=(2)] =   -1.72 kcal/mol
USER    
USER    
USER  
USER    DPF = ligand_dock.biased.dpf
USER    NEWDPF move	ligand.pdbqt
USER    NEWDPF about	0.460000 0.128000 -0.007000
USER    NEWDPF tran0	21.090705 -11.048507 -6.412497
USER    NEWDPF axisangle0	0.114911 -0.849281 -0.515284 -170.373387
USER    NEWDPF quaternion0	0.114506 -0.846285 -0.513467 -0.083909
USER    NEWDPF dihe0	-142.57 3.33 164.55 180.00 -116.80 156.58 -164.89 -43.12 -25.40 -168.63 62.75 
USER  
USER                              x       y       z    vdW   Elec        q     RMS 
ATOM      1  N   UNL     1      22.124 -11.350  -7.537 -0.32 -0.00    +0.000    21.412
ATOM      2  H   UNL     1      21.778 -12.177  -7.050 -0.56 -0.00    +0.000    21.412
ATOM      3  C   UNL     1      21.390 -10.172  -7.027 -0.29 -0.00    +0.000    21.412
ATOM      4  C   UNL     1      20.145 -10.814  -2.932 -0.41 -0.00    +0.000    21.412
ATOM      5  C   UNL     1      21.462 -10.422  -3.224 -0.45 -0.00    +0.000    21.412
ATOM      6  C   UNL     1      21.871 -10.222  -4.545 -0.30 -0.00    +0.000    21.412
ATOM      7  C   UNL     1      20.966 -10.404  -5.601 -0.35 -0.00    +0.000    21.412
ATOM      8  C   UNL     1      19.645 -10.775  -5.316 -0.36 -0.00    +0.000    21.412
ATOM      9  C   UNL     1      19.233 -10.976  -3.995 -0.36 -0.00    +0.000    21.412
ATOM     10  C   UNL     1      20.611 -10.867  -0.485 -0.61 -0.00    +0.000    21.412
ATOM     11  C   UNL     1      19.759 -11.003  -1.512 -0.39 -0.00    +0.000    21.412
ATOM     12  O   UNL     1      19.533 -12.068   1.230 -1.41 -0.00    +0.000    21.412
ATOM     13  C   UNL     1      20.219 -11.056   0.927 -0.70 -0.00    +0.000    21.412
ATOM     14  N   UNL     1      20.617 -10.146   1.961 -0.33 -0.00    +0.000    21.412
ATOM     15  H   UNL     1      21.238  -9.410   1.755 -0.55 -0.00    +0.000    21.412
ATOM     16  O   UNL     1      20.141 -10.296   3.221 -0.76 -0.00    +0.000    21.412
ATOM     17  H   UNL     1      19.979  -9.423   3.611 -0.59 -0.00    +0.000    21.412
ATOM     18  C   UNL     1      21.835 -11.590  -8.971 -0.19 -0.00    +0.000    21.412
ATOM     19  C   UNL     1      21.166 -10.379  -9.642 -0.17 -0.00    +0.000    21.412
ATOM     20  O   UNL     1      22.111  -9.401  -9.980 -0.09 -0.00    +0.000    21.412
ATOM     21  H   UNL     1      22.593  -9.127  -9.184 +0.00 -0.00    +0.000    21.412
ATOM     22  C   UNL     1      23.568 -11.294  -7.204 -0.43 -0.00    +0.000    21.412
ATOM     23  C   UNL     1      24.443 -10.641  -8.293 -0.34 -0.00    +0.000    21.412
ATOM     24  C   UNL     1      25.301  -9.568  -7.695 -0.28 -0.00    +0.000    21.412
ATOM     25  C   UNL     1      24.877  -8.322  -7.241 -0.20 -0.00    +0.000    21.412
ATOM     26  N   UNL     1      25.935  -7.582  -6.840 -0.22 -0.00    +0.000    21.412
ATOM     27  C   UNL     1      27.023  -8.343  -7.050 -0.31 -0.00    +0.000    21.412
ATOM     28  C   UNL     1      26.676  -9.560  -7.577 -0.35 -0.00    +0.000    21.412
ATOM     29  C   UNL     1      27.635 -10.519  -7.910 -0.39 -0.00    +0.000    21.412
ATOM     30  C   UNL     1      28.986 -10.202  -7.677 -0.47 -0.00    +0.000    21.412
ATOM     31  C   UNL     1      29.344  -8.951  -7.129 -0.33 -0.00    +0.000    21.412
ATOM     32  C   UNL     1      28.353  -8.002  -6.810 -0.30 -0.00    +0.000    21.412
ATOM     33  H   UNL     1      25.913  -6.671  -6.468 -0.01 -0.00    +0.000    21.412
TER
ENDMDL
MODEL       88
USER    Run = 88
USER    Cluster Rank = 19
USER    Number of conformations in this cluster = 3
USER  
USER    RMSD from reference structure       = 17.778 A
USER  
USER    Estimated Free Energy of Binding    =   -9.44 kcal/mol  [=(1)+(2)+(3)-(4)]
USER    Estimated Inhibition Constant, Ki   =  120.61 nM (nanomolar)  [Temperature = 298.15 K]
USER    
USER    (1) Final Intermolecular Energy     =  -12.72 kcal/mol
USER        vdW + Hbond + desolv Energy     =  -12.72 kcal/mol
USER        Electrostatic Energy            =   +0.00 kcal/mol
USER    (2) Final Total Internal Energy     =   -2.72 kcal/mol
USER    (3) Torsional Free Energy           =   +3.28 kcal/mol
USER    (4) Unbound System's Energy  [=(2)] =   -2.72 kcal/mol
USER    
USER    
USER  
USER    DPF = ligand_dock.biased.dpf
USER    NEWDPF move	ligand.pdbqt
USER    NEWDPF about	0.460000 0.128000 -0.007000
USER    NEWDPF tran0	16.281990 -9.852084 -1.277200
USER    NEWDPF axisangle0	0.814132 0.533526 -0.229215 130.140415
USER    NEWDPF quaternion0	0.738275 0.483815 -0.207858 0.421507
USER    NEWDPF dihe0	13.95 -85.33 169.32 -89.48 51.98 -148.18 -52.22 -132.47 179.71 -94.15 76.02 
USER  
USER                              x       y       z    vdW   Elec        q     RMS 
ATOM      1  N   UNL     1      15.201 -10.468  -0.341 -0.26 +0.00    +0.000    17.778
ATOM      2  H   UNL     1      16.109 -10.325   0.100 -0.01 +0.00    +0.000    17.778
ATOM      3  C   UNL     1      15.259  -9.907  -1.708 -0.27 -0.00    +0.000    17.778
ATOM      4  C   UNL     1      19.034 -10.917  -3.568 -0.31 -0.00    +0.000    17.778
ATOM      5  C   UNL     1      17.902 -10.647  -4.354 -0.16 -0.00    +0.000    17.778
ATOM      6  C   UNL     1      16.678 -10.329  -3.758 -0.17 -0.00    +0.000    17.778
ATOM      7  C   UNL     1      16.567 -10.268  -2.361 -0.21 -0.00    +0.000    17.778
ATOM      8  C   UNL     1      17.698 -10.515  -1.571 -0.22 -0.00    +0.000    17.778
ATOM      9  C   UNL     1      18.922 -10.835  -2.165 -0.36 -0.00    +0.000    17.778
ATOM     10  C   UNL     1      20.860 -10.471  -5.203 -0.43 -0.00    +0.000    17.778
ATOM     11  C   UNL     1      20.311 -11.240  -4.251 -0.51 -0.00    +0.000    17.778
ATOM     12  O   UNL     1      22.900  -9.854  -6.204 -0.34 -0.00    +0.000    17.778
ATOM     13  C   UNL     1      22.133 -10.798  -5.879 -0.45 -0.00    +0.000    17.778
ATOM     14  N   UNL     1      22.532 -12.149  -6.150 -0.56 -0.00    +0.000    17.778
ATOM     15  H   UNL     1      21.992 -12.898  -5.809 -0.54 -0.00    +0.000    17.778
ATOM     16  O   UNL     1      23.652 -12.396  -6.871 -1.14 -0.00    +0.000    17.778
ATOM     17  H   UNL     1      24.177 -11.584  -6.940 -0.04 +0.00    +0.000    17.778
ATOM     18  C   UNL     1      14.233  -9.731   0.506 -0.24 +0.00    +0.000    17.778
ATOM     19  C   UNL     1      12.938 -10.526   0.739 -0.29 +0.00    +0.000    17.778
ATOM     20  O   UNL     1      13.075 -11.415   1.815 -0.44 +0.00    +0.000    17.778
ATOM     21  H   UNL     1      12.557 -12.215   1.642 -0.25 +0.00    +0.000    17.778
ATOM     22  C   UNL     1      15.013 -11.939  -0.351 -0.45 +0.00    +0.000    17.778
ATOM     23  C   UNL     1      16.224 -12.733   0.177 -0.54 +0.00    +0.000    17.778
ATOM     24  C   UNL     1      16.834 -12.030   1.351 -0.41 +0.00    +0.000    17.778
ATOM     25  C   UNL     1      16.153 -11.395   2.386 -0.40 +0.00    +0.000    17.778
ATOM     26  N   UNL     1      17.026 -10.801   3.230 -0.48 +0.00    +0.000    17.778
ATOM     27  C   UNL     1      18.250 -11.042   2.730 -0.46 -0.00    +0.000    17.778
ATOM     28  C   UNL     1      18.174 -11.784   1.580 -0.45 -0.00    +0.000    17.778
ATOM     29  C   UNL     1      19.312 -12.140   0.856 -0.53 -0.00    +0.000    17.778
ATOM     30  C   UNL     1      20.561 -11.720   1.351 -0.66 -0.00    +0.000    17.778
ATOM     31  C   UNL     1      20.642 -10.960   2.538 -0.56 -0.00    +0.000    17.778
ATOM     32  C   UNL     1      19.473 -10.611   3.242 -0.56 -0.00    +0.000    17.778
ATOM     33  H   UNL     1      16.809 -10.294   4.046 -0.02 +0.00    +0.000    17.778
TER
ENDMDL
MODEL       63
USER    Run = 63
USER    Cluster Rank = 20
USER    Number of conformations in this cluster = 3
USER  
USER    RMSD from reference structure       = 18.639 A
USER  
USER    Estimated Free Energy of Binding    =   -9.32 kcal/mol  [=(1)+(2)+(3)-(4)]
USER    Estimated Inhibition Constant, Ki   =  147.22 nM (nanomolar)  [Temperature = 298.15 K]
USER    
USER    (1) Final Intermolecular Energy     =  -12.60 kcal/mol
USER        vdW + Hbond + desolv Energy     =  -12.60 kcal/mol
USER        Electrostatic Energy            =   +0.00 kcal/mol
USER    (2) Final Total Internal Energy     =   -2.25 kcal/mol
USER    (3) Torsional Free Energy           =   +3.28 kcal/mol
USER    (4) Unbound System's Energy  [=(2)] =   -2.25 kcal/mol
USER    
USER    
USER  
USER    DPF = ligand_dock.biased.dpf
USER    NEWDPF move	ligand.pdbqt
USER    NEWDPF about	0.460000 0.128000 -0.007000
USER    NEWDPF tran0	21.019931 -8.971156 -4.233719
USER    NEWDPF axisangle0	0.682239 -0.729953 -0.041448 -117.027037
USER    NEWDPF quaternion0	0.581789 -0.622477 -0.035346 -0.522297
USER    NEWDPF dihe0	-23.24 -86.29 -85.03 125.08 -55.99 101.70 -96.83 103.78 -170.69 -33.94 28.32 
USER  
USER                              x       y       z    vdW   Elec        q     RMS 
ATOM      1  N   UNL     1      21.674  -8.653  -5.611 -0.24 -0.00    +0.000    18.639
ATOM      2  H   UNL     1      22.311  -8.588  -4.816 -0.03 -0.00    +0.000    18.639
ATOM      3  C   UNL     1      20.370  -9.149  -5.118 -0.26 -0.00    +0.000    18.639
ATOM      4  C   UNL     1      20.693 -10.185  -0.929 -0.57 -0.00    +0.000    18.639
ATOM      5  C   UNL     1      19.865 -10.929  -1.785 -0.35 -0.00    +0.000    18.639
ATOM      6  C   UNL     1      19.751 -10.593  -3.137 -0.40 -0.00    +0.000    18.639
ATOM      7  C   UNL     1      20.471  -9.508  -3.659 -0.37 -0.00    +0.000    18.639
ATOM      8  C   UNL     1      21.315  -8.774  -2.815 -0.42 -0.00    +0.000    18.639
ATOM      9  C   UNL     1      21.430  -9.109  -1.462 -0.47 -0.00    +0.000    18.639
ATOM     10  C   UNL     1      19.728 -10.683   1.314 -0.64 -0.00    +0.000    18.639
ATOM     11  C   UNL     1      20.786 -10.591   0.496 -0.69 -0.00    +0.000    18.639
ATOM     12  O   UNL     1      19.675 -10.208   3.620 -0.64 -0.00    +0.000    18.639
ATOM     13  C   UNL     1      19.829 -11.088   2.732 -0.74 -0.00    +0.000    18.639
ATOM     14  N   UNL     1      20.067 -12.446   3.126 -0.67 -0.00    +0.000    18.639
ATOM     15  H   UNL     1      20.086 -13.158   2.447 -0.54 -0.00    +0.000    18.639
ATOM     16  O   UNL     1      20.264 -12.752   4.431 -0.61 -0.00    +0.000    18.639
ATOM     17  H   UNL     1      20.577 -11.964   4.903 -0.31 -0.00    +0.000    18.639
ATOM     18  C   UNL     1      22.305  -9.620  -6.541 -0.30 -0.00    +0.000    18.639
ATOM     19  C   UNL     1      22.122 -11.076  -6.081 -0.49 -0.00    +0.000    18.639
ATOM     20  O   UNL     1      22.919 -11.949  -6.835 -0.63 -0.00    +0.000    18.639
ATOM     21  H   UNL     1      22.467 -12.801  -6.930 -0.61 -0.00    +0.000    18.639
ATOM     22  C   UNL     1      21.582  -7.269  -6.134 -0.15 -0.00    +0.000    18.639
ATOM     23  C   UNL     1      22.525  -6.267  -5.439 -0.17 -0.00    +0.000    18.639
ATOM     24  C   UNL     1      21.890  -5.738  -4.189 -0.20 -0.00    +0.000    18.639
ATOM     25  C   UNL     1      20.604  -6.012  -3.730 -0.23 -0.00    +0.000    18.639
ATOM     26  N   UNL     1      20.342  -5.299  -2.611 -0.29 -0.00    +0.000    18.639
ATOM     27  C   UNL     1      21.443  -4.567  -2.369 -0.32 -0.00    +0.000    18.639
ATOM     28  C   UNL     1      22.407  -4.803  -3.314 -0.22 -0.00    +0.000    18.639
ATOM     29  C   UNL     1      23.635  -4.140  -3.296 -0.19 -0.00    +0.000    18.639
ATOM     30  C   UNL     1      23.865  -3.216  -2.259 -0.23 -0.00    +0.000    18.639
ATOM     31  C   UNL     1      22.874  -2.976  -1.282 -0.27 +0.00    +0.000    18.639
ATOM     32  C   UNL     1      21.643  -3.656  -1.332 -0.33 +0.00    +0.000    18.639
ATOM     33  H   UNL     1      19.512  -5.313  -2.081 -0.01 -0.00    +0.000    18.639
TER
ENDMDL
MODEL        4
USER    Run = 4
USER    Cluster Rank = 21
USER    Number of conformations in this cluster = 2
USER  
USER    RMSD from reference structure       = 14.186 A
USER  
USER    Estimated Free Energy of Binding    =   -9.24 kcal/mol  [=(1)+(2)+(3)-(4)]
USER    Estimated Inhibition Constant, Ki   =  169.67 nM (nanomolar)  [Temperature = 298.15 K]
USER    
USER    (1) Final Intermolecular Energy     =  -12.52 kcal/mol
USER        vdW + Hbond + desolv Energy     =  -12.52 kcal/mol
USER        Electrostatic Energy            =   +0.00 kcal/mol
USER    (2) Final Total Internal Energy     =   -2.63 kcal/mol
USER    (3) Torsional Free Energy           =   +3.28 kcal/mol
USER    (4) Unbound System's Energy  [=(2)] =   -2.63 kcal/mol
USER    
USER    
USER  
USER    DPF = ligand_dock.biased.dpf
USER    NEWDPF move	ligand.pdbqt
USER    NEWDPF about	0.460000 0.128000 -0.007000
USER    NEWDPF tran0	16.495837 -9.796601 3.765489
USER    NEWDPF axisangle0	0.515261 -0.496648 0.698461 -87.200067
USER    NEWDPF quaternion0	0.355334 -0.342498 0.481672 -0.724171
USER    NEWDPF dihe0	4.40 -180.00 -102.03 -50.78 -119.11 132.42 2.88 -31.87 20.85 -72.36 64.59 
USER  
USER                              x       y       z    vdW   Elec        q     RMS 
ATOM      1  N   UNL     1      17.387 -10.567   2.747 -0.47 +0.00    +0.000    14.186
ATOM      2  H   UNL     1      17.594  -9.570   2.820 -0.03 -0.00    +0.000    14.186
ATOM      3  C   UNL     1      16.361 -10.900   3.758 -0.51 +0.00    +0.000    14.186
ATOM      4  C   UNL     1      13.805  -7.476   4.446 -0.28 +0.00    +0.000    14.186
ATOM      5  C   UNL     1      13.548  -8.698   5.090 -0.39 +0.00    +0.000    14.186
ATOM      6  C   UNL     1      14.366  -9.808   4.864 -0.37 +0.00    +0.000    14.186
ATOM      7  C   UNL     1      15.462  -9.715   3.994 -0.38 +0.00    +0.000    14.186
ATOM      8  C   UNL     1      15.736  -8.493   3.364 -0.31 +0.00    +0.000    14.186
ATOM      9  C   UNL     1      14.918  -7.381   3.588 -0.31 +0.00    +0.000    14.186
ATOM     10  C   UNL     1      11.635  -6.451   5.115 -0.25 +0.00    +0.000    14.186
ATOM     11  C   UNL     1      12.912  -6.324   4.729 -0.27 +0.00    +0.000    14.186
ATOM     12  O   UNL     1      10.763  -4.326   4.597 -0.29 +0.00    +0.000    14.186
ATOM     13  C   UNL     1      10.751  -5.299   5.396 -0.29 +0.00    +0.000    14.186
ATOM     14  N   UNL     1       9.867  -5.269   6.525 -0.34 +0.00    +0.000    14.186
ATOM     15  H   UNL     1       9.773  -6.064   7.096 -0.03 +0.00    +0.000    14.186
ATOM     16  O   UNL     1       9.161  -4.147   6.805 -0.99 +0.00    +0.000    14.186
ATOM     17  H   UNL     1       9.315  -3.487   6.111 -0.04 +0.00    +0.000    14.186
ATOM     18  C   UNL     1      18.670 -11.255   3.029 -0.55 -0.00    +0.000    14.186
ATOM     19  C   UNL     1      19.397 -11.682   1.744 -0.70 -0.00    +0.000    14.186
ATOM     20  O   UNL     1      20.670 -12.198   2.029 -1.44 -0.00    +0.000    14.186
ATOM     21  H   UNL     1      20.722 -13.117   1.727 -0.62 -0.00    +0.000    14.186
ATOM     22  C   UNL     1      16.885 -10.747   1.364 -0.41 +0.00    +0.000    14.186
ATOM     23  C   UNL     1      16.127 -12.070   1.134 -0.47 +0.00    +0.000    14.186
ATOM     24  C   UNL     1      14.931 -11.839   0.262 -0.40 +0.00    +0.000    14.186
ATOM     25  C   UNL     1      14.861 -12.016  -1.117 -0.38 +0.00    +0.000    14.186
ATOM     26  N   UNL     1      13.649 -11.636  -1.580 -0.35 +0.00    +0.000    14.186
ATOM     27  C   UNL     1      12.959 -11.208  -0.510 -0.31 +0.00    +0.000    14.186
ATOM     28  C   UNL     1      13.710 -11.310   0.633 -0.34 +0.00    +0.000    14.186
ATOM     29  C   UNL     1      13.223 -10.900   1.874 -0.32 +0.00    +0.000    14.186
ATOM     30  C   UNL     1      11.916 -10.381   1.926 -0.19 +0.00    +0.000    14.186
ATOM     31  C   UNL     1      11.139 -10.280   0.751 -0.22 +0.00    +0.000    14.186
ATOM     32  C   UNL     1      11.662 -10.695  -0.488 -0.23 +0.00    +0.000    14.186
ATOM     33  H   UNL     1      13.336 -11.668  -2.513 -0.05 -0.00    +0.000    14.186
TER
ENDMDL
MODEL       38
USER    Run = 38
USER    Cluster Rank = 22
USER    Number of conformations in this cluster = 4
USER  
USER    RMSD from reference structure       = 20.478 A
USER  
USER    Estimated Free Energy of Binding    =   -9.13 kcal/mol  [=(1)+(2)+(3)-(4)]
USER    Estimated Inhibition Constant, Ki   =  203.08 nM (nanomolar)  [Temperature = 298.15 K]
USER    
USER    (1) Final Intermolecular Energy     =  -12.41 kcal/mol
USER        vdW + Hbond + desolv Energy     =  -12.41 kcal/mol
USER        Electrostatic Energy            =   +0.00 kcal/mol
USER    (2) Final Total Internal Energy     =   -2.17 kcal/mol
USER    (3) Torsional Free Energy           =   +3.28 kcal/mol
USER    (4) Unbound System's Energy  [=(2)] =   -2.17 kcal/mol
USER    
USER    
USER  
USER    DPF = ligand_dock.biased.dpf
USER    NEWDPF move	ligand.pdbqt
USER    NEWDPF about	0.460000 0.128000 -0.007000
USER    NEWDPF tran0	20.977467 -9.856573 -5.065475
USER    NEWDPF axisangle0	-0.947843 0.229543 0.221144 -124.890263
USER    NEWDPF quaternion0	-0.840327 0.203506 0.196059 -0.462598
USER    NEWDPF dihe0	2.86 86.39 165.31 -84.17 155.09 -63.27 179.44 -63.95 179.94 118.16 25.01 
USER  
USER                              x       y       z    vdW   Elec        q     RMS 
ATOM      1  N   UNL     1      20.845  -9.105  -3.708 -0.36 -0.00    +0.000    20.478
ATOM      2  H   UNL     1      21.394  -9.964  -3.663 -0.02 -0.00    +0.000    20.478
ATOM      3  C   UNL     1      20.481  -8.864  -5.121 -0.25 -0.00    +0.000    20.478
ATOM      4  C   UNL     1      22.553 -11.645  -7.710 -0.30 -0.00    +0.000    20.478
ATOM      5  C   UNL     1      22.631 -11.777  -6.314 -0.42 -0.00    +0.000    20.478
ATOM      6  C   UNL     1      21.971 -10.876  -5.474 -0.41 -0.00    +0.000    20.478
ATOM      7  C   UNL     1      21.212  -9.828  -6.016 -0.27 -0.00    +0.000    20.478
ATOM      8  C   UNL     1      21.113  -9.703  -7.409 -0.19 -0.00    +0.000    20.478
ATOM      9  C   UNL     1      21.773 -10.603  -8.251 -0.24 -0.00    +0.000    20.478
ATOM     10  C   UNL     1      22.740 -13.178  -9.665 -0.32 -0.00    +0.000    20.478
ATOM     11  C   UNL     1      23.264 -12.635  -8.557 -0.41 -0.00    +0.000    20.478
ATOM     12  O   UNL     1      24.678 -13.976 -10.739 -0.38 -0.00    +0.000    20.478
ATOM     13  C   UNL     1      23.455 -14.163 -10.504 -0.46 +0.00    +0.000    20.478
ATOM     14  N   UNL     1      22.811 -15.331 -11.032 -0.49 +0.00    +0.000    20.478
ATOM     15  H   UNL     1      21.886 -15.541 -10.771 -0.35 +0.00    +0.000    20.478
ATOM     16  O   UNL     1      23.474 -16.145 -11.888 -0.91 +0.00    +0.000    20.478
ATOM     17  H   UNL     1      24.381 -15.821 -12.004 -0.01 +0.00    +0.000    20.478
ATOM     18  C   UNL     1      21.737  -8.041  -3.189 -0.32 -0.00    +0.000    20.478
ATOM     19  C   UNL     1      21.041  -7.156  -2.143 -0.44 -0.00    +0.000    20.478
ATOM     20  O   UNL     1      21.038  -7.769  -0.881 -0.43 -0.00    +0.000    20.478
ATOM     21  H   UNL     1      21.782  -8.387  -0.820 -0.05 -0.00    +0.000    20.478
ATOM     22  C   UNL     1      19.655  -9.374  -2.865 -0.24 -0.00    +0.000    20.478
ATOM     23  C   UNL     1      19.586 -10.811  -2.311 -0.45 -0.00    +0.000    20.478
ATOM     24  C   UNL     1      19.879 -10.816  -0.842 -0.48 -0.00    +0.000    20.478
ATOM     25  C   UNL     1      21.133 -10.912  -0.245 -0.53 -0.00    +0.000    20.478
ATOM     26  N   UNL     1      21.011 -10.965   1.101 -0.64 -0.00    +0.000    20.478
ATOM     27  C   UNL     1      19.693 -10.918   1.358 -0.59 -0.00    +0.000    20.478
ATOM     28  C   UNL     1      18.969 -10.833   0.197 -0.45 -0.00    +0.000    20.478
ATOM     29  C   UNL     1      17.574 -10.800   0.199 -0.32 -0.00    +0.000    20.478
ATOM     30  C   UNL     1      16.920 -10.846   1.445 -0.37 +0.00    +0.000    20.478
ATOM     31  C   UNL     1      17.665 -10.928   2.642 -0.44 +0.00    +0.000    20.478
ATOM     32  C   UNL     1      19.072 -10.967   2.605 -0.57 -0.00    +0.000    20.478
ATOM     33  H   UNL     1      21.741 -11.025   1.759 -0.30 -0.00    +0.000    20.478
TER
ENDMDL
MODEL       35
USER    Run = 35
USER    Cluster Rank = 23
USER    Number of conformations in this cluster = 2
USER  
USER    RMSD from reference structure       = 15.211 A
USER  
USER    Estimated Free Energy of Binding    =   -9.11 kcal/mol  [=(1)+(2)+(3)-(4)]
USER    Estimated Inhibition Constant, Ki   =  210.01 nM (nanomolar)  [Temperature = 298.15 K]
USER    
USER    (1) Final Intermolecular Energy     =  -12.39 kcal/mol
USER        vdW + Hbond + desolv Energy     =  -12.39 kcal/mol
USER        Electrostatic Energy            =   +0.00 kcal/mol
USER    (2) Final Total Internal Energy     =   -4.75 kcal/mol
USER    (3) Torsional Free Energy           =   +3.28 kcal/mol
USER    (4) Unbound System's Energy  [=(2)] =   -4.75 kcal/mol
USER    
USER    
USER  
USER    DPF = ligand_dock.biased.dpf
USER    NEWDPF move	ligand.pdbqt
USER    NEWDPF about	0.460000 0.128000 -0.007000
USER    NEWDPF tran0	14.128114 -10.414622 -2.269382
USER    NEWDPF axisangle0	0.987216 0.159382 -0.001085 -153.451632
USER    NEWDPF quaternion0	0.960840 0.155124 -0.001056 -0.229611
USER    NEWDPF dihe0	7.79 -179.35 45.38 82.82 -129.29 180.00 -174.15 106.74 -169.89 42.00 46.10 
USER  
USER                              x       y       z    vdW   Elec        q     RMS 
ATOM      1  N   UNL     1      12.866  -9.635  -2.742 -0.19 -0.00    +0.000    15.211
ATOM      2  H   UNL     1      13.386  -9.180  -1.992 +0.00 -0.00    +0.000    15.211
ATOM      3  C   UNL     1      13.616 -10.838  -3.161 -0.25 -0.00    +0.000    15.211
ATOM      4  C   UNL     1      16.710 -11.722  -0.266 -0.38 +0.00    +0.000    15.211
ATOM      5  C   UNL     1      16.805 -10.586  -1.086 -0.26 -0.00    +0.000    15.211
ATOM      6  C   UNL     1      15.812 -10.301  -2.028 -0.25 -0.00    +0.000    15.211
ATOM      7  C   UNL     1      14.701 -11.146  -2.162 -0.30 -0.00    +0.000    15.211
ATOM      8  C   UNL     1      14.590 -12.270  -1.332 -0.36 +0.00    +0.000    15.211
ATOM      9  C   UNL     1      15.581 -12.557  -0.390 -0.46 +0.00    +0.000    15.211
ATOM     10  C   UNL     1      18.614 -11.022   1.180 -0.55 -0.00    +0.000    15.211
ATOM     11  C   UNL     1      17.785 -11.973   0.726 -0.54 -0.00    +0.000    15.211
ATOM     12  O   UNL     1      20.269 -12.393   2.143 -1.63 -0.00    +0.000    15.211
ATOM     13  C   UNL     1      19.683 -11.279   2.168 -0.72 -0.00    +0.000    15.211
ATOM     14  N   UNL     1      20.091 -10.295   3.129 -0.60 -0.00    +0.000    15.211
ATOM     15  H   UNL     1      19.714  -9.387   3.092 -0.58 -0.00    +0.000    15.211
ATOM     16  O   UNL     1      20.994 -10.613   4.087 -0.64 -0.00    +0.000    15.211
ATOM     17  H   UNL     1      21.354 -11.497   3.911 -0.52 -0.00    +0.000    15.211
ATOM     18  C   UNL     1      12.794  -8.634  -3.833 -0.12 -0.00    +0.000    15.211
ATOM     19  C   UNL     1      14.064  -7.772  -3.917 -0.12 -0.00    +0.000    15.211
ATOM     20  O   UNL     1      14.545  -7.451  -2.639 -0.19 -0.00    +0.000    15.211
ATOM     21  H   UNL     1      15.443  -7.800  -2.534 -0.02 -0.00    +0.000    15.211
ATOM     22  C   UNL     1      11.556  -9.978  -2.137 -0.14 -0.00    +0.000    15.211
ATOM     23  C   UNL     1      11.357  -9.431  -0.710 -0.17 -0.00    +0.000    15.211
ATOM     24  C   UNL     1      12.022 -10.329   0.288 -0.23 +0.00    +0.000    15.211
ATOM     25  C   UNL     1      11.510 -11.513   0.812 -0.37 +0.00    +0.000    15.211
ATOM     26  N   UNL     1      12.349 -12.016   1.746 -0.43 +0.00    +0.000    15.211
ATOM     27  C   UNL     1      13.377 -11.154   1.826 -0.35 +0.00    +0.000    15.211
ATOM     28  C   UNL     1      13.211 -10.108   0.956 -0.20 +0.00    +0.000    15.211
ATOM     29  C   UNL     1      14.133  -9.064   0.874 -0.20 +0.00    +0.000    15.211
ATOM     30  C   UNL     1      15.262  -9.121   1.712 -0.27 +0.00    +0.000    15.211
ATOM     31  C   UNL     1      15.438 -10.201   2.605 -0.36 +0.00    +0.000    15.211
ATOM     32  C   UNL     1      14.485 -11.235   2.670 -0.41 +0.00    +0.000    15.211
ATOM     33  H   UNL     1      12.231 -12.846   2.262 -0.57 +0.00    +0.000    15.211
TER
ENDMDL
MODEL       46
USER    Run = 46
USER    Cluster Rank = 24
USER    Number of conformations in this cluster = 1
USER  
USER    RMSD from reference structure       = 15.501 A
USER  
USER    Estimated Free Energy of Binding    =   -8.99 kcal/mol  [=(1)+(2)+(3)-(4)]
USER    Estimated Inhibition Constant, Ki   =  255.09 nM (nanomolar)  [Temperature = 298.15 K]
USER    
USER    (1) Final Intermolecular Energy     =  -12.28 kcal/mol
USER        vdW + Hbond + desolv Energy     =  -12.28 kcal/mol
USER        Electrostatic Energy            =   +0.00 kcal/mol
USER    (2) Final Total Internal Energy     =   -2.32 kcal/mol
USER    (3) Torsional Free Energy           =   +3.28 kcal/mol
USER    (4) Unbound System's Energy  [=(2)] =   -2.32 kcal/mol
USER    
USER    
USER  
USER    DPF = ligand_dock.biased.dpf
USER    NEWDPF move	ligand.pdbqt
USER    NEWDPF about	0.460000 0.128000 -0.007000
USER    NEWDPF tran0	15.254591 -11.307605 1.194050
USER    NEWDPF axisangle0	-0.655909 0.481693 -0.581167 76.872003
USER    NEWDPF quaternion0	-0.407739 0.299440 -0.361277 0.783303
USER    NEWDPF dihe0	-5.46 175.40 -159.38 54.76 119.21 -7.14 -169.82 -97.04 -175.58 -28.62 32.94 
USER  
USER                              x       y       z    vdW   Elec        q     RMS 
ATOM      1  N   UNL     1      15.742 -12.107  -0.050 -0.42 +0.00    +0.000    15.501
ATOM      2  H   UNL     1      16.128 -11.166   0.024 +0.00 +0.00    +0.000    15.501
ATOM      3  C   UNL     1      14.934 -12.371   1.160 -0.48 +0.00    +0.000    15.501
ATOM      4  C   UNL     1      15.085  -8.939   3.791 -0.35 +0.00    +0.000    15.501
ATOM      5  C   UNL     1      15.142 -10.241   4.315 -0.43 +0.00    +0.000    15.501
ATOM      6  C   UNL     1      15.085 -11.353   3.469 -0.42 +0.00    +0.000    15.501
ATOM      7  C   UNL     1      14.977 -11.181   2.081 -0.40 +0.00    +0.000    15.501
ATOM      8  C   UNL     1      14.940  -9.884   1.551 -0.26 +0.00    +0.000    15.501
ATOM      9  C   UNL     1      14.996  -8.771   2.395 -0.28 +0.00    +0.000    15.501
ATOM     10  C   UNL     1      14.853  -6.533   4.395 -0.41 +0.00    +0.000    15.501
ATOM     11  C   UNL     1      15.160  -7.793   4.732 -0.29 +0.00    +0.000    15.501
ATOM     12  O   UNL     1      14.007  -5.255   6.182 -1.05 +0.00    +0.000    15.501
ATOM     13  C   UNL     1      14.929  -5.396   5.337 -0.47 +0.00    +0.000    15.501
ATOM     14  N   UNL     1      16.027  -4.474   5.337 -0.50 -0.00    +0.000    15.501
ATOM     15  H   UNL     1      16.802  -4.633   4.752 -0.52 -0.00    +0.000    15.501
ATOM     16  O   UNL     1      16.000  -3.384   6.141 -0.65 +0.00    +0.000    15.501
ATOM     17  H   UNL     1      15.138  -3.330   6.582 -0.15 +0.00    +0.000    15.501
ATOM     18  C   UNL     1      16.916 -13.008  -0.126 -0.52 +0.00    +0.000    15.501
ATOM     19  C   UNL     1      18.240 -12.261   0.101 -0.53 -0.00    +0.000    15.501
ATOM     20  O   UNL     1      18.884 -12.712   1.263 -0.99 -0.00    +0.000    15.501
ATOM     21  H   UNL     1      19.718 -13.145   1.023 -0.57 -0.00    +0.000    15.501
ATOM     22  C   UNL     1      14.911 -12.077  -1.278 -0.41 +0.00    +0.000    15.501
ATOM     23  C   UNL     1      14.910 -10.719  -2.007 -0.32 -0.00    +0.000    15.501
ATOM     24  C   UNL     1      16.209 -10.514  -2.725 -0.19 -0.00    +0.000    15.501
ATOM     25  C   UNL     1      17.426 -10.146  -2.155 -0.07 -0.00    +0.000    15.501
ATOM     26  N   UNL     1      18.364  -9.977  -3.114 -0.27 -0.00    +0.000    15.501
ATOM     27  C   UNL     1      17.748 -10.219  -4.284 -0.24 -0.00    +0.000    15.501
ATOM     28  C   UNL     1      16.430 -10.543  -4.088 -0.14 -0.00    +0.000    15.501
ATOM     29  C   UNL     1      15.571 -10.811  -5.154 -0.22 -0.00    +0.000    15.501
ATOM     30  C   UNL     1      16.104 -10.749  -6.456 -0.23 -0.00    +0.000    15.501
ATOM     31  C   UNL     1      17.462 -10.419  -6.659 -0.24 -0.00    +0.000    15.501
ATOM     32  C   UNL     1      18.301 -10.148  -5.561 -0.24 -0.00    +0.000    15.501
ATOM     33  H   UNL     1      19.306  -9.727  -2.981 -0.01 -0.00    +0.000    15.501
TER
ENDMDL
MODEL       16
USER    Run = 16
USER    Cluster Rank = 25
USER    Number of conformations in this cluster = 1
USER  
USER    RMSD from reference structure       = 23.080 A
USER  
USER    Estimated Free Energy of Binding    =   -8.94 kcal/mol  [=(1)+(2)+(3)-(4)]
USER    Estimated Inhibition Constant, Ki   =  277.65 nM (nanomolar)  [Temperature = 298.15 K]
USER    
USER    (1) Final Intermolecular Energy     =  -12.23 kcal/mol
USER        vdW + Hbond + desolv Energy     =  -12.23 kcal/mol
USER        Electrostatic Energy            =   +0.00 kcal/mol
USER    (2) Final Total Internal Energy     =   -1.86 kcal/mol
USER    (3) Torsional Free Energy           =   +3.28 kcal/mol
USER    (4) Unbound System's Energy  [=(2)] =   -1.86 kcal/mol
USER    
USER    
USER  
USER    DPF = ligand_dock.biased.dpf
USER    NEWDPF move	ligand.pdbqt
USER    NEWDPF about	0.460000 0.128000 -0.007000
USER    NEWDPF tran0	23.213931 -10.947338 -7.658526
USER    NEWDPF axisangle0	0.267048 -0.963650 0.008025 -126.615531
USER    NEWDPF quaternion0	0.238589 -0.860956 0.007169 -0.449198
USER    NEWDPF dihe0	-18.76 -172.77 -95.48 178.34 147.83 -116.91 -86.11 -49.00 149.21 74.80 17.70 
USER  
USER                              x       y       z    vdW   Elec        q     RMS 
ATOM      1  N   UNL     1      24.192 -11.670  -8.631 -0.36 -0.00    +0.000    23.080
ATOM      2  H   UNL     1      24.515 -11.624  -7.665 -0.03 -0.00    +0.000    23.080
ATOM      3  C   UNL     1      22.826 -11.107  -8.688 -0.30 -0.00    +0.000    23.080
ATOM      4  C   UNL     1      21.155 -10.852  -4.703 -0.46 -0.00    +0.000    23.080
ATOM      5  C   UNL     1      21.979 -11.932  -5.064 -0.29 -0.00    +0.000    23.080
ATOM      6  C   UNL     1      22.513 -12.022  -6.352 -0.37 -0.00    +0.000    23.080
ATOM      7  C   UNL     1      22.239 -11.029  -7.303 -0.33 -0.00    +0.000    23.080
ATOM      8  C   UNL     1      21.436  -9.938  -6.944 -0.24 -0.00    +0.000    23.080
ATOM      9  C   UNL     1      20.899  -9.846  -5.656 -0.28 -0.00    +0.000    23.080
ATOM     10  C   UNL     1      21.303 -10.297  -2.279 -0.57 -0.00    +0.000    23.080
ATOM     11  C   UNL     1      20.622 -10.798  -3.319 -0.49 -0.00    +0.000    23.080
ATOM     12  O   UNL     1      19.609  -9.779  -0.728 -0.37 -0.00    +0.000    23.080
ATOM     13  C   UNL     1      20.765 -10.246  -0.903 -0.65 -0.00    +0.000    23.080
ATOM     14  N   UNL     1      21.502 -10.734   0.226 -0.62 -0.00    +0.000    23.080
ATOM     15  H   UNL     1      22.361 -11.194   0.090 -0.36 -0.00    +0.000    23.080
ATOM     16  O   UNL     1      21.017 -10.563   1.480 -0.75 -0.00    +0.000    23.080
ATOM     17  H   UNL     1      20.349  -9.860   1.474 -0.31 -0.00    +0.000    23.080
ATOM     18  C   UNL     1      24.198 -13.112  -8.978 -0.11 -0.00    +0.000    23.080
ATOM     19  C   UNL     1      22.874 -13.564  -9.616 -0.38 -0.00    +0.000    23.080
ATOM     20  O   UNL     1      22.905 -14.930  -9.933 -0.64 +0.00    +0.000    23.080
ATOM     21  H   UNL     1      22.141 -15.372  -9.533 -0.61 +0.00    +0.000    23.080
ATOM     22  C   UNL     1      25.164 -10.851  -9.394 -0.27 -0.00    +0.000    23.080
ATOM     23  C   UNL     1      25.703  -9.630  -8.622 -0.26 -0.00    +0.000    23.080
ATOM     24  C   UNL     1      27.198  -9.689  -8.535 -0.29 -0.00    +0.000    23.080
ATOM     25  C   UNL     1      28.032 -10.609  -9.167 -0.31 -0.00    +0.000    23.080
ATOM     26  N   UNL     1      29.317 -10.409  -8.799 -0.38 -0.00    +0.000    23.080
ATOM     27  C   UNL     1      29.301  -9.383  -7.930 -0.35 -0.00    +0.000    23.080
ATOM     28  C   UNL     1      28.025  -8.921  -7.739 -0.30 -0.00    +0.000    23.080
ATOM     29  C   UNL     1      27.744  -7.876  -6.858 -0.29 -0.00    +0.000    23.080
ATOM     30  C   UNL     1      28.823  -7.293  -6.169 -0.26 -0.00    +0.000    23.080
ATOM     31  C   UNL     1      30.139  -7.764  -6.369 -0.18 -0.00    +0.000    23.080
ATOM     32  C   UNL     1      30.389  -8.826  -7.259 -0.18 -0.00    +0.000    23.080
ATOM     33  H   UNL     1      30.105 -10.914  -9.105 -0.62 -0.00    +0.000    23.080
TER
ENDMDL
MODEL       80
USER    Run = 80
USER    Cluster Rank = 26
USER    Number of conformations in this cluster = 1
USER  
USER    RMSD from reference structure       = 18.303 A
USER  
USER    Estimated Free Energy of Binding    =   -8.93 kcal/mol  [=(1)+(2)+(3)-(4)]
USER    Estimated Inhibition Constant, Ki   =  283.22 nM (nanomolar)  [Temperature = 298.15 K]
USER    
USER    (1) Final Intermolecular Energy     =  -12.21 kcal/mol
USER        vdW + Hbond + desolv Energy     =  -12.21 kcal/mol
USER        Electrostatic Energy            =   +0.00 kcal/mol
USER    (2) Final Total Internal Energy     =   -2.76 kcal/mol
USER    (3) Torsional Free Energy           =   +3.28 kcal/mol
USER    (4) Unbound System's Energy  [=(2)] =   -2.76 kcal/mol
USER    
USER    
USER  
USER    DPF = ligand_dock.biased.dpf
USER    NEWDPF move	ligand.pdbqt
USER    NEWDPF about	0.460000 0.128000 -0.007000
USER    NEWDPF tran0	18.982538 -10.371479 -4.031116
USER    NEWDPF axisangle0	0.522434 -0.762499 -0.381651 128.918729
USER    NEWDPF quaternion0	0.471382 -0.687987 -0.344356 0.431151
USER    NEWDPF dihe0	8.38 -92.52 64.40 75.71 45.31 122.18 -126.62 27.49 166.57 -161.41 17.28 
USER  
USER                              x       y       z    vdW   Elec        q     RMS 
ATOM      1  N   UNL     1      20.329 -10.447  -3.253 -0.43 -0.00    +0.000    18.303
ATOM      2  H   UNL     1      19.903 -11.353  -3.448 -0.02 -0.00    +0.000    18.303
ATOM      3  C   UNL     1      19.515  -9.403  -3.912 -0.31 -0.00    +0.000    18.303
ATOM      4  C   UNL     1      16.922 -11.161  -6.898 -0.31 -0.00    +0.000    18.303
ATOM      5  C   UNL     1      16.506 -11.065  -5.560 -0.22 -0.00    +0.000    18.303
ATOM      6  C   UNL     1      17.343 -10.506  -4.591 -0.21 -0.00    +0.000    18.303
ATOM      7  C   UNL     1      18.612 -10.025  -4.944 -0.25 -0.00    +0.000    18.303
ATOM      8  C   UNL     1      19.026 -10.098  -6.282 -0.24 -0.00    +0.000    18.303
ATOM      9  C   UNL     1      18.190 -10.658  -7.253 -0.28 -0.00    +0.000    18.303
ATOM     10  C   UNL     1      15.173 -12.781  -7.621 -0.43 -0.00    +0.000    18.303
ATOM     11  C   UNL     1      15.990 -11.753  -7.890 -0.34 -0.00    +0.000    18.303
ATOM     12  O   UNL     1      13.186 -13.904  -8.200 -0.32 +0.00    +0.000    18.303
ATOM     13  C   UNL     1      14.247 -13.365  -8.614 -0.37 +0.00    +0.000    18.303
ATOM     14  N   UNL     1      14.503 -13.314 -10.024 -0.26 +0.00    +0.000    18.303
ATOM     15  H   UNL     1      15.274 -12.807 -10.364 -0.01 +0.00    +0.000    18.303
ATOM     16  O   UNL     1      13.684 -13.961 -10.888 -0.24 +0.00    +0.000    18.303
ATOM     17  H   UNL     1      12.910 -14.296 -10.409 -0.01 +0.00    +0.000    18.303
ATOM     18  C   UNL     1      21.691 -10.520  -3.836 -0.48 -0.00    +0.000    18.303
ATOM     19  C   UNL     1      21.765 -11.491  -5.025 -0.55 -0.00    +0.000    18.303
ATOM     20  O   UNL     1      20.696 -12.399  -5.005 -0.80 -0.00    +0.000    18.303
ATOM     21  H   UNL     1      20.957 -13.216  -5.457 -0.66 -0.00    +0.000    18.303
ATOM     22  C   UNL     1      20.299 -10.327  -1.776 -0.54 -0.00    +0.000    18.303
ATOM     23  C   UNL     1      19.322 -11.297  -1.083 -0.42 -0.00    +0.000    18.303
ATOM     24  C   UNL     1      19.007 -10.817   0.301 -0.45 -0.00    +0.000    18.303
ATOM     25  C   UNL     1      19.869 -10.144   1.163 -0.47 -0.00    +0.000    18.303
ATOM     26  N   UNL     1      19.272  -9.937   2.359 -0.49 -0.00    +0.000    18.303
ATOM     27  C   UNL     1      18.048 -10.485   2.264 -0.47 -0.00    +0.000    18.303
ATOM     28  C   UNL     1      17.852 -11.038   1.025 -0.41 -0.00    +0.000    18.303
ATOM     29  C   UNL     1      16.667 -11.695   0.690 -0.41 +0.00    +0.000    18.303
ATOM     30  C   UNL     1      15.659 -11.766   1.669 -0.41 +0.00    +0.000    18.303
ATOM     31  C   UNL     1      15.857 -11.192   2.944 -0.45 +0.00    +0.000    18.303
ATOM     32  C   UNL     1      17.068 -10.543   3.254 -0.41 +0.00    +0.000    18.303
ATOM     33  H   UNL     1      19.656  -9.477   3.140 -0.53 -0.00    +0.000    18.303
TER
ENDMDL
MODEL       72
USER    Run = 72
USER    Cluster Rank = 27
USER    Number of conformations in this cluster = 6
USER  
USER    RMSD from reference structure       = 17.991 A
USER  
USER    Estimated Free Energy of Binding    =   -8.93 kcal/mol  [=(1)+(2)+(3)-(4)]
USER    Estimated Inhibition Constant, Ki   =  286.61 nM (nanomolar)  [Temperature = 298.15 K]
USER    
USER    (1) Final Intermolecular Energy     =  -12.21 kcal/mol
USER        vdW + Hbond + desolv Energy     =  -12.21 kcal/mol
USER        Electrostatic Energy            =   +0.00 kcal/mol
USER    (2) Final Total Internal Energy     =   -3.62 kcal/mol
USER    (3) Torsional Free Energy           =   +3.28 kcal/mol
USER    (4) Unbound System's Energy  [=(2)] =   -3.62 kcal/mol
USER    
USER    
USER  
USER    DPF = ligand_dock.biased.dpf
USER    NEWDPF move	ligand.pdbqt
USER    NEWDPF about	0.460000 0.128000 -0.007000
USER    NEWDPF tran0	20.558645 -8.438010 -4.704993
USER    NEWDPF axisangle0	-0.516091 -0.606293 -0.605028 174.962216
USER    NEWDPF quaternion0	-0.515592 -0.605707 -0.604443 0.043949
USER    NEWDPF dihe0	29.56 130.06 68.46 74.33 72.10 -113.75 173.29 -140.86 171.24 1.17 66.80 
USER  
USER                              x       y       z    vdW   Elec        q     RMS 
ATOM      1  N   UNL     1      20.275  -8.751  -6.204 -0.13 -0.00    +0.000    17.991
ATOM      2  H   UNL     1      19.500  -8.962  -5.575 +0.01 -0.00    +0.000    17.991
ATOM      3  C   UNL     1      21.348  -8.108  -5.415 -0.23 -0.00    +0.000    17.991
ATOM      4  C   UNL     1      21.377  -9.731  -1.402 -0.56 -0.00    +0.000    17.991
ATOM      5  C   UNL     1      20.963  -8.409  -1.634 -0.40 -0.00    +0.000    17.991
ATOM      6  C   UNL     1      20.960  -7.878  -2.927 -0.37 -0.00    +0.000    17.991
ATOM      7  C   UNL     1      21.366  -8.664  -4.015 -0.33 -0.00    +0.000    17.991
ATOM      8  C   UNL     1      21.760  -9.991  -3.794 -0.34 -0.00    +0.000    17.991
ATOM      9  C   UNL     1      21.765 -10.523  -2.501 -0.32 -0.00    +0.000    17.991
ATOM     10  C   UNL     1      20.273 -10.814   0.551 -0.68 -0.00    +0.000    17.991
ATOM     11  C   UNL     1      21.351 -10.249  -0.012 -0.70 -0.00    +0.000    17.991
ATOM     12  O   UNL     1      19.917 -12.527   2.127 -1.62 -0.00    +0.000    17.991
ATOM     13  C   UNL     1      20.255 -11.329   1.937 -0.77 -0.00    +0.000    17.991
ATOM     14  N   UNL     1      20.633 -10.521   3.059 -0.64 -0.00    +0.000    17.991
ATOM     15  H   UNL     1      20.996  -9.618   2.914 -0.60 -0.00    +0.000    17.991
ATOM     16  O   UNL     1      20.492 -10.998   4.319 -0.71 -0.00    +0.000    17.991
ATOM     17  H   UNL     1      20.584 -11.963   4.311 -0.44 -0.00    +0.000    17.991
ATOM     18  C   UNL     1      19.718  -7.824  -7.217 -0.07 -0.00    +0.000    17.991
ATOM     19  C   UNL     1      18.524  -7.019  -6.677 -0.07 -0.00    +0.000    17.991
ATOM     20  O   UNL     1      18.016  -7.593  -5.503 -0.13 -0.00    +0.000    17.991
ATOM     21  H   UNL     1      18.657  -7.479  -4.784 -0.01 -0.00    +0.000    17.991
ATOM     22  C   UNL     1      20.692 -10.069  -6.741 -0.28 -0.00    +0.000    17.991
ATOM     23  C   UNL     1      20.093 -11.275  -5.992 -0.34 -0.00    +0.000    17.991
ATOM     24  C   UNL     1      18.744 -10.926  -5.441 -0.34 -0.00    +0.000    17.991
ATOM     25  C   UNL     1      18.466 -10.452  -4.161 -0.28 -0.00    +0.000    17.991
ATOM     26  N   UNL     1      17.131 -10.321  -3.988 -0.23 -0.00    +0.000    17.991
ATOM     27  C   UNL     1      16.564 -10.720  -5.139 -0.21 -0.00    +0.000    17.991
ATOM     28  C   UNL     1      17.516 -11.103  -6.048 -0.31 -0.00    +0.000    17.991
ATOM     29  C   UNL     1      17.176 -11.585  -7.313 -0.35 -0.00    +0.000    17.991
ATOM     30  C   UNL     1      15.809 -11.659  -7.639 -0.30 -0.00    +0.000    17.991
ATOM     31  C   UNL     1      14.827 -11.260  -6.705 -0.22 -0.00    +0.000    17.991
ATOM     32  C   UNL     1      15.203 -10.785  -5.434 -0.22 -0.00    +0.000    17.991
ATOM     33  H   UNL     1      16.669  -9.998  -3.181 -0.01 -0.00    +0.000    17.991
TER
ENDMDL
MODEL       42
USER    Run = 42
USER    Cluster Rank = 28
USER    Number of conformations in this cluster = 3
USER  
USER    RMSD from reference structure       = 17.030 A
USER  
USER    Estimated Free Energy of Binding    =   -8.91 kcal/mol  [=(1)+(2)+(3)-(4)]
USER    Estimated Inhibition Constant, Ki   =  293.46 nM (nanomolar)  [Temperature = 298.15 K]
USER    
USER    (1) Final Intermolecular Energy     =  -12.19 kcal/mol
USER        vdW + Hbond + desolv Energy     =  -12.19 kcal/mol
USER        Electrostatic Energy            =   +0.00 kcal/mol
USER    (2) Final Total Internal Energy     =   -2.38 kcal/mol
USER    (3) Torsional Free Energy           =   +3.28 kcal/mol
USER    (4) Unbound System's Energy  [=(2)] =   -2.38 kcal/mol
USER    
USER    
USER  
USER    DPF = ligand_dock.biased.dpf
USER    NEWDPF move	ligand.pdbqt
USER    NEWDPF about	0.460000 0.128000 -0.007000
USER    NEWDPF tran0	21.433508 -7.508458 -3.070976
USER    NEWDPF axisangle0	0.577778 0.769005 0.273505 179.548153
USER    NEWDPF quaternion0	0.577773 0.768999 0.273503 0.003943
USER    NEWDPF dihe0	7.13 -71.51 180.00 -83.24 -163.03 178.86 -108.71 123.00 -143.00 142.80 8.96 
USER  
USER                              x       y       z    vdW   Elec        q     RMS 
ATOM      1  N   UNL     1      20.632  -8.569  -3.883 -0.31 -0.00    +0.000    17.030
ATOM      2  H   UNL     1      20.272  -8.395  -2.944 -0.01 -0.00    +0.000    17.030
ATOM      3  C   UNL     1      21.743  -7.625  -4.132 -0.28 -0.00    +0.000    17.030
ATOM      4  C   UNL     1      21.330  -4.103  -1.651 -0.36 +0.00    +0.000    17.030
ATOM      5  C   UNL     1      20.874  -5.352  -1.197 -0.27 +0.00    +0.000    17.030
ATOM      6  C   UNL     1      20.998  -6.490  -1.999 -0.39 -0.00    +0.000    17.030
ATOM      7  C   UNL     1      21.587  -6.402  -3.268 -0.31 -0.00    +0.000    17.030
ATOM      8  C   UNL     1      22.063  -5.162  -3.718 -0.21 -0.00    +0.000    17.030
ATOM      9  C   UNL     1      21.940  -4.022  -2.919 -0.21 -0.00    +0.000    17.030
ATOM     10  C   UNL     1      21.009  -3.020   0.570 -0.39 +0.00    +0.000    17.030
ATOM     11  C   UNL     1      21.185  -2.928  -0.756 -0.37 -0.00    +0.000    17.030
ATOM     12  O   UNL     1      20.907  -0.697   0.940 -0.28 -0.00    +0.000    17.030
ATOM     13  C   UNL     1      20.865  -1.845   1.455 -0.49 -0.00    +0.000    17.030
ATOM     14  N   UNL     1      20.653  -1.971   2.868 -0.65 -0.00    +0.000    17.030
ATOM     15  H   UNL     1      20.515  -2.860   3.266 -0.06 -0.00    +0.000    17.030
ATOM     16  O   UNL     1      20.640  -0.868   3.655 -0.69 -0.00    +0.000    17.030
ATOM     17  H   UNL     1      20.677  -0.075   3.099 -0.03 -0.00    +0.000    17.030
ATOM     18  C   UNL     1      19.491  -8.316  -4.794 -0.21 -0.00    +0.000    17.030
ATOM     19  C   UNL     1      19.292  -9.453  -5.809 -0.21 -0.00    +0.000    17.030
ATOM     20  O   UNL     1      18.329 -10.369  -5.361 -0.28 -0.00    +0.000    17.030
ATOM     21  H   UNL     1      18.669 -11.271  -5.463 -0.03 -0.00    +0.000    17.030
ATOM     22  C   UNL     1      21.094  -9.977  -3.854 -0.48 -0.00    +0.000    17.030
ATOM     23  C   UNL     1      20.261 -10.897  -2.939 -0.46 -0.00    +0.000    17.030
ATOM     24  C   UNL     1      20.413 -10.480  -1.507 -0.50 -0.00    +0.000    17.030
ATOM     25  C   UNL     1      21.397  -9.644  -0.985 -0.58 -0.00    +0.000    17.030
ATOM     26  N   UNL     1      21.272  -9.552   0.358 -0.58 -0.00    +0.000    17.030
ATOM     27  C   UNL     1      20.229 -10.333   0.690 -0.56 -0.00    +0.000    17.030
ATOM     28  C   UNL     1      19.683 -10.921  -0.422 -0.49 -0.00    +0.000    17.030
ATOM     29  C   UNL     1      18.604 -11.801  -0.334 -0.45 -0.00    +0.000    17.030
ATOM     30  C   UNL     1      18.076 -12.065   0.944 -0.50 -0.00    +0.000    17.030
ATOM     31  C   UNL     1      18.634 -11.456   2.089 -0.50 -0.00    +0.000    17.030
ATOM     32  C   UNL     1      19.728 -10.577   1.968 -0.58 -0.00    +0.000    17.030
ATOM     33  H   UNL     1      21.832  -9.021   0.970 -0.48 -0.00    +0.000    17.030
TER
ENDMDL
MODEL       66
USER    Run = 66
USER    Cluster Rank = 29
USER    Number of conformations in this cluster = 1
USER  
USER    RMSD from reference structure       = 14.342 A
USER  
USER    Estimated Free Energy of Binding    =   -8.84 kcal/mol  [=(1)+(2)+(3)-(4)]
USER    Estimated Inhibition Constant, Ki   =  329.09 nM (nanomolar)  [Temperature = 298.15 K]
USER    
USER    (1) Final Intermolecular Energy     =  -12.13 kcal/mol
USER        vdW + Hbond + desolv Energy     =  -12.13 kcal/mol
USER        Electrostatic Energy            =   +0.00 kcal/mol
USER    (2) Final Total Internal Energy     =   -3.69 kcal/mol
USER    (3) Torsional Free Energy           =   +3.28 kcal/mol
USER    (4) Unbound System's Energy  [=(2)] =   -3.69 kcal/mol
USER    
USER    
USER  
USER    DPF = ligand_dock.biased.dpf
USER    NEWDPF move	ligand.pdbqt
USER    NEWDPF about	0.460000 0.128000 -0.007000
USER    NEWDPF tran0	11.707399 -7.973060 4.571682
USER    NEWDPF axisangle0	-0.393153 -0.252380 -0.884158 -169.728152
USER    NEWDPF quaternion0	-0.391575 -0.251367 -0.880608 -0.089519
USER    NEWDPF dihe0	-3.21 180.00 -86.47 -150.21 -84.57 114.29 16.11 77.87 -167.44 -162.02 140.57 
USER  
USER                              x       y       z    vdW   Elec        q     RMS 
ATOM      1  N   UNL     1      11.894  -6.947   3.416 -0.10 +0.00    +0.000    14.342
ATOM      2  H   UNL     1      11.000  -7.439   3.403 +0.00 +0.00    +0.000    14.342
ATOM      3  C   UNL     1      12.624  -7.348   4.637 -0.26 +0.00    +0.000    14.342
ATOM      4  C   UNL     1      15.898  -9.999   3.646 -0.41 +0.00    +0.000    14.342
ATOM      5  C   UNL     1      16.076  -8.605   3.620 -0.26 +0.00    +0.000    14.342
ATOM      6  C   UNL     1      15.019  -7.746   3.931 -0.35 +0.00    +0.000    14.342
ATOM      7  C   UNL     1      13.764  -8.264   4.282 -0.29 +0.00    +0.000    14.342
ATOM      8  C   UNL     1      13.586  -9.654   4.330 -0.30 +0.00    +0.000    14.342
ATOM      9  C   UNL     1      14.641 -10.516   4.018 -0.38 +0.00    +0.000    14.342
ATOM     10  C   UNL     1      17.880 -10.649   2.283 -0.53 -0.00    +0.000    14.342
ATOM     11  C   UNL     1      17.056 -10.868   3.317 -0.46 +0.00    +0.000    14.342
ATOM     12  O   UNL     1      18.814 -12.607   1.367 -1.02 -0.00    +0.000    14.342
ATOM     13  C   UNL     1      19.031 -11.518   1.962 -0.65 -0.00    +0.000    14.342
ATOM     14  N   UNL     1      20.381 -11.151   2.279 -0.68 -0.00    +0.000    14.342
ATOM     15  H   UNL     1      20.573 -10.260   2.649 -0.32 -0.00    +0.000    14.342
ATOM     16  O   UNL     1      21.392 -12.028   2.069 -0.95 -0.00    +0.000    14.342
ATOM     17  H   UNL     1      21.028 -12.869   1.751 -0.60 -0.00    +0.000    14.342
ATOM     18  C   UNL     1      11.546  -5.505   3.440 -0.12 +0.00    +0.000    14.342
ATOM     19  C   UNL     1      12.721  -4.630   3.904 -0.23 +0.00    +0.000    14.342
ATOM     20  O   UNL     1      12.314  -3.305   4.116 -0.49 +0.00    +0.000    14.342
ATOM     21  H   UNL     1      12.465  -3.064   5.043 -0.28 +0.00    +0.000    14.342
ATOM     22  C   UNL     1      12.586  -7.390   2.182 -0.11 +0.00    +0.000    14.342
ATOM     23  C   UNL     1      11.707  -8.223   1.228 -0.09 +0.00    +0.000    14.342
ATOM     24  C   UNL     1      12.171  -9.647   1.205 -0.16 +0.00    +0.000    14.342
ATOM     25  C   UNL     1      11.514 -10.745   1.755 -0.23 +0.00    +0.000    14.342
ATOM     26  N   UNL     1      12.264 -11.861   1.614 -0.44 +0.00    +0.000    14.342
ATOM     27  C   UNL     1      13.392 -11.476   0.993 -0.38 +0.00    +0.000    14.342
ATOM     28  C   UNL     1      13.376 -10.130   0.733 -0.20 +0.00    +0.000    14.342
ATOM     29  C   UNL     1      14.450  -9.485   0.119 -0.22 +0.00    +0.000    14.342
ATOM     30  C   UNL     1      15.564 -10.267  -0.241 -0.26 +0.00    +0.000    14.342
ATOM     31  C   UNL     1      15.580 -11.654   0.022 -0.37 +0.00    +0.000    14.342
ATOM     32  C   UNL     1      14.483 -12.274   0.650 -0.42 +0.00    +0.000    14.342
ATOM     33  H   UNL     1      12.030 -12.772   1.906 -0.59 +0.00    +0.000    14.342
TER
ENDMDL
MODEL        2
USER    Run = 2
USER    Cluster Rank = 30
USER    Number of conformations in this cluster = 2
USER  
USER    RMSD from reference structure       = 16.106 A
USER  
USER    Estimated Free Energy of Binding    =   -8.57 kcal/mol  [=(1)+(2)+(3)-(4)]
USER    Estimated Inhibition Constant, Ki   =  520.76 nM (nanomolar)  [Temperature = 298.15 K]
USER    
USER    (1) Final Intermolecular Energy     =  -11.85 kcal/mol
USER        vdW + Hbond + desolv Energy     =  -11.85 kcal/mol
USER        Electrostatic Energy            =   +0.00 kcal/mol
USER    (2) Final Total Internal Energy     =   -2.77 kcal/mol
USER    (3) Torsional Free Energy           =   +3.28 kcal/mol
USER    (4) Unbound System's Energy  [=(2)] =   -2.77 kcal/mol
USER    
USER    
USER  
USER    DPF = ligand_dock.biased.dpf
USER    NEWDPF move	ligand.pdbqt
USER    NEWDPF about	0.460000 0.128000 -0.007000
USER    NEWDPF tran0	14.602857 -9.331073 1.981841
USER    NEWDPF axisangle0	-0.509115 -0.192198 0.838964 -140.380932
USER    NEWDPF quaternion0	-0.478988 -0.180825 0.789318 -0.338894
USER    NEWDPF dihe0	31.43 160.72 169.26 -166.14 54.71 149.07 -50.30 -75.17 137.23 60.68 63.94 
USER  
USER                              x       y       z    vdW   Elec        q     RMS 
ATOM      1  N   UNL     1      15.352  -9.116   3.330 -0.36 +0.00    +0.000    16.106
ATOM      2  H   UNL     1      15.871  -8.812   2.505 -0.02 +0.00    +0.000    16.106
ATOM      3  C   UNL     1      14.007  -9.550   2.895 -0.31 +0.00    +0.000    16.106
ATOM      4  C   UNL     1      14.198 -11.157  -1.120 -0.32 +0.00    +0.000    16.106
ATOM      5  C   UNL     1      14.759  -9.903  -0.826 -0.23 -0.00    +0.000    16.106
ATOM      6  C   UNL     1      14.692  -9.376   0.467 -0.23 +0.00    +0.000    16.106
ATOM      7  C   UNL     1      14.068 -10.099   1.494 -0.23 +0.00    +0.000    16.106
ATOM      8  C   UNL     1      13.525 -11.360   1.212 -0.37 +0.00    +0.000    16.106
ATOM      9  C   UNL     1      13.590 -11.888  -0.080 -0.36 +0.00    +0.000    16.106
ATOM     10  C   UNL     1      14.735 -10.941  -3.543 -0.29 -0.00    +0.000    16.106
ATOM     11  C   UNL     1      14.306 -11.674  -2.506 -0.33 -0.00    +0.000    16.106
ATOM     12  O   UNL     1      15.816 -11.097  -5.629 -0.29 -0.00    +0.000    16.106
ATOM     13  C   UNL     1      14.840 -11.463  -4.922 -0.28 -0.00    +0.000    16.106
ATOM     14  N   UNL     1      13.890 -12.389  -5.465 -0.29 -0.00    +0.000    16.106
ATOM     15  H   UNL     1      13.184 -12.762  -4.890 -0.51 -0.00    +0.000    16.106
ATOM     16  O   UNL     1      13.962 -12.753  -6.768 -0.37 -0.00    +0.000    16.106
ATOM     17  H   UNL     1      14.888 -12.740  -7.055 -0.02 -0.00    +0.000    16.106
ATOM     18  C   UNL     1      15.279  -7.924   4.208 -0.39 +0.00    +0.000    16.106
ATOM     19  C   UNL     1      13.963  -7.863   5.000 -0.41 +0.00    +0.000    16.106
ATOM     20  O   UNL     1      14.044  -8.623   6.177 -0.60 +0.00    +0.000    16.106
ATOM     21  H   UNL     1      14.216  -8.037   6.929 -0.06 +0.00    +0.000    16.106
ATOM     22  C   UNL     1      16.148 -10.238   3.883 -0.41 +0.00    +0.000    16.106
ATOM     23  C   UNL     1      16.599 -11.271   2.830 -0.42 +0.00    +0.000    16.106
ATOM     24  C   UNL     1      17.996 -10.974   2.377 -0.46 -0.00    +0.000    16.106
ATOM     25  C   UNL     1      19.070 -10.601   3.183 -0.48 -0.00    +0.000    16.106
ATOM     26  N   UNL     1      20.158 -10.337   2.424 -0.53 -0.00    +0.000    16.106
ATOM     27  C   UNL     1      19.777 -10.525   1.149 -0.56 -0.00    +0.000    16.106
ATOM     28  C   UNL     1      18.463 -10.908   1.079 -0.45 -0.00    +0.000    16.106
ATOM     29  C   UNL     1      17.826 -11.137  -0.141 -0.38 -0.00    +0.000    16.106
ATOM     30  C   UNL     1      18.583 -10.972  -1.316 -0.37 -0.00    +0.000    16.106
ATOM     31  C   UNL     1      19.938 -10.582  -1.245 -0.46 -0.00    +0.000    16.106
ATOM     32  C   UNL     1      20.550 -10.352   0.001 -0.59 -0.00    +0.000    16.106
ATOM     33  H   UNL     1      21.048 -10.063   2.743 -0.47 -0.00    +0.000    16.106
TER
ENDMDL
MODEL       86
USER    Run = 86
USER    Cluster Rank = 31
USER    Number of conformations in this cluster = 2
USER  
USER    RMSD from reference structure       = 21.264 A
USER  
USER    Estimated Free Energy of Binding    =   -8.50 kcal/mol  [=(1)+(2)+(3)-(4)]
USER    Estimated Inhibition Constant, Ki   =  583.55 nM (nanomolar)  [Temperature = 298.15 K]
USER    
USER    (1) Final Intermolecular Energy     =  -11.79 kcal/mol
USER        vdW + Hbond + desolv Energy     =  -11.79 kcal/mol
USER        Electrostatic Energy            =   +0.00 kcal/mol
USER    (2) Final Total Internal Energy     =   -2.66 kcal/mol
USER    (3) Torsional Free Energy           =   +3.28 kcal/mol
USER    (4) Unbound System's Energy  [=(2)] =   -2.66 kcal/mol
USER    
USER    
USER  
USER    DPF = ligand_dock.biased.dpf
USER    NEWDPF move	ligand.pdbqt
USER    NEWDPF about	0.460000 0.128000 -0.007000
USER    NEWDPF tran0	21.492803 -10.006603 -5.103941
USER    NEWDPF axisangle0	0.583733 0.680012 -0.443666 -89.421951
USER    NEWDPF quaternion0	0.410674 0.478409 -0.312133 -0.710665
USER    NEWDPF dihe0	-2.83 143.39 125.18 35.39 159.36 177.24 62.51 67.28 88.59 -16.45 -13.96 
USER  
USER                              x       y       z    vdW   Elec        q     RMS 
ATOM      1  N   UNL     1      20.123 -10.534  -4.585 -0.36 -0.00    +0.000    21.264
ATOM      2  H   UNL     1      20.053  -9.778  -5.267 +0.00 -0.00    +0.000    21.264
ATOM      3  C   UNL     1      21.548 -10.904  -4.450 -0.52 -0.00    +0.000    21.264
ATOM      4  C   UNL     1      23.308 -11.381  -8.375 -0.34 -0.00    +0.000    21.264
ATOM      5  C   UNL     1      23.425 -12.397  -7.412 -0.41 -0.00    +0.000    21.264
ATOM      6  C   UNL     1      22.866 -12.244  -6.141 -0.44 -0.00    +0.000    21.264
ATOM      7  C   UNL     1      22.171 -11.071  -5.810 -0.42 -0.00    +0.000    21.264
ATOM      8  C   UNL     1      22.032 -10.062  -6.773 -0.28 -0.00    +0.000    21.264
ATOM      9  C   UNL     1      22.591 -10.213  -8.045 -0.23 -0.00    +0.000    21.264
ATOM     10  C   UNL     1      24.250 -12.805 -10.189 -0.34 -0.00    +0.000    21.264
ATOM     11  C   UNL     1      23.911 -11.598  -9.714 -0.27 -0.00    +0.000    21.264
ATOM     12  O   UNL     1      24.447 -12.302 -12.481 -0.10 -0.00    +0.000    21.264
ATOM     13  C   UNL     1      24.849 -13.014 -11.524 -0.21 -0.00    +0.000    21.264
ATOM     14  N   UNL     1      25.887 -13.977 -11.755 -0.19 -0.00    +0.000    21.264
ATOM     15  H   UNL     1      26.281 -14.465 -10.998 -0.54 -0.00    +0.000    21.264
ATOM     16  O   UNL     1      26.327 -14.213 -13.015 -0.18 -0.00    +0.000    21.264
ATOM     17  H   UNL     1      25.807 -13.687 -13.642 +0.00 -0.00    +0.000    21.264
ATOM     18  C   UNL     1      19.325 -11.648  -5.152 -0.43 -0.00    +0.000    21.264
ATOM     19  C   UNL     1      18.457 -11.199  -6.339 -0.38 -0.00    +0.000    21.264
ATOM     20  O   UNL     1      19.156 -10.312  -7.170 -0.27 -0.00    +0.000    21.264
ATOM     21  H   UNL     1      19.718 -10.814  -7.780 -0.03 -0.00    +0.000    21.264
ATOM     22  C   UNL     1      19.574  -9.962  -3.332 -0.39 -0.00    +0.000    21.264
ATOM     23  C   UNL     1      20.643  -9.391  -2.378 -0.51 -0.00    +0.000    21.264
ATOM     24  C   UNL     1      20.579 -10.087  -1.052 -0.55 -0.00    +0.000    21.264
ATOM     25  C   UNL     1      21.616 -10.216  -0.131 -0.58 -0.00    +0.000    21.264
ATOM     26  N   UNL     1      21.222 -10.974   0.917 -0.52 -0.00    +0.000    21.264
ATOM     27  C   UNL     1      19.953 -11.335   0.661 -0.60 -0.00    +0.000    21.264
ATOM     28  C   UNL     1      19.528 -10.818  -0.536 -0.47 -0.00    +0.000    21.264
ATOM     29  C   UNL     1      18.252 -11.076  -1.038 -0.37 -0.00    +0.000    21.264
ATOM     30  C   UNL     1      17.396 -11.884  -0.267 -0.41 -0.00    +0.000    21.264
ATOM     31  C   UNL     1      17.831 -12.413   0.968 -0.47 +0.00    +0.000    21.264
ATOM     32  C   UNL     1      19.128 -12.140   1.444 -0.58 -0.00    +0.000    21.264
ATOM     33  H   UNL     1      21.757 -11.212   1.709 -0.38 -0.00    +0.000    21.264
TER
ENDMDL
MODEL       65
USER    Run = 65
USER    Cluster Rank = 32
USER    Number of conformations in this cluster = 1
USER  
USER    RMSD from reference structure       = 17.845 A
USER  
USER    Estimated Free Energy of Binding    =   -8.50 kcal/mol  [=(1)+(2)+(3)-(4)]
USER    Estimated Inhibition Constant, Ki   =  586.76 nM (nanomolar)  [Temperature = 298.15 K]
USER    
USER    (1) Final Intermolecular Energy     =  -11.78 kcal/mol
USER        vdW + Hbond + desolv Energy     =  -11.78 kcal/mol
USER        Electrostatic Energy            =   +0.00 kcal/mol
USER    (2) Final Total Internal Energy     =   -3.19 kcal/mol
USER    (3) Torsional Free Energy           =   +3.28 kcal/mol
USER    (4) Unbound System's Energy  [=(2)] =   -3.19 kcal/mol
USER    
USER    
USER  
USER    DPF = ligand_dock.biased.dpf
USER    NEWDPF move	ligand.pdbqt
USER    NEWDPF about	0.460000 0.128000 -0.007000
USER    NEWDPF tran0	14.528448 -11.176513 -5.287428
USER    NEWDPF axisangle0	-0.000268 0.853920 0.520404 125.861590
USER    NEWDPF quaternion0	-0.000238 0.760380 0.463398 0.455066
USER    NEWDPF dihe0	-163.99 166.69 68.46 71.63 156.85 -77.06 -145.63 53.89 177.93 16.94 62.65 
USER  
USER                              x       y       z    vdW   Elec        q     RMS 
ATOM      1  N   UNL     1      14.558 -11.498  -6.811 -0.22 -0.00    +0.000    17.845
ATOM      2  H   UNL     1      14.842 -12.273  -6.210 -0.02 -0.00    +0.000    17.845
ATOM      3  C   UNL     1      14.114 -10.383  -5.947 -0.18 -0.00    +0.000    17.845
ATOM      4  C   UNL     1      16.220 -10.535  -2.169 -0.23 -0.00    +0.000    17.845
ATOM      5  C   UNL     1      14.958 -11.136  -2.306 -0.27 -0.00    +0.000    17.845
ATOM      6  C   UNL     1      14.271 -11.082  -3.522 -0.27 -0.00    +0.000    17.845
ATOM      7  C   UNL     1      14.837 -10.431  -4.627 -0.22 -0.00    +0.000    17.845
ATOM      8  C   UNL     1      16.105  -9.847  -4.503 -0.19 -0.00    +0.000    17.845
ATOM      9  C   UNL     1      16.795  -9.899  -3.288 -0.21 -0.00    +0.000    17.845
ATOM     10  C   UNL     1      18.142 -11.141  -0.704 -0.44 -0.00    +0.000    17.845
ATOM     11  C   UNL     1      16.913 -10.631  -0.860 -0.32 -0.00    +0.000    17.845
ATOM     12  O   UNL     1      18.711 -10.272   1.409 -0.54 -0.00    +0.000    17.845
ATOM     13  C   UNL     1      18.826 -11.233   0.603 -0.56 -0.00    +0.000    17.845
ATOM     14  N   UNL     1      19.587 -12.384   0.991 -0.62 -0.00    +0.000    17.845
ATOM     15  H   UNL     1      19.599 -13.182   0.414 -0.53 -0.00    +0.000    17.845
ATOM     16  O   UNL     1      20.289 -12.377   2.150 -1.62 -0.00    +0.000    17.845
ATOM     17  H   UNL     1      20.932 -13.104   2.142 -0.60 -0.00    +0.000    17.845
ATOM     18  C   UNL     1      13.441 -12.027  -7.630 -0.23 -0.00    +0.000    17.845
ATOM     19  C   UNL     1      12.735 -13.215  -6.958 -0.33 -0.00    +0.000    17.845
ATOM     20  O   UNL     1      13.516 -13.748  -5.922 -0.33 -0.00    +0.000    17.845
ATOM     21  H   UNL     1      13.138 -13.492  -5.067 -0.59 -0.00    +0.000    17.845
ATOM     22  C   UNL     1      15.776 -11.154  -7.582 -0.27 -0.00    +0.000    17.845
ATOM     23  C   UNL     1      17.039 -11.924  -7.146 -0.32 -0.00    +0.000    17.845
ATOM     24  C   UNL     1      18.202 -10.987  -7.026 -0.32 -0.00    +0.000    17.845
ATOM     25  C   UNL     1      18.658 -10.100  -7.998 -0.21 -0.00    +0.000    17.845
ATOM     26  N   UNL     1      19.778  -9.471  -7.574 -0.15 -0.00    +0.000    17.845
ATOM     27  C   UNL     1      20.041  -9.964  -6.351 -0.23 -0.00    +0.000    17.845
ATOM     28  C   UNL     1      19.105 -10.896  -5.985 -0.34 -0.00    +0.000    17.845
ATOM     29  C   UNL     1      19.176 -11.574  -4.767 -0.33 -0.00    +0.000    17.845
ATOM     30  C   UNL     1      20.245 -11.262  -3.907 -0.41 -0.00    +0.000    17.845
ATOM     31  C   UNL     1      21.208 -10.298  -4.280 -0.43 -0.00    +0.000    17.845
ATOM     32  C   UNL     1      21.111  -9.637  -5.519 -0.28 -0.00    +0.000    17.845
ATOM     33  H   UNL     1      20.295  -8.791  -8.062 +0.00 -0.00    +0.000    17.845
TER
ENDMDL
MODEL       32
USER    Run = 32
USER    Cluster Rank = 33
USER    Number of conformations in this cluster = 1
USER  
USER    RMSD from reference structure       = 19.358 A
USER  
USER    Estimated Free Energy of Binding    =   -8.45 kcal/mol  [=(1)+(2)+(3)-(4)]
USER    Estimated Inhibition Constant, Ki   =  643.08 nM (nanomolar)  [Temperature = 298.15 K]
USER    
USER    (1) Final Intermolecular Energy     =  -11.73 kcal/mol
USER        vdW + Hbond + desolv Energy     =  -11.73 kcal/mol
USER        Electrostatic Energy            =   +0.00 kcal/mol
USER    (2) Final Total Internal Energy     =   -2.60 kcal/mol
USER    (3) Torsional Free Energy           =   +3.28 kcal/mol
USER    (4) Unbound System's Energy  [=(2)] =   -2.60 kcal/mol
USER    
USER    
USER  
USER    DPF = ligand_dock.biased.dpf
USER    NEWDPF move	ligand.pdbqt
USER    NEWDPF about	0.460000 0.128000 -0.007000
USER    NEWDPF tran0	18.803193 -9.187420 -5.151148
USER    NEWDPF axisangle0	0.425598 -0.898322 -0.109017 -81.517055
USER    NEWDPF quaternion0	0.277861 -0.586489 -0.071174 -0.757468
USER    NEWDPF dihe0	11.75 59.93 3.11 -135.58 -173.91 -101.45 6.45 -107.21 -166.59 134.50 -9.06 
USER  
USER                              x       y       z    vdW   Elec        q     RMS 
ATOM      1  N   UNL     1      18.801  -9.819  -6.574 -0.18 -0.00    +0.000    19.358
ATOM      2  H   UNL     1      19.729  -9.702  -6.166 +0.01 -0.00    +0.000    19.358
ATOM      3  C   UNL     1      17.798  -9.426  -5.561 -0.19 -0.00    +0.000    19.358
ATOM      4  C   UNL     1      18.883 -10.983  -1.671 -0.37 -0.00    +0.000    19.358
ATOM      5  C   UNL     1      19.861 -10.793  -2.662 -0.40 -0.00    +0.000    19.358
ATOM      6  C   UNL     1      19.514 -10.299  -3.922 -0.34 -0.00    +0.000    19.358
ATOM      7  C   UNL     1      18.180  -9.977  -4.213 -0.25 -0.00    +0.000    19.358
ATOM      8  C   UNL     1      17.202 -10.145  -3.223 -0.23 -0.00    +0.000    19.358
ATOM      9  C   UNL     1      17.548 -10.640  -1.962 -0.19 -0.00    +0.000    19.358
ATOM     10  C   UNL     1      19.501 -10.722   0.728 -0.60 -0.00    +0.000    19.358
ATOM     11  C   UNL     1      19.307 -11.500  -0.346 -0.50 -0.00    +0.000    19.358
ATOM     12  O   UNL     1      19.912 -12.491   2.228 -1.59 -0.00    +0.000    19.358
ATOM     13  C   UNL     1      19.923 -11.245   2.045 -0.73 -0.00    +0.000    19.358
ATOM     14  N   UNL     1      20.368 -10.385   3.104 -0.60 -0.00    +0.000    19.358
ATOM     15  H   UNL     1      20.479  -9.422   2.940 -0.57 -0.00    +0.000    19.358
ATOM     16  O   UNL     1      20.635 -10.898   4.329 -0.75 -0.00    +0.000    19.358
ATOM     17  H   UNL     1      20.657 -11.866   4.276 -0.47 -0.00    +0.000    19.358
ATOM     18  C   UNL     1      18.698 -11.260  -6.909 -0.34 -0.00    +0.000    19.358
ATOM     19  C   UNL     1      17.313 -11.632  -7.463 -0.37 -0.00    +0.000    19.358
ATOM     20  O   UNL     1      16.386 -11.817  -6.427 -0.38 -0.00    +0.000    19.358
ATOM     21  H   UNL     1      16.824 -11.683  -5.573 -0.03 -0.00    +0.000    19.358
ATOM     22  C   UNL     1      18.789  -8.914  -7.749 -0.11 -0.00    +0.000    19.358
ATOM     23  C   UNL     1      20.166  -8.313  -8.096 -0.08 -0.00    +0.000    19.358
ATOM     24  C   UNL     1      21.116  -9.396  -8.508 -0.13 -0.00    +0.000    19.358
ATOM     25  C   UNL     1      21.454  -9.754  -9.811 -0.11 -0.00    +0.000    19.358
ATOM     26  N   UNL     1      22.279 -10.826  -9.806 -0.18 -0.00    +0.000    19.358
ATOM     27  C   UNL     1      22.452 -11.156  -8.515 -0.27 -0.00    +0.000    19.358
ATOM     28  C   UNL     1      21.753 -10.311  -7.693 -0.24 -0.00    +0.000    19.358
ATOM     29  C   UNL     1      21.751 -10.466  -6.306 -0.34 -0.00    +0.000    19.358
ATOM     30  C   UNL     1      22.505 -11.523  -5.764 -0.35 -0.00    +0.000    19.358
ATOM     31  C   UNL     1      23.230 -12.392  -6.609 -0.44 -0.00    +0.000    19.358
ATOM     32  C   UNL     1      23.206 -12.213  -8.006 -0.40 -0.00    +0.000    19.358
ATOM     33  H   UNL     1      22.672 -11.273 -10.589 +0.00 -0.00    +0.000    19.358
TER
ENDMDL
MODEL        3
USER    Run = 3
USER    Cluster Rank = 34
USER    Number of conformations in this cluster = 1
USER  
USER    RMSD from reference structure       = 15.961 A
USER  
USER    Estimated Free Energy of Binding    =   -7.87 kcal/mol  [=(1)+(2)+(3)-(4)]
USER    Estimated Inhibition Constant, Ki   =    1.70 uM (micromolar)  [Temperature = 298.15 K]
USER    
USER    (1) Final Intermolecular Energy     =  -11.15 kcal/mol
USER        vdW + Hbond + desolv Energy     =  -11.15 kcal/mol
USER        Electrostatic Energy            =   +0.00 kcal/mol
USER    (2) Final Total Internal Energy     =   -3.39 kcal/mol
USER    (3) Torsional Free Energy           =   +3.28 kcal/mol
USER    (4) Unbound System's Energy  [=(2)] =   -3.39 kcal/mol
USER    
USER    
USER  
USER    DPF = ligand_dock.biased.dpf
USER    NEWDPF move	ligand.pdbqt
USER    NEWDPF about	0.460000 0.128000 -0.007000
USER    NEWDPF tran0	17.749358 -12.644600 2.306711
USER    NEWDPF axisangle0	0.841866 -0.451101 0.296257 171.348459
USER    NEWDPF quaternion0	0.839468 -0.449816 0.295413 0.075427
USER    NEWDPF dihe0	10.01 164.42 179.33 124.77 -145.94 -87.40 15.99 80.32 -180.00 -170.61 158.05 
USER  
USER                              x       y       z    vdW   Elec        q     RMS 
ATOM      1  N   UNL     1      18.236 -11.169   2.402 -0.49 -0.00    +0.000    15.961
ATOM      2  H   UNL     1      17.935 -11.572   3.290 -0.02 +0.00    +0.000    15.961
ATOM      3  C   UNL     1      18.187 -12.229   1.373 -0.52 -0.00    +0.000    15.961
ATOM      4  C   UNL     1      15.692 -11.010  -1.947 -0.20 -0.00    +0.000    15.961
ATOM      5  C   UNL     1      17.004 -10.521  -1.823 -0.23 -0.00    +0.000    15.961
ATOM      6  C   UNL     1      17.809 -10.905  -0.748 -0.34 -0.00    +0.000    15.961
ATOM      7  C   UNL     1      17.320 -11.793   0.221 -0.43 +0.00    +0.000    15.961
ATOM      8  C   UNL     1      16.020 -12.301   0.092 -0.46 +0.00    +0.000    15.961
ATOM      9  C   UNL     1      15.212 -11.918  -0.982 -0.36 +0.00    +0.000    15.961
ATOM     10  C   UNL     1      14.483 -11.407  -4.089 -0.27 -0.00    +0.000    15.961
ATOM     11  C   UNL     1      14.882 -10.578  -3.114 -0.29 -0.00    +0.000    15.961
ATOM     12  O   UNL     1      13.619  -9.740  -5.510 -0.13 -0.00    +0.000    15.961
ATOM     13  C   UNL     1      13.676 -10.970  -5.248 -0.23 -0.00    +0.000    15.961
ATOM     14  N   UNL     1      12.984 -11.899  -6.093 -0.18 -0.00    +0.000    15.961
ATOM     15  H   UNL     1      13.104 -12.867  -5.961 -0.13 -0.00    +0.000    15.961
ATOM     16  O   UNL     1      12.165 -11.447  -7.073 -0.16 -0.00    +0.000    15.961
ATOM     17  H   UNL     1      12.279 -10.489  -7.172 -0.00 -0.00    +0.000    15.961
ATOM     18  C   UNL     1      19.624 -10.702   2.634 -0.70 -0.00    +0.000    15.961
ATOM     19  C   UNL     1      20.636 -11.859   2.632 -0.67 -0.00    +0.000    15.961
ATOM     20  O   UNL     1      21.217 -12.021   1.366 -1.09 -0.00    +0.000    15.961
ATOM     21  H   UNL     1      22.116 -11.657   1.373 -0.58 -0.00    +0.000    15.961
ATOM     22  C   UNL     1      17.261 -10.085   2.132 -0.44 +0.00    +0.000    15.961
ATOM     23  C   UNL     1      16.119  -9.990   3.163 -0.47 +0.00    +0.000    15.961
ATOM     24  C   UNL     1      14.832 -10.463   2.558 -0.35 +0.00    +0.000    15.961
ATOM     25  C   UNL     1      14.159 -11.645   2.856 -0.28 +0.00    +0.000    15.961
ATOM     26  N   UNL     1      13.073 -11.781   2.061 -0.40 +0.00    +0.000    15.961
ATOM     27  C   UNL     1      13.064 -10.705   1.256 -0.28 +0.00    +0.000    15.961
ATOM     28  C   UNL     1      14.126  -9.880   1.525 -0.22 +0.00    +0.000    15.961
ATOM     29  C   UNL     1      14.351  -8.709   0.801 -0.22 +0.00    +0.000    15.961
ATOM     30  C   UNL     1      13.439  -8.386  -0.222 -0.16 -0.00    +0.000    15.961
ATOM     31  C   UNL     1      12.342  -9.232  -0.497 -0.14 +0.00    +0.000    15.961
ATOM     32  C   UNL     1      12.147 -10.411   0.248 -0.24 +0.00    +0.000    15.961
ATOM     33  H   UNL     1      12.422 -12.519   2.070 -0.49 +0.00    +0.000    15.961
TER
ENDMDL
MODEL       59
USER    Run = 59
USER    Cluster Rank = 35
USER    Number of conformations in this cluster = 1
USER  
USER    RMSD from reference structure       = 13.562 A
USER  
USER    Estimated Free Energy of Binding    =   -7.66 kcal/mol  [=(1)+(2)+(3)-(4)]
USER    Estimated Inhibition Constant, Ki   =    2.42 uM (micromolar)  [Temperature = 298.15 K]
USER    
USER    (1) Final Intermolecular Energy     =  -10.94 kcal/mol
USER        vdW + Hbond + desolv Energy     =  -10.94 kcal/mol
USER        Electrostatic Energy            =   +0.00 kcal/mol
USER    (2) Final Total Internal Energy     =   -2.92 kcal/mol
USER    (3) Torsional Free Energy           =   +3.28 kcal/mol
USER    (4) Unbound System's Energy  [=(2)] =   -2.92 kcal/mol
USER    
USER    
USER  
USER    DPF = ligand_dock.biased.dpf
USER    NEWDPF move	ligand.pdbqt
USER    NEWDPF about	0.460000 0.128000 -0.007000
USER    NEWDPF tran0	14.369895 -5.883575 4.951940
USER    NEWDPF axisangle0	0.436978 0.896932 0.067553 75.933105
USER    NEWDPF quaternion0	0.268830 0.551794 0.041559 0.788370
USER    NEWDPF dihe0	-0.80 -77.11 94.65 5.79 -31.68 150.25 -52.49 -28.57 172.37 -165.13 63.20 
USER  
USER                              x       y       z    vdW   Elec        q     RMS 
ATOM      1  N   UNL     1      13.564  -7.165   4.586 -0.27 +0.00    +0.000    13.562
ATOM      2  H   UNL     1      14.533  -7.338   4.856 -0.01 +0.00    +0.000    13.562
ATOM      3  C   UNL     1      13.285  -5.724   4.768 -0.30 +0.00    +0.000    13.562
ATOM      4  C   UNL     1      16.894  -3.399   4.220 -0.42 -0.00    +0.000    13.562
ATOM      5  C   UNL     1      16.124  -3.791   3.113 -0.26 -0.00    +0.000    13.562
ATOM      6  C   UNL     1      14.963  -4.549   3.284 -0.28 -0.00    +0.000    13.562
ATOM      7  C   UNL     1      14.545  -4.924   4.570 -0.34 +0.00    +0.000    13.562
ATOM      8  C   UNL     1      15.298  -4.518   5.681 -0.43 +0.00    +0.000    13.562
ATOM      9  C   UNL     1      16.461  -3.760   5.511 -0.44 -0.00    +0.000    13.562
ATOM     10  C   UNL     1      18.621  -2.342   2.767 -0.48 -0.00    +0.000    13.562
ATOM     11  C   UNL     1      18.113  -2.585   3.984 -0.25 -0.00    +0.000    13.562
ATOM     12  O   UNL     1      20.730  -1.990   1.782 -0.58 -0.00    +0.000    13.562
ATOM     13  C   UNL     1      19.835  -1.531   2.539 -0.55 -0.00    +0.000    13.562
ATOM     14  N   UNL     1      20.011  -0.234   3.126 -0.46 -0.00    +0.000    13.562
ATOM     15  H   UNL     1      19.277   0.179   3.634 -0.50 -0.00    +0.000    13.562
ATOM     16  O   UNL     1      21.187   0.424   2.981 -0.49 -0.00    +0.000    13.562
ATOM     17  H   UNL     1      21.802  -0.124   2.469 -0.11 -0.00    +0.000    13.562
ATOM     18  C   UNL     1      12.747  -7.995   5.503 -0.37 +0.00    +0.000    13.562
ATOM     19  C   UNL     1      13.347  -9.394   5.714 -0.46 +0.00    +0.000    13.562
ATOM     20  O   UNL     1      14.639  -9.478   5.176 -0.50 +0.00    +0.000    13.562
ATOM     21  H   UNL     1      14.745 -10.325   4.717 -0.03 +0.00    +0.000    13.562
ATOM     22  C   UNL     1      13.491  -7.571   3.162 -0.21 +0.00    +0.000    13.562
ATOM     23  C   UNL     1      14.864  -7.822   2.506 -0.29 +0.00    +0.000    13.562
ATOM     24  C   UNL     1      14.779  -8.974   1.551 -0.24 +0.00    +0.000    13.562
ATOM     25  C   UNL     1      13.735  -9.250   0.673 -0.17 +0.00    +0.000    13.562
ATOM     26  N   UNL     1      13.963 -10.413   0.021 -0.22 +0.00    +0.000    13.562
ATOM     27  C   UNL     1      15.133 -10.879   0.489 -0.29 +0.00    +0.000    13.562
ATOM     28  C   UNL     1      15.659 -10.031   1.430 -0.29 +0.00    +0.000    13.562
ATOM     29  C   UNL     1      16.858 -10.311   2.086 -0.39 +0.00    +0.000    13.562
ATOM     30  C   UNL     1      17.529 -11.500   1.744 -0.41 +0.00    +0.000    13.562
ATOM     31  C   UNL     1      16.991 -12.372   0.772 -0.45 +0.00    +0.000    13.562
ATOM     32  C   UNL     1      15.775 -12.064   0.133 -0.43 +0.00    +0.000    13.562
ATOM     33  H   UNL     1      13.388 -10.832  -0.659 -0.00 +0.00    +0.000    13.562
TER
ENDMDL
MODEL       68
USER    Run = 68
USER    Cluster Rank = 36
USER    Number of conformations in this cluster = 1
USER  
USER    RMSD from reference structure       = 22.351 A
USER  
USER    Estimated Free Energy of Binding    =   -7.35 kcal/mol  [=(1)+(2)+(3)-(4)]
USER    Estimated Inhibition Constant, Ki   =    4.07 uM (micromolar)  [Temperature = 298.15 K]
USER    
USER    (1) Final Intermolecular Energy     =  -10.64 kcal/mol
USER        vdW + Hbond + desolv Energy     =  -10.64 kcal/mol
USER        Electrostatic Energy            =   +0.00 kcal/mol
USER    (2) Final Total Internal Energy     =   -2.93 kcal/mol
USER    (3) Torsional Free Energy           =   +3.28 kcal/mol
USER    (4) Unbound System's Energy  [=(2)] =   -2.93 kcal/mol
USER    
USER    
USER  
USER    DPF = ligand_dock.biased.dpf
USER    NEWDPF move	ligand.pdbqt
USER    NEWDPF about	0.460000 0.128000 -0.007000
USER    NEWDPF tran0	22.612330 -11.430441 -9.030166
USER    NEWDPF axisangle0	0.576605 -0.185436 -0.795701 -158.955779
USER    NEWDPF quaternion0	0.566909 -0.182318 -0.782321 -0.182615
USER    NEWDPF dihe0	-1.75 16.56 67.43 41.97 119.06 8.05 -170.97 -93.86 134.33 180.00 176.52 
USER  
USER                              x       y       z    vdW   Elec        q     RMS 
ATOM      1  N   UNL     1      22.794  -9.892  -8.879 -0.14 -0.00    +0.000    22.351
ATOM      2  H   UNL     1      23.432 -10.328  -9.545 +0.01 -0.00    +0.000    22.351
ATOM      3  C   UNL     1      21.852 -10.924  -8.397 -0.28 -0.00    +0.000    22.351
ATOM      4  C   UNL     1      20.976 -10.343  -4.198 -0.43 -0.00    +0.000    22.351
ATOM      5  C   UNL     1      20.515  -9.425  -5.157 -0.25 -0.00    +0.000    22.351
ATOM      6  C   UNL     1      20.803  -9.605  -6.512 -0.21 -0.00    +0.000    22.351
ATOM      7  C   UNL     1      21.552 -10.711  -6.937 -0.30 -0.00    +0.000    22.351
ATOM      8  C   UNL     1      21.998 -11.642  -5.988 -0.41 -0.00    +0.000    22.351
ATOM      9  C   UNL     1      21.712 -11.464  -4.631 -0.33 -0.00    +0.000    22.351
ATOM     10  C   UNL     1      21.401 -10.514  -1.749 -0.60 -0.00    +0.000    22.351
ATOM     11  C   UNL     1      20.634 -10.112  -2.773 -0.52 -0.00    +0.000    22.351
ATOM     12  O   UNL     1      21.244  -9.132   0.151 -0.62 -0.00    +0.000    22.351
ATOM     13  C   UNL     1      21.054 -10.280  -0.332 -0.70 -0.00    +0.000    22.351
ATOM     14  N   UNL     1      20.485 -11.303   0.497 -0.62 -0.00    +0.000    22.351
ATOM     15  H   UNL     1      20.236 -12.170   0.105 -0.06 -0.00    +0.000    22.351
ATOM     16  O   UNL     1      20.288 -11.077   1.818 -1.10 -0.00    +0.000    22.351
ATOM     17  H   UNL     1      20.611 -10.191   2.046 -0.32 -0.00    +0.000    22.351
ATOM     18  C   UNL     1      22.093  -8.833  -9.644 -0.07 -0.00    +0.000    22.351
ATOM     19  C   UNL     1      22.656  -8.671 -11.065 -0.03 -0.00    +0.000    22.351
ATOM     20  O   UNL     1      23.919  -9.269 -11.181 -0.04 -0.00    +0.000    22.351
ATOM     21  H   UNL     1      24.458  -9.041 -10.409 +0.00 -0.00    +0.000    22.351
ATOM     22  C   UNL     1      23.670  -9.387  -7.794 -0.23 -0.00    +0.000    22.351
ATOM     23  C   UNL     1      24.672 -10.428  -7.255 -0.16 -0.00    +0.000    22.351
ATOM     24  C   UNL     1      25.826 -10.575  -8.200 -0.35 -0.00    +0.000    22.351
ATOM     25  C   UNL     1      25.836 -11.291  -9.394 -0.31 -0.00    +0.000    22.351
ATOM     26  N   UNL     1      27.071 -11.269  -9.945 -0.26 -0.00    +0.000    22.351
ATOM     27  C   UNL     1      27.842 -10.560  -9.103 -0.33 -0.00    +0.000    22.351
ATOM     28  C   UNL     1      27.119 -10.124  -8.023 -0.39 -0.00    +0.000    22.351
ATOM     29  C   UNL     1      27.705  -9.388  -6.992 -0.44 -0.00    +0.000    22.351
ATOM     30  C   UNL     1      29.077  -9.091  -7.098 -0.37 -0.00    +0.000    22.351
ATOM     31  C   UNL     1      29.822  -9.535  -8.213 -0.30 -0.00    +0.000    22.351
ATOM     32  C   UNL     1      29.202 -10.282  -9.233 -0.31 -0.00    +0.000    22.351
ATOM     33  H   UNL     1      27.349 -11.689 -10.791 -0.15 -0.00    +0.000    22.351
TER
ENDMDL


AVSFLD: # AVS field file
AVSFLD: #
AVSFLD: # Created by AutoDock
AVSFLD: #
AVSFLD: ndim=2           # number of dimensions in the field
AVSFLD: nspace=1         # number of physical coordinates
AVSFLD: veclen=7         # vector size
AVSFLD: dim1=33          # atoms
AVSFLD: dim2=36          # conformations
AVSFLD: data=Real       # data type (byte,integer,Real,double)
AVSFLD: field=uniform    # field coordinate layout
AVSFLD: label= x y z vdW Elec q RMS
AVSFLD: variable 1 file = ligand_dock.biased.dlg.pdb filetype = ascii offset = 5 stride = 12
AVSFLD: variable 2 file = ligand_dock.biased.dlg.pdb filetype = ascii offset = 6 stride = 12
AVSFLD: variable 3 file = ligand_dock.biased.dlg.pdb filetype = ascii offset = 7 stride = 12
AVSFLD: variable 4 file = ligand_dock.biased.dlg.pdb filetype = ascii offset = 8 stride = 12
AVSFLD: variable 5 file = ligand_dock.biased.dlg.pdb filetype = ascii offset = 9 stride = 12
AVSFLD: variable 6 file = ligand_dock.biased.dlg.pdb filetype = ascii offset = 10 stride = 12
AVSFLD: variable 7 file = ligand_dock.biased.dlg.pdb filetype = ascii offset = 11 stride = 12
AVSFLD: # end of file

>>> Closing the docking parameter file (DPF)...
This docking finished at:			5:48 24" p.m., 11/03/2024


________________________________________________________________________________

autodock4: Successful Completion on "ThinkStation-P620"

Real= 17m 09.12s,  CPU= 17m 08.79s,  System= 0.17s
________________________________________________________________________________

