REMARK  Name = 
REMARK  6 active torsions:
REMARK  status: ('A' for Active; 'I' for Inactive)
REMARK    1  A    between atoms: C_2  and  C_5
REMARK    2  A    between atoms: C_5  and  C_6
REMARK    3  A    between atoms: C_6  and  C_7
REMARK    4  A    between atoms: C_7  and  C_8
REMARK    5  A    between atoms: C_8  and  C_9
REMARK    6  A    between atoms: C_9  and  N_10
REMARK                            x       y       z     vdW  Elec       q    Type
REMARK                         _______ _______ _______ _____ _____    ______ ____
ROOT
ATOM      1  N   UNL     1      -0.614   0.769  -0.135  0.00  0.00     0.000 N 
ATOM      2  C   UNL     1      -1.357  -0.048  -1.059  0.00  0.00     0.000 C 
ATOM      3  C   UNL     1      -2.807  -0.269  -0.852  0.00  0.00     0.000 A 
ATOM      4  C   UNL     1      -3.550  -1.039  -1.764  0.00  0.00     0.000 A 
ATOM      5  C   UNL     1      -4.916  -1.248  -1.569  0.00  0.00     0.000 A 
ATOM      6  C   UNL     1      -5.562  -0.695  -0.464  0.00  0.00     0.000 A 
ATOM      7  C   UNL     1      -4.843   0.076   0.461  0.00  0.00     0.000 A 
ATOM      8  C   UNL     1      -5.492   0.630   1.573  0.00  0.00     0.000 A 
ATOM      9  C   UNL     1      -4.777   1.394   2.495  0.00  0.00     0.000 A 
ATOM     10  C   UNL     1      -3.410   1.615   2.317  0.00  0.00     0.000 A 
ATOM     11  C   UNL     1      -2.736   1.071   1.209  0.00  0.00     0.000 A 
ATOM     12  C   UNL     1      -3.454   0.295   0.271  0.00  0.00     0.000 A 
ATOM     13  O   UNL     1      -0.774  -0.578  -2.045  0.00  0.00     0.000 OA
ATOM     14  C   UNL     1      -1.286   1.305   1.021  0.00  0.00     0.000 C 
ATOM     15  O   UNL     1      -0.640   1.972   1.876  0.00  0.00     0.000 OA
ATOM     26  CM  UNL     1      -2.004   0.527   0.070  1.00  0.00     0.000 AC
ATOM     27  CM  UNL     1      -4.189  -0.480  -0.653  1.00  0.00     0.000 AC
ATOM     28  CM  UNL     1      -4.119   0.847   1.388  1.00  0.00     0.000 AC
ENDROOT
BRANCH   1  16
ATOM     16  C   UNL     1       0.832   0.965  -0.311  0.00  0.00     0.000 C 
BRANCH  16  17
ATOM     17  C   UNL     1       1.607  -0.155   0.390  0.00  0.00     0.000 C 
BRANCH  17  18
ATOM     18  C   UNL     1       3.119   0.028   0.218  0.00  0.00     0.000 C 
BRANCH  18  19
ATOM     19  C   UNL     1       3.892  -1.101   0.916  0.00  0.00     0.000 C 
BRANCH  19  20
ATOM     20  C   UNL     1       5.412  -0.906   0.829  0.00  0.00     0.000 C 
BRANCH  20  22
ATOM     21  O   UNL     1       6.098  -2.235  -1.035  0.00  0.00     0.000 OA
ATOM     22  C   UNL     1       5.916  -1.076  -0.575  0.00  0.00     0.000 C 
ATOM     23  N   UNL     1       6.158   0.066  -1.400  0.00  0.00     0.000 N 
ATOM     24  O   UNL     1       6.596  -0.088  -2.671  0.00  0.00     0.000 OA
ATOM     25  H   UNL     1       6.004   0.970  -1.042  0.00  0.00     0.000 HD
ENDBRANCH  20  22
ENDBRANCH  19  20
ENDBRANCH  18  19
ENDBRANCH  17  18
ENDBRANCH  16  17
ENDBRANCH   1  16
TORSDOF 6