          AutoDock 4.2 Release 4.2.6   
         (C) 1989-2012 The Scripps Research Institute
        AutoDock comes with ABSOLUTELY NO WARRANTY.
        AutoDock is free software, and you are welcome
        to redistribute it under certain conditions;
        for details type 'autodock4 -C'

                     main.cc  $Revision: 1.213 $

                   Compiled on Feb 20 2022 at 09:48:33


This file was created at:			6:07 09" p.m., 11/08/2024
                   on host:		"ThinkStation-P620"
Current Working Directory = "/home/antonio/Documenti/buccheri/IDROSSAMICO HDAC/HDAC 8/DP (copia)/Ligand_5"

      ________________________________________________________________

                   SETTING UP DEFAULT PARAMETER LIBRARY
      ________________________________________________________________


Random number generator was seeded with values 355271, 1731085629.
Docking parameter file (DPF) used for this docking:		ligand_dock.biased.dpf
DPF> parameter_file ad4_arom_params.dat

Using read_parameter_library() to try to open and read "ad4_arom_params.dat".

DPF> autodock_parameter_version 4.2       # used by autodock to validate parameter set

	Autodock parameter version 4.2.
DPF> outlev 1                             # diagnostic output level

Output Level = 1  ADT-COMPATIBLE OUTPUT DURING DOCKING.
DPF> intelec                              # calculate internal electrostatics

Electrostatic energies will be calculated for all non-bonds between moving atoms.
DPF> seed pid time                        # seeds for random generator

Random number generator was seeded with values 355271, 1731085629.
DPF> ligand_types A C HD OA N AC

WARNING: pairwise distance, Rij, 0.00, is not a very reasonable value for the equilibrium separation of two atoms! (0.90 Angstroms <= Rij <= 6.00 Angstroms)

Perhaps you meant to use "intnbp_coeffs" instead of "intnbp_r_eps"?

DPF> fld receptor.maps.fld                # grid_data_file

Opening Grid Map Dimensions file:		receptor.maps.fld
Grid Point Spacing =				0.375 Angstroms

Even Number of User-specified Grid Points =	70 x-points
						70 y-points
						70 z-points

Coordinates of Central Grid Point of Maps =	(36.691, 12.592, 124.207)
Macromolecule file used to create Grid Maps =	receptor.pdbqt
Grid Parameter file used to create Grid Maps =	receptor.gpf
Minimum coordinates in grid = (23.566, -0.533, 111.082)
Maximum coordinates in grid = (49.816, 25.717, 137.332)

DPF> map receptor.A.map                   # atom-specific affinity map

DPF> map receptor.C.map                   # atom-specific affinity map

DPF> map receptor.HD.map                  # atom-specific affinity map

DPF> map receptor.OA.biased.map

DPF> map receptor.N.map                   # atom-specific affinity map

DPF> map receptor.AC.biased.map

DPF> elecmap receptor.e.map               # electrostatics map

DPF> desolvmap receptor.d.map             # desolvation map

DPF> move ligand.dum.pdbqt

1,4-interactions will be _ignored_ in the non-bonded internal energy calculation.

Ligand PDBQT file = "ligand.dum.pdbqt"

INPUT LIGAND PDBQT FILE:
________________________

INPUT-LIGAND-PDBQT: REMARK  Name = 
INPUT-LIGAND-PDBQT: REMARK  6 active torsions:
INPUT-LIGAND-PDBQT: REMARK  status: ('A' for Active; 'I' for Inactive)
INPUT-LIGAND-PDBQT: REMARK    1  A    between atoms: C_2  and  C_5
INPUT-LIGAND-PDBQT: REMARK    2  A    between atoms: C_5  and  C_6
INPUT-LIGAND-PDBQT: REMARK    3  A    between atoms: C_6  and  C_7
INPUT-LIGAND-PDBQT: REMARK    4  A    between atoms: C_7  and  C_8
INPUT-LIGAND-PDBQT: REMARK    5  A    between atoms: C_8  and  C_9
INPUT-LIGAND-PDBQT: REMARK    6  A    between atoms: C_9  and  N_10
INPUT-LIGAND-PDBQT: REMARK                            x       y       z     vdW  Elec       q    Type
INPUT-LIGAND-PDBQT: REMARK                         _______ _______ _______ _____ _____    ______ ____
INPUT-LIGAND-PDBQT: ROOT
INPUT-LIGAND-PDBQT: ATOM      1  N   UNL     1      -0.614   0.769  -0.135  0.00  0.00     0.000 N 
INPUT-LIGAND-PDBQT: ATOM      2  C   UNL     1      -1.357  -0.048  -1.059  0.00  0.00     0.000 C 
INPUT-LIGAND-PDBQT: ATOM      3  C   UNL     1      -2.807  -0.269  -0.852  0.00  0.00     0.000 A 
INPUT-LIGAND-PDBQT: ATOM      4  C   UNL     1      -3.550  -1.039  -1.764  0.00  0.00     0.000 A 
INPUT-LIGAND-PDBQT: ATOM      5  C   UNL     1      -4.916  -1.248  -1.569  0.00  0.00     0.000 A 
INPUT-LIGAND-PDBQT: ATOM      6  C   UNL     1      -5.562  -0.695  -0.464  0.00  0.00     0.000 A 
INPUT-LIGAND-PDBQT: ATOM      7  C   UNL     1      -4.843   0.076   0.461  0.00  0.00     0.000 A 
INPUT-LIGAND-PDBQT: ATOM      8  C   UNL     1      -5.492   0.630   1.573  0.00  0.00     0.000 A 
INPUT-LIGAND-PDBQT: ATOM      9  C   UNL     1      -4.777   1.394   2.495  0.00  0.00     0.000 A 
INPUT-LIGAND-PDBQT: ATOM     10  C   UNL     1      -3.410   1.615   2.317  0.00  0.00     0.000 A 
INPUT-LIGAND-PDBQT: ATOM     11  C   UNL     1      -2.736   1.071   1.209  0.00  0.00     0.000 A 
INPUT-LIGAND-PDBQT: ATOM     12  C   UNL     1      -3.454   0.295   0.271  0.00  0.00     0.000 A 
INPUT-LIGAND-PDBQT: ATOM     13  O   UNL     1      -0.774  -0.578  -2.045  0.00  0.00     0.000 OA
INPUT-LIGAND-PDBQT: ATOM     14  C   UNL     1      -1.286   1.305   1.021  0.00  0.00     0.000 C 
INPUT-LIGAND-PDBQT: ATOM     15  O   UNL     1      -0.640   1.972   1.876  0.00  0.00     0.000 OA
INPUT-LIGAND-PDBQT: ATOM     26  CM  UNL     1      -2.004   0.527   0.070  1.00  0.00     0.000 AC
INPUT-LIGAND-PDBQT: ATOM     27  CM  UNL     1      -4.189  -0.480  -0.653  1.00  0.00     0.000 AC
INPUT-LIGAND-PDBQT: ATOM     28  CM  UNL     1      -4.119   0.847   1.388  1.00  0.00     0.000 AC
INPUT-LIGAND-PDBQT: ENDROOT
INPUT-LIGAND-PDBQT: BRANCH   1  16
INPUT-LIGAND-PDBQT: ATOM     16  C   UNL     1       0.832   0.965  -0.311  0.00  0.00     0.000 C 
INPUT-LIGAND-PDBQT: BRANCH  16  17
INPUT-LIGAND-PDBQT: ATOM     17  C   UNL     1       1.607  -0.155   0.390  0.00  0.00     0.000 C 
INPUT-LIGAND-PDBQT: BRANCH  17  18
INPUT-LIGAND-PDBQT: ATOM     18  C   UNL     1       3.119   0.028   0.218  0.00  0.00     0.000 C 
INPUT-LIGAND-PDBQT: BRANCH  18  19
INPUT-LIGAND-PDBQT: ATOM     19  C   UNL     1       3.892  -1.101   0.916  0.00  0.00     0.000 C 
INPUT-LIGAND-PDBQT: BRANCH  19  20
INPUT-LIGAND-PDBQT: ATOM     20  C   UNL     1       5.412  -0.906   0.829  0.00  0.00     0.000 C 
INPUT-LIGAND-PDBQT: BRANCH  20  22
INPUT-LIGAND-PDBQT: ATOM     21  O   UNL     1       6.098  -2.235  -1.035  0.00  0.00     0.000 OA
INPUT-LIGAND-PDBQT: ATOM     22  C   UNL     1       5.916  -1.076  -0.575  0.00  0.00     0.000 C 
INPUT-LIGAND-PDBQT: ATOM     23  N   UNL     1       6.158   0.066  -1.400  0.00  0.00     0.000 N 
INPUT-LIGAND-PDBQT: ATOM     24  O   UNL     1       6.596  -0.088  -2.671  0.00  0.00     0.000 OA
INPUT-LIGAND-PDBQT: ATOM     25  H   UNL     1       6.004   0.970  -1.042  0.00  0.00     0.000 HD
INPUT-LIGAND-PDBQT: ENDBRANCH  20  22
INPUT-LIGAND-PDBQT: ENDBRANCH  19  20
INPUT-LIGAND-PDBQT: ENDBRANCH  18  19
INPUT-LIGAND-PDBQT: ENDBRANCH  17  18
INPUT-LIGAND-PDBQT: ENDBRANCH  16  17
INPUT-LIGAND-PDBQT: ENDBRANCH   1  16
INPUT-LIGAND-PDBQT: TORSDOF 6________________________________________________________________________________

Total charge on ligand                               =	+0.000 e
REMARK  Name = 
REMARK  6 active torsions:
REMARK  status: ('A' for Active; 'I' for Inactive)
REMARK    1  A    between atoms: C_2  and  C_5
REMARK    2  A    between atoms: C_5  and  C_6
REMARK    3  A    between atoms: C_6  and  C_7
REMARK    4  A    between atoms: C_7  and  C_8
REMARK    5  A    between atoms: C_8  and  C_9
REMARK    6  A    between atoms: C_9  and  N_10
REMARK                            x       y       z     vdW  Elec       q    Type
REMARK                         _______ _______ _______ _____ _____    ______ ____


Number of Rotatable Bonds in Small Molecule =	6 torsions
Number of atoms in ligand:  28

Number of non-hydrogen atoms in ligand:  27

Number of vibrational degrees of freedom of ligand:  78


Number of torsional degrees of freedom = 6
Estimated loss of torsional free energy upon binding = +1.7898 kcal/mol


DPF> about -0.023 0.069 -0.054            # small molecule center

Small molecule center of rotation =	(-0.023, +0.069, -0.054)

DPF> tran0 random                         # initial coordinates/A or random

Initial translation =			(44.896, 8.528, 129.818) Angstroms
DPF> quaternion0 random                   # initial orientation

Each run will begin with a new, random initial orientation.
Initial quaternion,  (x,y,z,w) =	( 0.163, -0.048, -0.551, 0.817 ),
DPF> dihe0 random                         # initial dihedrals (relative) or random

DPF> torsdof 6                            # torsional degrees of freedom

Number of torsional degrees of freedom = 6
Free energy coefficient for torsional degrees of freedom = 0.2983 as specified in parameter library "ad4_arom_params.dat".

Estimated loss of torsional free energy upon binding = +1.7898 kcal/mol

DPF> rmstol 2.0                           # cluster_tolerance/A

Maximum RMS tolerance for conformational cluster analysis = 2.00 Angstroms
DPF> extnrg 1000.0                        # external grid energy

External grid energy (beyond grid map walls) = 1000.00

DPF> e0max 0.0 10000                      # max initial energy; max number of retries

Using user-specified maximum number of retries for simanneal initialization, 10000 retries.
If the simanneal initial energy is greater than e0max, 0.000,
then a new, random initial state will be created.

DPF> ga_pop_size 150                      # number of individuals in population

A population of 150 individuals will be used
DPF> ga_num_evals 2500000                 # maximum number of energy evaluations

There will be at most 2500000 function evaluations used.
DPF> ga_num_generations 27000             # maximum number of generations

The GA will run for at most 27000 generations.
DPF> ga_elitism 1                         # number of top individuals to survive to next generation

The 1 best will be preserved each GA generation.
DPF> ga_mutation_rate 0.02                # rate of gene mutation

The mutation rate is 0.020000.
DPF> ga_crossover_rate 0.8                # rate of crossover

The crossover rate is 0.800000.
DPF> ga_window_size 10                    # 

The GA's selection window is 10 generations.
DPF> ga_cauchy_alpha 0.0                  # Alpha parameter of Cauchy distribution

The alpha parameter (for the Cauchy distribution) is being set to 0.000000.
DPF> ga_cauchy_beta 1.0                   # Beta parameter Cauchy distribution

The beta parameter (for the Cauchy distribution) is being set to 1.000000.
DPF> set_ga                               # set the above parameters for GA or LGA

DPF> sw_max_its 300                       # iterations of Solis & Wets local search

Solis & Wets algorithms will perform at most 300 iterations.
DPF> sw_max_succ 4                        # consecutive successes before changing rho

Solis & Wets algorithms expand rho every 4 in a row successes.
DPF> sw_max_fail 4                        # consecutive failures before changing rho

Solis & Wets algorithms contract rho every 4 in a row failures.
DPF> sw_rho 1.0                           # size of local search space to sample

rho is set to 1.000000.
DPF> sw_lb_rho 0.01                       # lower bound on rho

rho will never get smaller than 0.010000.
DPF> ls_search_freq 0.06                  # probability of performing local search on individual

Local search will be performed with frequency 0.060000.
DPF> set_psw1                             # set the above pseudo-Solis & Wets parameters

Creating a new Local Search object using the pseudo-Solis-Wets algorithm (pSW1) with the current settings.

DPF> unbound_model bound                  # state of unbound ligand

DPF> ga_run 100                           # do this many hybrid GA-LS runs

centering ligand on specified point: -0.023 0.069 -0.054
Furthest true ligand atom from "about" center is 7.119 Angstroms (maxrad).
Number of requested GA dockings = 100 runs
Unbound model to be used is 'same as bound' [AutoDock 4.2 default].

	BEGINNING GENETIC ALGORITHM DOCKING 1 of 100
Run: 1 Seed: 1668324882 968752072 [ Run 1 of 100 GA/GALS ]
Beginning LAMARCKIAN GENETIC ALGORITHM (LGA), with a maximum of 2500000 energy evaluations.

Final-Value: -14.061


	FINAL GENETIC ALGORITHM DOCKED STATE
	_______________________________________________


Detailed state:  trans 36.434 15.205 123.045 quatxyzw 0.202662 -0.511585 0.379668 0.743681 center -0.023 0.069 -0.054 ntor 6 176.5602 -96.8017 -167.7636 -28.9562 -120.0863 1.0122
State:	 36.434  15.205 123.045   0.303 -0.765  0.568 83.908    176.56  -96.80 -167.76  -28.96 -120.09    1.01

DOCKED: MODEL        1
DOCKED: USER    Run = 1
DOCKED: USER    DPF = ligand_dock.biased.dpf
DOCKED: USER  
DOCKED: USER    Estimated Free Energy of Binding    =  -11.54 kcal/mol  [=(1)+(2)+(3)-(4)]
DOCKED: USER    Estimated Inhibition Constant, Ki   =    3.50 nM (nanomolar)  [Temperature = 298.15 K]
DOCKED: USER    
DOCKED: USER    (1) Final Intermolecular Energy     =  -13.33 kcal/mol
DOCKED: USER        vdW + Hbond + desolv Energy     =  -13.33 kcal/mol
DOCKED: USER        Electrostatic Energy            =   +0.00 kcal/mol
DOCKED: USER    (2) Final Total Internal Energy     =   -0.73 kcal/mol
DOCKED: USER    (3) Torsional Free Energy           =   +1.79 kcal/mol
DOCKED: USER    (4) Unbound System's Energy  [=(2)] =   -0.73 kcal/mol
DOCKED: USER    
DOCKED: USER    
DOCKED: USER    NEWDPF move ligand.dum.pdbqt
DOCKED: USER    NEWDPF about -0.023000 0.069000 -0.054000
DOCKED: USER    NEWDPF tran0 36.434454 15.205009 123.044846
DOCKED: USER    NEWDPF quaternion0 0.202662 -0.511585 0.379668 0.743681
DOCKED: USER    NEWDPF axisangle0 0.303144 -0.765233 0.567911 83.908146
DOCKED: USER    NEWDPF quat0 0.303144 -0.765233 0.567911 83.908146
DOCKED: USER    NEWDPF dihe0 176.56 -96.80 -167.76 -28.96 -120.09 1.01 
DOCKED: USER  keepresnum = 1 
DOCKED: USER  
DOCKED: REMARK  Name = 
DOCKED: REMARK  6 active torsions:
DOCKED: REMARK  status: ('A' for Active; 'I' for Inactive)
DOCKED: REMARK    1  A    between atoms: C_2  and  C_5
DOCKED: REMARK    2  A    between atoms: C_5  and  C_6
DOCKED: REMARK    3  A    between atoms: C_6  and  C_7
DOCKED: REMARK    4  A    between atoms: C_7  and  C_8
DOCKED: REMARK    5  A    between atoms: C_8  and  C_9
DOCKED: REMARK    6  A    between atoms: C_9  and  N_10
DOCKED: REMARK                            x       y       z     vdW  Elec       q    Type
DOCKED: REMARK                         _______ _______ _______ _____ _____    ______ ____
DOCKED: USER                              x       y       z     vdW  Elec       q    Type
DOCKED: USER                           _______ _______ _______ _____ _____    ______ ____
DOCKED: ROOT
DOCKED: ATOM      1  N   UNL     1      36.499  16.109 122.889 -0.30 -0.00    +0.000 N 
DOCKED: ATOM      2  C   UNL     1      35.222  16.249 123.539 -0.46 -0.00    +0.000 C 
DOCKED: ATOM      3  C   UNL     1      35.060  17.211 124.653 -0.35 -0.00    +0.000 A 
DOCKED: ATOM      4  C   UNL     1      33.810  17.379 125.276 -0.33 -0.00    +0.000 A 
DOCKED: ATOM      5  C   UNL     1      33.657  18.285 126.326 -0.30 -0.00    +0.000 A 
DOCKED: ATOM      6  C   UNL     1      34.744  19.036 126.773 -0.18 -0.00    +0.000 A 
DOCKED: ATOM      7  C   UNL     1      36.001  18.886 126.169 -0.16 -0.00    +0.000 A 
DOCKED: ATOM      8  C   UNL     1      37.094  19.639 126.619 -0.11 -0.00    +0.000 A 
DOCKED: ATOM      9  C   UNL     1      38.345  19.488 126.022 -0.13 -0.00    +0.000 A 
DOCKED: ATOM     10  C   UNL     1      38.518  18.587 124.969 -0.17 -0.00    +0.000 A 
DOCKED: ATOM     11  C   UNL     1      37.437  17.821 124.499 -0.15 -0.00    +0.000 A 
DOCKED: ATOM     12  C   UNL     1      36.167  17.968 125.100 -0.18 -0.00    +0.000 A 
DOCKED: ATOM     13  O   UNL     1      34.240  15.551 123.162 -0.50 -0.00    +0.000 OA
DOCKED: ATOM     14  C   UNL     1      37.622  16.865 123.383 -0.26 -0.00    +0.000 C 
DOCKED: ATOM     15  O   UNL     1      38.764  16.711 122.868 -0.25 -0.00    +0.000 OA
DOCKED: ATOM     16  CM  UNL     1      36.339  17.012 123.980 -0.04 -0.00    +0.000 AC
DOCKED: ATOM     17  CM  UNL     1      34.906  18.128 125.716 -0.32 -0.00    +0.000 AC
DOCKED: ATOM     18  CM  UNL     1      37.260  18.732 125.563 -0.00 -0.00    +0.000 AC
DOCKED: ENDROOT
DOCKED: BRANCH   1  16
DOCKED: ATOM     19  C   UNL     1      36.681  15.131 121.806 -0.24 -0.00    +0.000 C 
DOCKED: BRANCH  16  17
DOCKED: ATOM     20  C   UNL     1      37.043  13.761 122.386 -0.49 -0.00    +0.000 C 
DOCKED: BRANCH  17  18
DOCKED: ATOM     21  C   UNL     1      35.942  13.248 123.321 -0.56 -0.00    +0.000 C 
DOCKED: BRANCH  18  19
DOCKED: ATOM     22  C   UNL     1      35.907  11.712 123.339 -0.67 -0.00    +0.000 C 
DOCKED: BRANCH  19  20
DOCKED: ATOM     23  C   UNL     1      37.179  11.094 122.743 -0.48 -0.00    +0.000 C 
DOCKED: BRANCH  20  22
DOCKED: ATOM     24  O   UNL     1      36.692   9.275 121.272 -2.53 -0.00    +0.000 OA
DOCKED: ATOM     25  C   UNL     1      37.000   9.635 122.440 -0.62 -0.00    +0.000 C 
DOCKED: ATOM     26  N   UNL     1      37.209   8.653 123.458 -0.62 -0.00    +0.000 N 
DOCKED: ATOM     27  O   UNL     1      37.065   7.337 123.180 -2.35 -0.00    +0.000 OA
DOCKED: ATOM     28  H   UNL     1      37.461   8.936 124.366 -0.61 -0.00    +0.000 HD
DOCKED: ENDBRANCH  20  22
DOCKED: ENDBRANCH  19  20
DOCKED: ENDBRANCH  18  19
DOCKED: ENDBRANCH  17  18
DOCKED: ENDBRANCH  16  17
DOCKED: ENDBRANCH   1  16
DOCKED: TORSDOF 6DOCKED: TER
DOCKED: ENDMDL
________________________________________________________________________________


	BEGINNING GENETIC ALGORITHM DOCKING 2 of 100
Run: 2 Seed: 1744951309 741271156 [ Run 2 of 100 GA/GALS ]
Beginning LAMARCKIAN GENETIC ALGORITHM (LGA), with a maximum of 2500000 energy evaluations.

Final-Value: -12.622


	FINAL GENETIC ALGORITHM DOCKED STATE
	_______________________________________________


Detailed state:  trans 36.834 14.980 120.278 quatxyzw -0.411555 -0.592115 -0.637806 -0.270603 center -0.023 0.069 -0.054 ntor 6 -165.0957 179.5930 54.5277 -6.3309 37.4477 163.2365
State:	 36.834  14.980 120.278  -0.428 -0.615 -0.663 -148.600   -165.10  179.59   54.53   -6.33   37.45  163.24

DOCKED: MODEL        2
DOCKED: USER    Run = 2
DOCKED: USER    DPF = ligand_dock.biased.dpf
DOCKED: USER  
DOCKED: USER    Estimated Free Energy of Binding    =   -9.75 kcal/mol  [=(1)+(2)+(3)-(4)]
DOCKED: USER    Estimated Inhibition Constant, Ki   =   70.83 nM (nanomolar)  [Temperature = 298.15 K]
DOCKED: USER    
DOCKED: USER    (1) Final Intermolecular Energy     =  -11.54 kcal/mol
DOCKED: USER        vdW + Hbond + desolv Energy     =  -11.54 kcal/mol
DOCKED: USER        Electrostatic Energy            =   +0.00 kcal/mol
DOCKED: USER    (2) Final Total Internal Energy     =   -1.08 kcal/mol
DOCKED: USER    (3) Torsional Free Energy           =   +1.79 kcal/mol
DOCKED: USER    (4) Unbound System's Energy  [=(2)] =   -1.08 kcal/mol
DOCKED: USER    
DOCKED: USER    
DOCKED: USER    NEWDPF move ligand.dum.pdbqt
DOCKED: USER    NEWDPF about -0.023000 0.069000 -0.054000
DOCKED: USER    NEWDPF tran0 36.834283 14.979695 120.278164
DOCKED: USER    NEWDPF quaternion0 -0.411555 -0.592115 -0.637806 -0.270603
DOCKED: USER    NEWDPF axisangle0 -0.427505 -0.615063 -0.662524 -148.599686
DOCKED: USER    NEWDPF quat0 -0.427505 -0.615063 -0.662524 -148.599686
DOCKED: USER    NEWDPF dihe0 -165.10 179.59 54.53 -6.33 37.45 163.24 
DOCKED: USER  keepresnum = 1 
DOCKED: USER  
DOCKED: REMARK  Name = 
DOCKED: REMARK  6 active torsions:
DOCKED: REMARK  status: ('A' for Active; 'I' for Inactive)
DOCKED: REMARK    1  A    between atoms: C_2  and  C_5
DOCKED: REMARK    2  A    between atoms: C_5  and  C_6
DOCKED: REMARK    3  A    between atoms: C_6  and  C_7
DOCKED: REMARK    4  A    between atoms: C_7  and  C_8
DOCKED: REMARK    5  A    between atoms: C_8  and  C_9
DOCKED: REMARK    6  A    between atoms: C_9  and  N_10
DOCKED: REMARK                            x       y       z     vdW  Elec       q    Type
DOCKED: REMARK                         _______ _______ _______ _____ _____    ______ ____
DOCKED: USER                              x       y       z     vdW  Elec       q    Type
DOCKED: USER                           _______ _______ _______ _____ _____    ______ ____
DOCKED: ROOT
DOCKED: ATOM      1  N   UNL     1      37.705  14.710 120.155 -0.26 -0.00    +0.000 N 
DOCKED: ATOM      2  C   UNL     1      37.218  13.825 119.128 -0.39 -0.00    +0.000 C 
DOCKED: ATOM      3  C   UNL     1      37.823  13.855 117.776 -0.28 -0.00    +0.000 A 
DOCKED: ATOM      4  C   UNL     1      37.378  12.975 116.775 -0.28 -0.00    +0.000 A 
DOCKED: ATOM      5  C   UNL     1      37.947  13.003 115.501 -0.42 -0.00    +0.000 A 
DOCKED: ATOM      6  C   UNL     1      38.966  13.907 115.205 -0.40 -0.00    +0.000 A 
DOCKED: ATOM      7  C   UNL     1      39.427  14.797 116.186 -0.27 -0.00    +0.000 A 
DOCKED: ATOM      8  C   UNL     1      40.450  15.708 115.888 -0.25 -0.00    +0.000 A 
DOCKED: ATOM      9  C   UNL     1      40.906  16.595 116.863 -0.14 -0.00    +0.000 A 
DOCKED: ATOM     10  C   UNL     1      40.350  16.582 118.143 -0.11 -0.00    +0.000 A 
DOCKED: ATOM     11  C   UNL     1      39.323  15.677 118.468 -0.12 -0.00    +0.000 A 
DOCKED: ATOM     12  C   UNL     1      38.855  14.775 117.485 -0.02 -0.00    +0.000 A 
DOCKED: ATOM     13  O   UNL     1      36.275  13.024 119.378 -0.42 -0.00    +0.000 OA
DOCKED: ATOM     14  C   UNL     1      38.733  15.663 119.826 -0.19 -0.00    +0.000 C 
DOCKED: ATOM     15  O   UNL     1      39.131  16.490 120.693 -0.14 -0.00    +0.000 OA
DOCKED: ATOM     16  CM  UNL     1      38.261  14.750 118.842 +0.00 -0.00    +0.000 AC
DOCKED: ATOM     17  CM  UNL     1      38.399  13.885 116.488 +0.00 -0.00    +0.000 AC
DOCKED: ATOM     18  CM  UNL     1      39.886  15.689 117.172 +0.00 -0.00    +0.000 AC
DOCKED: ENDROOT
DOCKED: BRANCH   1  16
DOCKED: ATOM     19  C   UNL     1      37.088  14.713 121.488 -0.31 -0.00    +0.000 C 
DOCKED: BRANCH  16  17
DOCKED: ATOM     20  C   UNL     1      37.537  13.483 122.283 -0.50 -0.00    +0.000 C 
DOCKED: BRANCH  17  18
DOCKED: ATOM     21  C   UNL     1      36.393  12.931 123.140 -0.62 -0.00    +0.000 C 
DOCKED: BRANCH  18  19
DOCKED: ATOM     22  C   UNL     1      36.801  11.614 123.818 -0.68 -0.00    +0.000 C 
DOCKED: BRANCH  19  20
DOCKED: ATOM     23  C   UNL     1      35.860  10.457 123.456 -0.54 -0.00    +0.000 C 
DOCKED: BRANCH  20  22
DOCKED: ATOM     24  O   UNL     1      36.732   8.272 123.034 -2.03 -0.00    +0.000 OA
DOCKED: ATOM     25  C   UNL     1      36.540   9.436 122.590 -0.72 -0.00    +0.000 C 
DOCKED: ATOM     26  N   UNL     1      36.939   9.768 121.259 -0.39 -0.00    +0.000 N 
DOCKED: ATOM     27  O   UNL     1      37.536   8.842 120.473 -2.05 -0.00    +0.000 OA
DOCKED: ATOM     28  H   UNL     1      36.778  10.674 120.910 -0.02 -0.00    +0.000 HD
DOCKED: ENDBRANCH  20  22
DOCKED: ENDBRANCH  19  20
DOCKED: ENDBRANCH  18  19
DOCKED: ENDBRANCH  17  18
DOCKED: ENDBRANCH  16  17
DOCKED: ENDBRANCH   1  16
DOCKED: TORSDOF 6DOCKED: TER
DOCKED: ENDMDL
________________________________________________________________________________


	BEGINNING GENETIC ALGORITHM DOCKING 3 of 100
Run: 3 Seed: 1532770579 634359662 [ Run 3 of 100 GA/GALS ]
Beginning LAMARCKIAN GENETIC ALGORITHM (LGA), with a maximum of 2500000 energy evaluations.

Final-Value: -13.908


	FINAL GENETIC ALGORITHM DOCKED STATE
	_______________________________________________


Detailed state:  trans 38.315 14.645 121.856 quatxyzw 0.498324 -0.758052 -0.403824 -0.118139 center -0.023 0.069 -0.054 ntor 6 180.0000 177.9013 -91.9880 139.4444 17.3085 -152.8567
State:	 38.315  14.645 121.856   0.502 -0.763 -0.407 -166.431    180.00  177.90  -91.99  139.44   17.31 -152.86

DOCKED: MODEL        3
DOCKED: USER    Run = 3
DOCKED: USER    DPF = ligand_dock.biased.dpf
DOCKED: USER  
DOCKED: USER    Estimated Free Energy of Binding    =  -11.42 kcal/mol  [=(1)+(2)+(3)-(4)]
DOCKED: USER    Estimated Inhibition Constant, Ki   =    4.28 nM (nanomolar)  [Temperature = 298.15 K]
DOCKED: USER    
DOCKED: USER    (1) Final Intermolecular Energy     =  -13.21 kcal/mol
DOCKED: USER        vdW + Hbond + desolv Energy     =  -13.21 kcal/mol
DOCKED: USER        Electrostatic Energy            =   +0.00 kcal/mol
DOCKED: USER    (2) Final Total Internal Energy     =   -0.70 kcal/mol
DOCKED: USER    (3) Torsional Free Energy           =   +1.79 kcal/mol
DOCKED: USER    (4) Unbound System's Energy  [=(2)] =   -0.70 kcal/mol
DOCKED: USER    
DOCKED: USER    
DOCKED: USER    NEWDPF move ligand.dum.pdbqt
DOCKED: USER    NEWDPF about -0.023000 0.069000 -0.054000
DOCKED: USER    NEWDPF tran0 38.315232 14.645481 121.856095
DOCKED: USER    NEWDPF quaternion0 0.498324 -0.758052 -0.403824 -0.118139
DOCKED: USER    NEWDPF axisangle0 0.501838 -0.763398 -0.406672 -166.430617
DOCKED: USER    NEWDPF quat0 0.501838 -0.763398 -0.406672 -166.430617
DOCKED: USER    NEWDPF dihe0 180.00 177.90 -91.99 139.44 17.31 -152.86 
DOCKED: USER  keepresnum = 1 
DOCKED: USER  
DOCKED: REMARK  Name = 
DOCKED: REMARK  6 active torsions:
DOCKED: REMARK  status: ('A' for Active; 'I' for Inactive)
DOCKED: REMARK    1  A    between atoms: C_2  and  C_5
DOCKED: REMARK    2  A    between atoms: C_5  and  C_6
DOCKED: REMARK    3  A    between atoms: C_6  and  C_7
DOCKED: REMARK    4  A    between atoms: C_7  and  C_8
DOCKED: REMARK    5  A    between atoms: C_8  and  C_9
DOCKED: REMARK    6  A    between atoms: C_9  and  N_10
DOCKED: REMARK                            x       y       z     vdW  Elec       q    Type
DOCKED: REMARK                         _______ _______ _______ _____ _____    ______ ____
DOCKED: USER                              x       y       z     vdW  Elec       q    Type
DOCKED: USER                           _______ _______ _______ _____ _____    ______ ____
DOCKED: ROOT
DOCKED: ATOM      1  N   UNL     1      38.181  15.232 122.551 -0.32 -0.00    +0.000 N 
DOCKED: ATOM      2  C   UNL     1      39.611  15.263 122.718 -0.36 -0.00    +0.000 C 
DOCKED: ATOM      3  C   UNL     1      40.326  16.560 122.747 -0.27 -0.00    +0.000 A 
DOCKED: ATOM      4  C   UNL     1      41.718  16.605 122.940 -0.36 -0.00    +0.000 A 
DOCKED: ATOM      5  C   UNL     1      42.392  17.827 122.966 -0.25 -0.00    +0.000 A 
DOCKED: ATOM      6  C   UNL     1      41.691  19.021 122.800 -0.12 -0.00    +0.000 A 
DOCKED: ATOM      7  C   UNL     1      40.303  19.003 122.605 -0.07 -0.00    +0.000 A 
DOCKED: ATOM      8  C   UNL     1      39.599  20.203 122.436 -0.03 -0.00    +0.000 A 
DOCKED: ATOM      9  C   UNL     1      38.218  20.186 122.239 -0.05 -0.00    +0.000 A 
DOCKED: ATOM     10  C   UNL     1      37.526  18.974 122.210 -0.09 -0.00    +0.000 A 
DOCKED: ATOM     11  C   UNL     1      38.209  17.756 122.378 -0.12 -0.00    +0.000 A 
DOCKED: ATOM     12  C   UNL     1      39.608  17.766 122.577 -0.13 -0.00    +0.000 A 
DOCKED: ATOM     13  O   UNL     1      40.257  14.185 122.838 -0.93 +0.00    +0.000 OA
DOCKED: ATOM     14  C   UNL     1      37.475  16.471 122.346 -0.24 -0.00    +0.000 C 
DOCKED: ATOM     15  O   UNL     1      36.230  16.462 122.136 -0.27 -0.00    +0.000 OA
DOCKED: ATOM     16  CM  UNL     1      38.883  16.474 122.553 +0.00 -0.00    +0.000 AC
DOCKED: ATOM     17  CM  UNL     1      41.007  17.797 122.773 +0.00 -0.00    +0.000 AC
DOCKED: ATOM     18  CM  UNL     1      38.910  18.982 122.407 +0.00 -0.00    +0.000 AC
DOCKED: ENDROOT
DOCKED: BRANCH   1  16
DOCKED: ATOM     19  C   UNL     1      37.467  13.950 122.485 -0.49 -0.00    +0.000 C 
DOCKED: BRANCH  16  17
DOCKED: ATOM     20  C   UNL     1      36.449  13.851 123.626 -0.54 -0.00    +0.000 C 
DOCKED: BRANCH  17  18
DOCKED: ATOM     21  C   UNL     1      36.003  12.401 123.845 -0.62 -0.00    +0.000 C 
DOCKED: BRANCH  18  19
DOCKED: ATOM     22  C   UNL     1      35.809  11.678 122.504 -0.49 -0.00    +0.000 C 
DOCKED: BRANCH  19  20
DOCKED: ATOM     23  C   UNL     1      37.086  10.966 122.037 -0.51 -0.00    +0.000 C 
DOCKED: BRANCH  20  22
DOCKED: ATOM     24  O   UNL     1      36.691   8.805 121.096 -2.58 -0.00    +0.000 OA
DOCKED: ATOM     25  C   UNL     1      36.958   9.473 122.131 -0.64 -0.00    +0.000 C 
DOCKED: ATOM     26  N   UNL     1      37.169   8.805 123.377 -0.61 -0.00    +0.000 N 
DOCKED: ATOM     27  O   UNL     1      37.070   7.458 123.458 -2.51 -0.00    +0.000 OA
DOCKED: ATOM     28  H   UNL     1      37.389   9.329 124.181 -0.62 -0.00    +0.000 HD
DOCKED: ENDBRANCH  20  22
DOCKED: ENDBRANCH  19  20
DOCKED: ENDBRANCH  18  19
DOCKED: ENDBRANCH  17  18
DOCKED: ENDBRANCH  16  17
DOCKED: ENDBRANCH   1  16
DOCKED: TORSDOF 6DOCKED: TER
DOCKED: ENDMDL
________________________________________________________________________________


	BEGINNING GENETIC ALGORITHM DOCKING 4 of 100
Run: 4 Seed: 2085867823 1944581137 [ Run 4 of 100 GA/GALS ]
Beginning LAMARCKIAN GENETIC ALGORITHM (LGA), with a maximum of 2500000 energy evaluations.

Final-Value: -14.624


	FINAL GENETIC ALGORITHM DOCKED STATE
	_______________________________________________


Detailed state:  trans 38.229 15.177 120.886 quatxyzw 0.577552 -0.480763 -0.659458 0.020405 center -0.023 0.069 -0.054 ntor 6 -36.6491 -179.0323 156.7882 -16.2557 -161.8636 -178.2810
State:	 38.229  15.177 120.886   0.578 -0.481 -0.660 177.662    -36.65 -179.03  156.79  -16.26 -161.86 -178.28

DOCKED: MODEL        4
DOCKED: USER    Run = 4
DOCKED: USER    DPF = ligand_dock.biased.dpf
DOCKED: USER  
DOCKED: USER    Estimated Free Energy of Binding    =  -11.90 kcal/mol  [=(1)+(2)+(3)-(4)]
DOCKED: USER    Estimated Inhibition Constant, Ki   =    1.91 nM (nanomolar)  [Temperature = 298.15 K]
DOCKED: USER    
DOCKED: USER    (1) Final Intermolecular Energy     =  -13.69 kcal/mol
DOCKED: USER        vdW + Hbond + desolv Energy     =  -13.69 kcal/mol
DOCKED: USER        Electrostatic Energy            =   +0.00 kcal/mol
DOCKED: USER    (2) Final Total Internal Energy     =   -0.94 kcal/mol
DOCKED: USER    (3) Torsional Free Energy           =   +1.79 kcal/mol
DOCKED: USER    (4) Unbound System's Energy  [=(2)] =   -0.94 kcal/mol
DOCKED: USER    
DOCKED: USER    
DOCKED: USER    NEWDPF move ligand.dum.pdbqt
DOCKED: USER    NEWDPF about -0.023000 0.069000 -0.054000
DOCKED: USER    NEWDPF tran0 38.228787 15.176560 120.886166
DOCKED: USER    NEWDPF quaternion0 0.577552 -0.480763 -0.659458 0.020405
DOCKED: USER    NEWDPF axisangle0 0.577672 -0.480863 -0.659595 177.661644
DOCKED: USER    NEWDPF quat0 0.577672 -0.480863 -0.659595 177.661644
DOCKED: USER    NEWDPF dihe0 -36.65 -179.03 156.79 -16.26 -161.86 -178.28 
DOCKED: USER  keepresnum = 1 
DOCKED: USER  
DOCKED: REMARK  Name = 
DOCKED: REMARK  6 active torsions:
DOCKED: REMARK  status: ('A' for Active; 'I' for Inactive)
DOCKED: REMARK    1  A    between atoms: C_2  and  C_5
DOCKED: REMARK    2  A    between atoms: C_5  and  C_6
DOCKED: REMARK    3  A    between atoms: C_6  and  C_7
DOCKED: REMARK    4  A    between atoms: C_7  and  C_8
DOCKED: REMARK    5  A    between atoms: C_8  and  C_9
DOCKED: REMARK    6  A    between atoms: C_9  and  N_10
DOCKED: REMARK                            x       y       z     vdW  Elec       q    Type
DOCKED: REMARK                         _______ _______ _______ _____ _____    ______ ____
DOCKED: USER                              x       y       z     vdW  Elec       q    Type
DOCKED: USER                           _______ _______ _______ _____ _____    ______ ____
DOCKED: ROOT
DOCKED: ATOM      1  N   UNL     1      38.078  15.060 121.786 -0.29 -0.00    +0.000 N 
DOCKED: ATOM      2  C   UNL     1      39.486  15.283 121.987 -0.36 -0.00    +0.000 C 
DOCKED: ATOM      3  C   UNL     1      39.942  16.304 122.958 -0.24 -0.00    +0.000 A 
DOCKED: ATOM      4  C   UNL     1      41.314  16.511 123.187 -0.33 -0.00    +0.000 A 
DOCKED: ATOM      5  C   UNL     1      41.745  17.473 124.101 -0.25 -0.00    +0.000 A 
DOCKED: ATOM      6  C   UNL     1      40.817  18.244 124.801 -0.29 -0.00    +0.000 A 
DOCKED: ATOM      7  C   UNL     1      39.443  18.058 124.590 -0.22 -0.00    +0.000 A 
DOCKED: ATOM      8  C   UNL     1      38.511  18.835 125.291 -0.16 -0.00    +0.000 A 
DOCKED: ATOM      9  C   UNL     1      37.144  18.654 125.080 -0.16 -0.00    +0.000 A 
DOCKED: ATOM     10  C   UNL     1      36.694  17.696 124.170 -0.21 -0.00    +0.000 A 
DOCKED: ATOM     11  C   UNL     1      37.609  16.903 123.454 -0.23 -0.00    +0.000 A 
DOCKED: ATOM     12  C   UNL     1      38.995  17.082 123.663 -0.20 -0.00    +0.000 A 
DOCKED: ATOM     13  O   UNL     1      40.332  14.611 121.336 -0.68 -0.00    +0.000 OA
DOCKED: ATOM     14  C   UNL     1      37.131  15.887 122.489 -0.31 -0.00    +0.000 C 
DOCKED: ATOM     15  O   UNL     1      35.893  15.750 122.280 -0.31 -0.00    +0.000 OA
DOCKED: ATOM     16  CM  UNL     1      38.528  16.059 122.698 +0.00 -0.00    +0.000 AC
DOCKED: ATOM     17  CM  UNL     1      40.376  17.279 123.884 +0.00 -0.00    +0.000 AC
DOCKED: ATOM     18  CM  UNL     1      38.066  17.872 124.375 +0.00 -0.00    +0.000 AC
DOCKED: ENDROOT
DOCKED: BRANCH   1  16
DOCKED: ATOM     19  C   UNL     1      37.614  14.075 120.798 -0.38 -0.00    +0.000 C 
DOCKED: BRANCH  16  17
DOCKED: ATOM     20  C   UNL     1      37.365  12.724 121.476 -0.51 -0.00    +0.000 C 
DOCKED: BRANCH  17  18
DOCKED: ATOM     21  C   UNL     1      37.230  12.883 122.994 -0.59 -0.00    +0.000 C 
DOCKED: BRANCH  18  19
DOCKED: ATOM     22  C   UNL     1      36.599  11.633 123.624 -0.70 -0.00    +0.000 C 
DOCKED: BRANCH  19  20
DOCKED: ATOM     23  C   UNL     1      35.833  10.787 122.598 -0.66 -0.00    +0.000 C 
DOCKED: BRANCH  20  22
DOCKED: ATOM     24  O   UNL     1      36.948   9.196 121.208 -2.70 -0.00    +0.000 OA
DOCKED: ATOM     25  C   UNL     1      36.501   9.465 122.355 -0.71 -0.00    +0.000 C 
DOCKED: ATOM     26  N   UNL     1      36.660   8.528 123.422 -0.65 -0.00    +0.000 N 
DOCKED: ATOM     27  O   UNL     1      37.278   7.343 123.206 -2.25 -0.00    +0.000 OA
DOCKED: ATOM     28  H   UNL     1      36.320   8.745 124.320 -0.28 -0.00    +0.000 HD
DOCKED: ENDBRANCH  20  22
DOCKED: ENDBRANCH  19  20
DOCKED: ENDBRANCH  18  19
DOCKED: ENDBRANCH  17  18
DOCKED: ENDBRANCH  16  17
DOCKED: ENDBRANCH   1  16
DOCKED: TORSDOF 6DOCKED: TER
DOCKED: ENDMDL
________________________________________________________________________________


	BEGINNING GENETIC ALGORITHM DOCKING 5 of 100
Run: 5 Seed: 1265712403 1296669703 [ Run 5 of 100 GA/GALS ]
Beginning LAMARCKIAN GENETIC ALGORITHM (LGA), with a maximum of 2500000 energy evaluations.

Final-Value: -14.368


	FINAL GENETIC ALGORITHM DOCKED STATE
	_______________________________________________


Detailed state:  trans 37.544 16.310 122.221 quatxyzw -0.778959 0.309548 0.542207 0.058429 center -0.023 0.069 -0.054 ntor 6 -68.5047 -120.3961 89.4882 -30.2221 -115.8100 173.5512
State:	 37.544  16.310 122.221  -0.780  0.310  0.543 173.301    -68.50 -120.40   89.49  -30.22 -115.81  173.55

DOCKED: MODEL        5
DOCKED: USER    Run = 5
DOCKED: USER    DPF = ligand_dock.biased.dpf
DOCKED: USER  
DOCKED: USER    Estimated Free Energy of Binding    =  -11.78 kcal/mol  [=(1)+(2)+(3)-(4)]
DOCKED: USER    Estimated Inhibition Constant, Ki   =    2.34 nM (nanomolar)  [Temperature = 298.15 K]
DOCKED: USER    
DOCKED: USER    (1) Final Intermolecular Energy     =  -13.57 kcal/mol
DOCKED: USER        vdW + Hbond + desolv Energy     =  -13.57 kcal/mol
DOCKED: USER        Electrostatic Energy            =   +0.00 kcal/mol
DOCKED: USER    (2) Final Total Internal Energy     =   -0.80 kcal/mol
DOCKED: USER    (3) Torsional Free Energy           =   +1.79 kcal/mol
DOCKED: USER    (4) Unbound System's Energy  [=(2)] =   -0.80 kcal/mol
DOCKED: USER    
DOCKED: USER    
DOCKED: USER    NEWDPF move ligand.dum.pdbqt
DOCKED: USER    NEWDPF about -0.023000 0.069000 -0.054000
DOCKED: USER    NEWDPF tran0 37.543772 16.309728 122.220823
DOCKED: USER    NEWDPF quaternion0 -0.778959 0.309548 0.542207 0.058429
DOCKED: USER    NEWDPF axisangle0 -0.780292 0.310078 0.543135 173.300739
DOCKED: USER    NEWDPF quat0 -0.780292 0.310078 0.543135 173.300739
DOCKED: USER    NEWDPF dihe0 -68.50 -120.40 89.49 -30.22 -115.81 173.55 
DOCKED: USER  keepresnum = 1 
DOCKED: USER  
DOCKED: REMARK  Name = 
DOCKED: REMARK  6 active torsions:
DOCKED: REMARK  status: ('A' for Active; 'I' for Inactive)
DOCKED: REMARK    1  A    between atoms: C_2  and  C_5
DOCKED: REMARK    2  A    between atoms: C_5  and  C_6
DOCKED: REMARK    3  A    between atoms: C_6  and  C_7
DOCKED: REMARK    4  A    between atoms: C_7  and  C_8
DOCKED: REMARK    5  A    between atoms: C_8  and  C_9
DOCKED: REMARK    6  A    between atoms: C_9  and  N_10
DOCKED: REMARK                            x       y       z     vdW  Elec       q    Type
DOCKED: REMARK                         _______ _______ _______ _____ _____    ______ ____
DOCKED: USER                              x       y       z     vdW  Elec       q    Type
DOCKED: USER                           _______ _______ _______ _____ _____    ______ ____
DOCKED: ROOT
DOCKED: ATOM      1  N   UNL     1      37.192  16.051 123.030 -0.29 -0.00    +0.000 N 
DOCKED: ATOM      2  C   UNL     1      38.184  16.885 123.657 -0.24 -0.00    +0.000 C 
DOCKED: ATOM      3  C   UNL     1      37.775  17.904 124.651 -0.11 -0.00    +0.000 A 
DOCKED: ATOM      4  C   UNL     1      38.737  18.704 125.293 -0.17 -0.00    +0.000 A 
DOCKED: ATOM      5  C   UNL     1      38.352  19.664 126.229 -0.12 -0.00    +0.000 A 
DOCKED: ATOM      6  C   UNL     1      37.004  19.844 126.539 -0.10 -0.00    +0.000 A 
DOCKED: ATOM      7  C   UNL     1      36.025  19.060 125.912 -0.16 -0.00    +0.000 A 
DOCKED: ATOM      8  C   UNL     1      34.670  19.242 126.223 -0.20 -0.00    +0.000 A 
DOCKED: ATOM      9  C   UNL     1      33.696  18.465 125.597 -0.31 -0.00    +0.000 A 
DOCKED: ATOM     10  C   UNL     1      34.061  17.499 124.658 -0.38 -0.00    +0.000 A 
DOCKED: ATOM     11  C   UNL     1      35.414  17.296 124.330 -0.32 -0.00    +0.000 A 
DOCKED: ATOM     12  C   UNL     1      36.407  18.080 124.960 -0.19 -0.00    +0.000 A 
DOCKED: ATOM     13  O   UNL     1      39.403  16.751 123.359 -0.29 -0.00    +0.000 OA
DOCKED: ATOM     14  C   UNL     1      35.801  16.271 123.334 -0.39 -0.00    +0.000 C 
DOCKED: ATOM     15  O   UNL     1      34.911  15.593 122.750 -0.28 -0.00    +0.000 OA
DOCKED: ATOM     16  CM  UNL     1      36.806  17.054 123.968 -0.01 -0.00    +0.000 AC
DOCKED: ATOM     17  CM  UNL     1      37.383  18.876 125.598 -0.00 -0.00    +0.000 AC
DOCKED: ATOM     18  CM  UNL     1      35.045  18.274 125.280 -0.38 -0.00    +0.000 AC
DOCKED: ENDROOT
DOCKED: BRANCH   1  16
DOCKED: ATOM     19  C   UNL     1      37.583  15.062 122.016 -0.35 -0.00    +0.000 C 
DOCKED: BRANCH  16  17
DOCKED: ATOM     20  C   UNL     1      37.997  13.750 122.689 -0.49 -0.00    +0.000 C 
DOCKED: BRANCH  17  18
DOCKED: ATOM     21  C   UNL     1      36.816  13.111 123.428 -0.61 -0.00    +0.000 C 
DOCKED: BRANCH  18  19
DOCKED: ATOM     22  C   UNL     1      36.946  11.581 123.453 -0.68 -0.00    +0.000 C 
DOCKED: BRANCH  19  20
DOCKED: ATOM     23  C   UNL     1      36.333  10.923 122.209 -0.65 -0.00    +0.000 C 
DOCKED: BRANCH  20  22
DOCKED: ATOM     24  O   UNL     1      36.775   8.902 121.014 -2.63 -0.00    +0.000 OA
DOCKED: ATOM     25  C   UNL     1      36.654   9.459 122.138 -0.70 -0.00    +0.000 C 
DOCKED: ATOM     26  N   UNL     1      36.855   8.703 123.335 -0.65 -0.00    +0.000 N 
DOCKED: ATOM     27  O   UNL     1      37.161   7.386 123.270 -2.36 -0.00    +0.000 OA
DOCKED: ATOM     28  H   UNL     1      36.771   9.143 124.211 -0.50 -0.00    +0.000 HD
DOCKED: ENDBRANCH  20  22
DOCKED: ENDBRANCH  19  20
DOCKED: ENDBRANCH  18  19
DOCKED: ENDBRANCH  17  18
DOCKED: ENDBRANCH  16  17
DOCKED: ENDBRANCH   1  16
DOCKED: TORSDOF 6DOCKED: TER
DOCKED: ENDMDL
________________________________________________________________________________


	BEGINNING GENETIC ALGORITHM DOCKING 6 of 100
Run: 6 Seed: 829232961 1429443117 [ Run 6 of 100 GA/GALS ]
Beginning LAMARCKIAN GENETIC ALGORITHM (LGA), with a maximum of 2500000 energy evaluations.

Final-Value: -14.281


	FINAL GENETIC ALGORITHM DOCKED STATE
	_______________________________________________


Detailed state:  trans 36.719 14.156 122.323 quatxyzw 0.634968 -0.449909 -0.573139 -0.256727 center -0.023 0.069 -0.054 ntor 6 110.2138 -1.6287 59.9137 106.7089 17.2355 -146.9469
State:	 36.719  14.156 122.323   0.657 -0.466 -0.593 -150.248    110.21   -1.63   59.91  106.71   17.24 -146.95

DOCKED: MODEL        6
DOCKED: USER    Run = 6
DOCKED: USER    DPF = ligand_dock.biased.dpf
DOCKED: USER  
DOCKED: USER    Estimated Free Energy of Binding    =  -11.90 kcal/mol  [=(1)+(2)+(3)-(4)]
DOCKED: USER    Estimated Inhibition Constant, Ki   =    1.88 nM (nanomolar)  [Temperature = 298.15 K]
DOCKED: USER    
DOCKED: USER    (1) Final Intermolecular Energy     =  -13.69 kcal/mol
DOCKED: USER        vdW + Hbond + desolv Energy     =  -13.69 kcal/mol
DOCKED: USER        Electrostatic Energy            =   +0.00 kcal/mol
DOCKED: USER    (2) Final Total Internal Energy     =   -0.59 kcal/mol
DOCKED: USER    (3) Torsional Free Energy           =   +1.79 kcal/mol
DOCKED: USER    (4) Unbound System's Energy  [=(2)] =   -0.59 kcal/mol
DOCKED: USER    
DOCKED: USER    
DOCKED: USER    NEWDPF move ligand.dum.pdbqt
DOCKED: USER    NEWDPF about -0.023000 0.069000 -0.054000
DOCKED: USER    NEWDPF tran0 36.718589 14.156322 122.323489
DOCKED: USER    NEWDPF quaternion0 0.634968 -0.449909 -0.573139 -0.256727
DOCKED: USER    NEWDPF axisangle0 0.656988 -0.465511 -0.593015 -150.248162
DOCKED: USER    NEWDPF quat0 0.656988 -0.465511 -0.593015 -150.248162
DOCKED: USER    NEWDPF dihe0 110.21 -1.63 59.91 106.71 17.24 -146.95 
DOCKED: USER  keepresnum = 1 
DOCKED: USER  
DOCKED: REMARK  Name = 
DOCKED: REMARK  6 active torsions:
DOCKED: REMARK  status: ('A' for Active; 'I' for Inactive)
DOCKED: REMARK    1  A    between atoms: C_2  and  C_5
DOCKED: REMARK    2  A    between atoms: C_5  and  C_6
DOCKED: REMARK    3  A    between atoms: C_6  and  C_7
DOCKED: REMARK    4  A    between atoms: C_7  and  C_8
DOCKED: REMARK    5  A    between atoms: C_8  and  C_9
DOCKED: REMARK    6  A    between atoms: C_9  and  N_10
DOCKED: REMARK                            x       y       z     vdW  Elec       q    Type
DOCKED: REMARK                         _______ _______ _______ _____ _____    ______ ____
DOCKED: USER                              x       y       z     vdW  Elec       q    Type
DOCKED: USER                           _______ _______ _______ _____ _____    ______ ____
DOCKED: ROOT
DOCKED: ATOM      1  N   UNL     1      36.639  14.328 123.223 -0.46 -0.00    +0.000 N 
DOCKED: ATOM      2  C   UNL     1      37.797  15.175 123.100 -0.39 -0.00    +0.000 C 
DOCKED: ATOM      3  C   UNL     1      37.749  16.571 123.591 -0.22 -0.00    +0.000 A 
DOCKED: ATOM      4  C   UNL     1      38.883  17.398 123.504 -0.21 -0.00    +0.000 A 
DOCKED: ATOM      5  C   UNL     1      38.839  18.715 123.966 -0.13 -0.00    +0.000 A 
DOCKED: ATOM      6  C   UNL     1      37.666  19.227 124.519 -0.12 -0.00    +0.000 A 
DOCKED: ATOM      7  C   UNL     1      36.521  18.423 124.615 -0.19 -0.00    +0.000 A 
DOCKED: ATOM      8  C   UNL     1      35.341  18.939 125.169 -0.21 -0.00    +0.000 A 
DOCKED: ATOM      9  C   UNL     1      34.201  18.141 125.262 -0.33 -0.00    +0.000 A 
DOCKED: ATOM     10  C   UNL     1      34.226  16.822 124.807 -0.42 -0.00    +0.000 A 
DOCKED: ATOM     11  C   UNL     1      35.398  16.280 124.248 -0.40 -0.00    +0.000 A 
DOCKED: ATOM     12  C   UNL     1      36.556  17.083 124.150 -0.23 -0.00    +0.000 A 
DOCKED: ATOM     13  O   UNL     1      38.853  14.729 122.573 -0.49 -0.00    +0.000 OA
DOCKED: ATOM     14  C   UNL     1      35.423  14.881 123.764 -0.55 -0.00    +0.000 C 
DOCKED: ATOM     15  O   UNL     1      34.379  14.175 123.824 -0.47 -0.00    +0.000 OA
DOCKED: ATOM     16  CM  UNL     1      36.595  15.682 123.667 +0.00 -0.00    +0.000 AC
DOCKED: ATOM     17  CM  UNL     1      37.703  17.903 124.058 +0.00 -0.00    +0.000 AC
DOCKED: ATOM     18  CM  UNL     1      35.374  17.615 124.709 -0.37 -0.00    +0.000 AC
DOCKED: ENDROOT
DOCKED: BRANCH   1  16
DOCKED: ATOM     19  C   UNL     1      36.664  12.952 122.707 -0.58 -0.00    +0.000 C 
DOCKED: BRANCH  16  17
DOCKED: ATOM     20  C   UNL     1      36.274  11.965 123.812 -0.70 -0.00    +0.000 C 
DOCKED: BRANCH  17  18
DOCKED: ATOM     21  C   UNL     1      36.691  10.536 123.448 -0.58 -0.00    +0.000 C 
DOCKED: BRANCH  18  19
DOCKED: ATOM     22  C   UNL     1      35.786   9.962 122.348 -0.66 -0.00    +0.000 C 
DOCKED: BRANCH  19  20
DOCKED: ATOM     23  C   UNL     1      34.990   8.741 122.828 -0.67 -0.00    +0.000 C 
DOCKED: BRANCH  20  22
DOCKED: ATOM     24  O   UNL     1      37.077   7.714 123.376 -2.65 -0.00    +0.000 OA
DOCKED: ATOM     25  C   UNL     1      35.875   7.546 123.037 -0.77 -0.00    +0.000 C 
DOCKED: ATOM     26  N   UNL     1      35.354   6.224 122.885 -0.70 -0.00    +0.000 N 
DOCKED: ATOM     27  O   UNL     1      36.147   5.147 123.090 -1.14 -0.00    +0.000 OA
DOCKED: ATOM     28  H   UNL     1      34.411   6.095 122.631 -0.05 -0.00    +0.000 HD
DOCKED: ENDBRANCH  20  22
DOCKED: ENDBRANCH  19  20
DOCKED: ENDBRANCH  18  19
DOCKED: ENDBRANCH  17  18
DOCKED: ENDBRANCH  16  17
DOCKED: ENDBRANCH   1  16
DOCKED: TORSDOF 6DOCKED: TER
DOCKED: ENDMDL
________________________________________________________________________________


	BEGINNING GENETIC ALGORITHM DOCKING 7 of 100
Run: 7 Seed: 2042317275 699572810 [ Run 7 of 100 GA/GALS ]
Beginning LAMARCKIAN GENETIC ALGORITHM (LGA), with a maximum of 2500000 energy evaluations.

Final-Value: -14.833


	FINAL GENETIC ALGORITHM DOCKED STATE
	_______________________________________________


Detailed state:  trans 37.888 15.210 121.171 quatxyzw -0.471098 0.542232 0.695727 -0.003896 center -0.023 0.069 -0.054 ntor 6 -51.1936 -180.0000 170.3236 -40.8512 -128.6523 158.0001
State:	 37.888  15.210 121.171  -0.471  0.542  0.696 -179.553    -51.19 -180.00  170.32  -40.85 -128.65  158.00

DOCKED: MODEL        7
DOCKED: USER    Run = 7
DOCKED: USER    DPF = ligand_dock.biased.dpf
DOCKED: USER  
DOCKED: USER    Estimated Free Energy of Binding    =  -12.08 kcal/mol  [=(1)+(2)+(3)-(4)]
DOCKED: USER    Estimated Inhibition Constant, Ki   =    1.40 nM (nanomolar)  [Temperature = 298.15 K]
DOCKED: USER    
DOCKED: USER    (1) Final Intermolecular Energy     =  -13.87 kcal/mol
DOCKED: USER        vdW + Hbond + desolv Energy     =  -13.87 kcal/mol
DOCKED: USER        Electrostatic Energy            =   +0.00 kcal/mol
DOCKED: USER    (2) Final Total Internal Energy     =   -0.96 kcal/mol
DOCKED: USER    (3) Torsional Free Energy           =   +1.79 kcal/mol
DOCKED: USER    (4) Unbound System's Energy  [=(2)] =   -0.96 kcal/mol
DOCKED: USER    
DOCKED: USER    
DOCKED: USER    NEWDPF move ligand.dum.pdbqt
DOCKED: USER    NEWDPF about -0.023000 0.069000 -0.054000
DOCKED: USER    NEWDPF tran0 37.887958 15.210036 121.170697
DOCKED: USER    NEWDPF quaternion0 -0.471098 0.542232 0.695727 -0.003896
DOCKED: USER    NEWDPF axisangle0 -0.471101 0.542236 0.695732 -179.553503
DOCKED: USER    NEWDPF quat0 -0.471101 0.542236 0.695732 -179.553503
DOCKED: USER    NEWDPF dihe0 -51.19 -180.00 170.32 -40.85 -128.65 158.00 
DOCKED: USER  keepresnum = 1 
DOCKED: USER  
DOCKED: REMARK  Name = 
DOCKED: REMARK  6 active torsions:
DOCKED: REMARK  status: ('A' for Active; 'I' for Inactive)
DOCKED: REMARK    1  A    between atoms: C_2  and  C_5
DOCKED: REMARK    2  A    between atoms: C_5  and  C_6
DOCKED: REMARK    3  A    between atoms: C_6  and  C_7
DOCKED: REMARK    4  A    between atoms: C_7  and  C_8
DOCKED: REMARK    5  A    between atoms: C_8  and  C_9
DOCKED: REMARK    6  A    between atoms: C_9  and  N_10
DOCKED: REMARK                            x       y       z     vdW  Elec       q    Type
DOCKED: REMARK                         _______ _______ _______ _____ _____    ______ ____
DOCKED: USER                              x       y       z     vdW  Elec       q    Type
DOCKED: USER                           _______ _______ _______ _____ _____    ______ ____
DOCKED: ROOT
DOCKED: ATOM      1  N   UNL     1      37.908  15.159 122.089 -0.29 -0.00    +0.000 N 
DOCKED: ATOM      2  C   UNL     1      39.345  15.171 121.995 -0.37 -0.00    +0.000 C 
DOCKED: ATOM      3  C   UNL     1      40.130  16.151 122.779 -0.28 -0.00    +0.000 A 
DOCKED: ATOM      4  C   UNL     1      41.535  16.153 122.720 -0.39 -0.00    +0.000 A 
DOCKED: ATOM      5  C   UNL     1      42.276  17.077 123.458 -0.34 -0.00    +0.000 A 
DOCKED: ATOM      6  C   UNL     1      41.630  18.014 124.264 -0.21 -0.00    +0.000 A 
DOCKED: ATOM      7  C   UNL     1      40.229  18.034 124.339 -0.25 -0.00    +0.000 A 
DOCKED: ATOM      8  C   UNL     1      39.580  18.977 125.148 -0.17 -0.00    +0.000 A 
DOCKED: ATOM      9  C   UNL     1      38.187  19.000 125.221 -0.15 -0.00    +0.000 A 
DOCKED: ATOM     10  C   UNL     1      37.429  18.083 124.490 -0.17 -0.00    +0.000 A 
DOCKED: ATOM     11  C   UNL     1      38.057  17.126 123.673 -0.21 -0.00    +0.000 A 
DOCKED: ATOM     12  C   UNL     1      39.468  17.098 123.594 -0.20 -0.00    +0.000 A 
DOCKED: ATOM     13  O   UNL     1      39.936  14.347 121.244 -0.74 -0.00    +0.000 OA
DOCKED: ATOM     14  C   UNL     1      37.252  16.154 122.898 -0.31 -0.00    +0.000 C 
DOCKED: ATOM     15  O   UNL     1      35.992  16.201 122.945 -0.35 -0.00    +0.000 OA
DOCKED: ATOM     16  CM  UNL     1      38.672  16.117 122.818 +0.00 -0.00    +0.000 AC
DOCKED: ATOM     17  CM  UNL     1      40.878  17.088 123.526 +0.00 -0.00    +0.000 AC
DOCKED: ATOM     18  CM  UNL     1      38.825  18.053 124.411 +0.00 -0.00    +0.000 AC
DOCKED: ENDROOT
DOCKED: BRANCH   1  16
DOCKED: ATOM     19  C   UNL     1      37.117  14.214 121.288 -0.34 -0.00    +0.000 C 
DOCKED: BRANCH  16  17
DOCKED: ATOM     20  C   UNL     1      37.309  12.787 121.811 -0.52 -0.00    +0.000 C 
DOCKED: BRANCH  17  18
DOCKED: ATOM     21  C   UNL     1      37.068  12.716 123.322 -0.63 -0.00    +0.000 C 
DOCKED: BRANCH  18  19
DOCKED: ATOM     22  C   UNL     1      36.292  11.444 123.695 -0.69 -0.00    +0.000 C 
DOCKED: BRANCH  19  20
DOCKED: ATOM     23  C   UNL     1      35.823  10.664 122.459 -0.66 -0.00    +0.000 C 
DOCKED: BRANCH  20  22
DOCKED: ATOM     24  O   UNL     1      37.046   9.040 121.205 -2.71 -0.00    +0.000 OA
DOCKED: ATOM     25  C   UNL     1      36.547   9.357 122.317 -0.72 -0.00    +0.000 C 
DOCKED: ATOM     26  N   UNL     1      36.700   8.489 123.443 -0.66 -0.00    +0.000 N 
DOCKED: ATOM     27  O   UNL     1      37.367   7.318 123.319 -2.24 -0.00    +0.000 OA
DOCKED: ATOM     28  H   UNL     1      36.319   8.745 124.313 -0.29 -0.00    +0.000 HD
DOCKED: ENDBRANCH  20  22
DOCKED: ENDBRANCH  19  20
DOCKED: ENDBRANCH  18  19
DOCKED: ENDBRANCH  17  18
DOCKED: ENDBRANCH  16  17
DOCKED: ENDBRANCH   1  16
DOCKED: TORSDOF 6DOCKED: TER
DOCKED: ENDMDL
________________________________________________________________________________


	BEGINNING GENETIC ALGORITHM DOCKING 8 of 100
Run: 8 Seed: 571230713 1717456112 [ Run 8 of 100 GA/GALS ]
Beginning LAMARCKIAN GENETIC ALGORITHM (LGA), with a maximum of 2500000 energy evaluations.

Final-Value: -14.112


	FINAL GENETIC ALGORITHM DOCKED STATE
	_______________________________________________


Detailed state:  trans 36.867 15.112 119.379 quatxyzw -0.524911 -0.421617 -0.710455 -0.204844 center -0.023 0.069 -0.054 ntor 6 -47.8327 -171.4914 168.3687 -36.3240 -21.3182 175.2905
State:	 36.867  15.112 119.379  -0.536 -0.431 -0.726 -156.359    -47.83 -171.49  168.37  -36.32  -21.32  175.29

DOCKED: MODEL        8
DOCKED: USER    Run = 8
DOCKED: USER    DPF = ligand_dock.biased.dpf
DOCKED: USER  
DOCKED: USER    Estimated Free Energy of Binding    =  -11.50 kcal/mol  [=(1)+(2)+(3)-(4)]
DOCKED: USER    Estimated Inhibition Constant, Ki   =    3.74 nM (nanomolar)  [Temperature = 298.15 K]
DOCKED: USER    
DOCKED: USER    (1) Final Intermolecular Energy     =  -13.29 kcal/mol
DOCKED: USER        vdW + Hbond + desolv Energy     =  -13.29 kcal/mol
DOCKED: USER        Electrostatic Energy            =   +0.00 kcal/mol
DOCKED: USER    (2) Final Total Internal Energy     =   -0.82 kcal/mol
DOCKED: USER    (3) Torsional Free Energy           =   +1.79 kcal/mol
DOCKED: USER    (4) Unbound System's Energy  [=(2)] =   -0.82 kcal/mol
DOCKED: USER    
DOCKED: USER    
DOCKED: USER    NEWDPF move ligand.dum.pdbqt
DOCKED: USER    NEWDPF about -0.023000 0.069000 -0.054000
DOCKED: USER    NEWDPF tran0 36.867118 15.111740 119.378633
DOCKED: USER    NEWDPF quaternion0 -0.524911 -0.421617 -0.710455 -0.204844
DOCKED: USER    NEWDPF axisangle0 -0.536283 -0.430751 -0.725847 -156.359275
DOCKED: USER    NEWDPF quat0 -0.536283 -0.430751 -0.725847 -156.359275
DOCKED: USER    NEWDPF dihe0 -47.83 -171.49 168.37 -36.32 -21.32 175.29 
DOCKED: USER  keepresnum = 1 
DOCKED: USER  
DOCKED: REMARK  Name = 
DOCKED: REMARK  6 active torsions:
DOCKED: REMARK  status: ('A' for Active; 'I' for Inactive)
DOCKED: REMARK    1  A    between atoms: C_2  and  C_5
DOCKED: REMARK    2  A    between atoms: C_5  and  C_6
DOCKED: REMARK    3  A    between atoms: C_6  and  C_7
DOCKED: REMARK    4  A    between atoms: C_7  and  C_8
DOCKED: REMARK    5  A    between atoms: C_8  and  C_9
DOCKED: REMARK    6  A    between atoms: C_9  and  N_10
DOCKED: REMARK                            x       y       z     vdW  Elec       q    Type
DOCKED: REMARK                         _______ _______ _______ _____ _____    ______ ____
DOCKED: USER                              x       y       z     vdW  Elec       q    Type
DOCKED: USER                           _______ _______ _______ _____ _____    ______ ____
DOCKED: ROOT
DOCKED: ATOM      1  N   UNL     1      37.550  14.564 119.097 -0.26 -0.00    +0.000 N 
DOCKED: ATOM      2  C   UNL     1      36.692  14.157 118.014 -0.37 -0.00    +0.000 C 
DOCKED: ATOM      3  C   UNL     1      37.178  14.230 116.617 -0.30 -0.00    +0.000 A 
DOCKED: ATOM      4  C   UNL     1      36.362  13.806 115.554 -0.29 -0.00    +0.000 A 
DOCKED: ATOM      5  C   UNL     1      36.819  13.875 114.237 -0.29 -0.00    +0.000 A 
DOCKED: ATOM      6  C   UNL     1      38.093  14.367 113.959 -0.19 -0.00    +0.000 A 
DOCKED: ATOM      7  C   UNL     1      38.927  14.797 115.002 -0.29 -0.00    +0.000 A 
DOCKED: ATOM      8  C   UNL     1      40.207  15.293 114.722 -0.25 -0.00    +0.000 A 
DOCKED: ATOM      9  C   UNL     1      41.035  15.724 115.759 -0.26 -0.00    +0.000 A 
DOCKED: ATOM     10  C   UNL     1      40.597  15.662 117.083 -0.19 -0.00    +0.000 A 
DOCKED: ATOM     11  C   UNL     1      39.316  15.167 117.389 -0.08 -0.00    +0.000 A 
DOCKED: ATOM     12  C   UNL     1      38.472  14.730 116.344 -0.25 -0.00    +0.000 A 
DOCKED: ATOM     13  O   UNL     1      35.525  13.740 118.254 -0.41 -0.00    +0.000 OA
DOCKED: ATOM     14  C   UNL     1      38.851  15.103 118.794 -0.11 -0.00    +0.000 C 
DOCKED: ATOM     15  O   UNL     1      39.595  15.523 119.723 -0.21 -0.00    +0.000 OA
DOCKED: ATOM     16  CM  UNL     1      37.997  14.656 117.746 +0.00 -0.00    +0.000 AC
DOCKED: ATOM     17  CM  UNL     1      37.642  14.300 115.285 +0.00 -0.00    +0.000 AC
DOCKED: ATOM     18  CM  UNL     1      39.759  15.229 116.050 +0.00 -0.00    +0.000 AC
DOCKED: ENDROOT
DOCKED: BRANCH   1  16
DOCKED: ATOM     19  C   UNL     1      37.065  14.530 120.484 -0.27 -0.00    +0.000 C 
DOCKED: BRANCH  16  17
DOCKED: ATOM     20  C   UNL     1      37.314  13.149 121.098 -0.47 -0.00    +0.000 C 
DOCKED: BRANCH  17  18
DOCKED: ATOM     21  C   UNL     1      37.324  13.219 122.629 -0.55 -0.00    +0.000 C 
DOCKED: BRANCH  18  19
DOCKED: ATOM     22  C   UNL     1      36.696  11.957 123.241 -0.68 -0.00    +0.000 C 
DOCKED: BRANCH  19  20
DOCKED: ATOM     23  C   UNL     1      36.041  11.061 122.181 -0.61 -0.00    +0.000 C 
DOCKED: BRANCH  20  22
DOCKED: ATOM     24  O   UNL     1      37.067   9.223 121.050 -2.73 -0.00    +0.000 OA
DOCKED: ATOM     25  C   UNL     1      36.662   9.694 122.146 -0.68 -0.00    +0.000 C 
DOCKED: ATOM     26  N   UNL     1      36.824   8.942 123.350 -0.61 -0.00    +0.000 N 
DOCKED: ATOM     27  O   UNL     1      37.399   7.718 123.321 -2.51 -0.00    +0.000 OA
DOCKED: ATOM     28  H   UNL     1      36.517   9.318 124.207 -0.42 -0.00    +0.000 HD
DOCKED: ENDBRANCH  20  22
DOCKED: ENDBRANCH  19  20
DOCKED: ENDBRANCH  18  19
DOCKED: ENDBRANCH  17  18
DOCKED: ENDBRANCH  16  17
DOCKED: ENDBRANCH   1  16
DOCKED: TORSDOF 6DOCKED: TER
DOCKED: ENDMDL
________________________________________________________________________________


	BEGINNING GENETIC ALGORITHM DOCKING 9 of 100
Run: 9 Seed: 1771928004 1185997887 [ Run 9 of 100 GA/GALS ]
Beginning LAMARCKIAN GENETIC ALGORITHM (LGA), with a maximum of 2500000 energy evaluations.

Final-Value: -14.494


	FINAL GENETIC ALGORITHM DOCKED STATE
	_______________________________________________


Detailed state:  trans 36.698 15.129 123.520 quatxyzw 0.298509 -0.473973 0.321717 0.763374 center -0.023 0.069 -0.054 ntor 6 -51.6301 154.2790 -31.9213 98.9347 -33.6075 -13.6540
State:	 36.698  15.129 123.520   0.462 -0.734  0.498 80.475    -51.63  154.28  -31.92   98.93  -33.61  -13.65

DOCKED: MODEL        9
DOCKED: USER    Run = 9
DOCKED: USER    DPF = ligand_dock.biased.dpf
DOCKED: USER  
DOCKED: USER    Estimated Free Energy of Binding    =  -11.88 kcal/mol  [=(1)+(2)+(3)-(4)]
DOCKED: USER    Estimated Inhibition Constant, Ki   =    1.97 nM (nanomolar)  [Temperature = 298.15 K]
DOCKED: USER    
DOCKED: USER    (1) Final Intermolecular Energy     =  -13.67 kcal/mol
DOCKED: USER        vdW + Hbond + desolv Energy     =  -13.67 kcal/mol
DOCKED: USER        Electrostatic Energy            =   +0.00 kcal/mol
DOCKED: USER    (2) Final Total Internal Energy     =   -0.83 kcal/mol
DOCKED: USER    (3) Torsional Free Energy           =   +1.79 kcal/mol
DOCKED: USER    (4) Unbound System's Energy  [=(2)] =   -0.83 kcal/mol
DOCKED: USER    
DOCKED: USER    
DOCKED: USER    NEWDPF move ligand.dum.pdbqt
DOCKED: USER    NEWDPF about -0.023000 0.069000 -0.054000
DOCKED: USER    NEWDPF tran0 36.697793 15.128868 123.520399
DOCKED: USER    NEWDPF quaternion0 0.298509 -0.473973 0.321717 0.763374
DOCKED: USER    NEWDPF axisangle0 0.462120 -0.733754 0.498047 80.474824
DOCKED: USER    NEWDPF quat0 0.462120 -0.733754 0.498047 80.474824
DOCKED: USER    NEWDPF dihe0 -51.63 154.28 -31.92 98.93 -33.61 -13.65 
DOCKED: USER  keepresnum = 1 
DOCKED: USER  
DOCKED: REMARK  Name = 
DOCKED: REMARK  6 active torsions:
DOCKED: REMARK  status: ('A' for Active; 'I' for Inactive)
DOCKED: REMARK    1  A    between atoms: C_2  and  C_5
DOCKED: REMARK    2  A    between atoms: C_5  and  C_6
DOCKED: REMARK    3  A    between atoms: C_6  and  C_7
DOCKED: REMARK    4  A    between atoms: C_7  and  C_8
DOCKED: REMARK    5  A    between atoms: C_8  and  C_9
DOCKED: REMARK    6  A    between atoms: C_9  and  N_10
DOCKED: REMARK                            x       y       z     vdW  Elec       q    Type
DOCKED: REMARK                         _______ _______ _______ _____ _____    ______ ____
DOCKED: USER                              x       y       z     vdW  Elec       q    Type
DOCKED: USER                           _______ _______ _______ _____ _____    ______ ____
DOCKED: ROOT
DOCKED: ATOM      1  N   UNL     1      36.566  16.005 123.272 -0.33 -0.00    +0.000 N 
DOCKED: ATOM      2  C   UNL     1      35.295  15.938 123.944 -0.50 -0.00    +0.000 C 
DOCKED: ATOM      3  C   UNL     1      34.940  16.956 124.960 -0.36 -0.00    +0.000 A 
DOCKED: ATOM      4  C   UNL     1      33.689  16.920 125.601 -0.30 -0.00    +0.000 A 
DOCKED: ATOM      5  C   UNL     1      33.355  17.879 126.559 -0.31 -0.00    +0.000 A 
DOCKED: ATOM      6  C   UNL     1      34.260  18.885 126.893 -0.20 -0.00    +0.000 A 
DOCKED: ATOM      7  C   UNL     1      35.514  18.942 126.269 -0.17 -0.00    +0.000 A 
DOCKED: ATOM      8  C   UNL     1      36.425  19.953 126.607 -0.10 -0.00    +0.000 A 
DOCKED: ATOM      9  C   UNL     1      37.674  20.008 125.989 -0.09 -0.00    +0.000 A 
DOCKED: ATOM     10  C   UNL     1      38.027  19.059 125.028 -0.14 -0.00    +0.000 A 
DOCKED: ATOM     11  C   UNL     1      37.131  18.036 124.671 -0.16 -0.00    +0.000 A 
DOCKED: ATOM     12  C   UNL     1      35.863  17.973 125.293 -0.20 -0.00    +0.000 A 
DOCKED: ATOM     13  O   UNL     1      34.482  15.012 123.670 -0.63 -0.00    +0.000 OA
DOCKED: ATOM     14  C   UNL     1      37.505  17.029 123.652 -0.25 -0.00    +0.000 C 
DOCKED: ATOM     15  O   UNL     1      38.649  17.067 123.120 -0.24 -0.00    +0.000 OA
DOCKED: ATOM     16  CM  UNL     1      36.226  16.963 124.271 -0.06 -0.00    +0.000 AC
DOCKED: ATOM     17  CM  UNL     1      34.603  17.926 125.929 -0.26 -0.00    +0.000 AC
DOCKED: ATOM     18  CM  UNL     1      36.772  18.996 125.643 -0.01 -0.00    +0.000 AC
DOCKED: ENDROOT
DOCKED: BRANCH   1  16
DOCKED: ATOM     19  C   UNL     1      36.943  14.979 122.289 -0.36 -0.00    +0.000 C 
DOCKED: BRANCH  16  17
DOCKED: ATOM     20  C   UNL     1      37.905  13.968 122.920 -0.50 -0.00    +0.000 C 
DOCKED: BRANCH  17  18
DOCKED: ATOM     21  C   UNL     1      37.686  12.564 122.347 -0.36 -0.00    +0.000 C 
DOCKED: BRANCH  18  19
DOCKED: ATOM     22  C   UNL     1      36.491  11.875 123.023 -0.68 -0.00    +0.000 C 
DOCKED: BRANCH  19  20
DOCKED: ATOM     23  C   UNL     1      35.800  10.865 122.096 -0.54 -0.00    +0.000 C 
DOCKED: BRANCH  20  22
DOCKED: ATOM     24  O   UNL     1      36.748   8.923 121.076 -2.63 -0.00    +0.000 OA
DOCKED: ATOM     25  C   UNL     1      36.461   9.518 122.149 -0.68 -0.00    +0.000 C 
DOCKED: ATOM     26  N   UNL     1      36.794   8.924 123.406 -0.59 -0.00    +0.000 N 
DOCKED: ATOM     27  O   UNL     1      37.405   7.718 123.453 -2.61 -0.00    +0.000 OA
DOCKED: ATOM     28  H   UNL     1      36.580   9.396 124.242 -0.41 -0.00    +0.000 HD
DOCKED: ENDBRANCH  20  22
DOCKED: ENDBRANCH  19  20
DOCKED: ENDBRANCH  18  19
DOCKED: ENDBRANCH  17  18
DOCKED: ENDBRANCH  16  17
DOCKED: ENDBRANCH   1  16
DOCKED: TORSDOF 6DOCKED: TER
DOCKED: ENDMDL
________________________________________________________________________________


	BEGINNING GENETIC ALGORITHM DOCKING 10 of 100
Run: 10 Seed: 297489539 1945229800 [ Run 10 of 100 GA/GALS ]
Beginning LAMARCKIAN GENETIC ALGORITHM (LGA), with a maximum of 2500000 energy evaluations.

Final-Value: -13.484


	FINAL GENETIC ALGORITHM DOCKED STATE
	_______________________________________________


Detailed state:  trans 38.251 15.230 120.710 quatxyzw 0.939470 -0.242110 0.231140 0.073157 center -0.023 0.069 -0.054 ntor 6 -49.5651 -180.0000 158.1312 -4.4324 86.6312 179.9331
State:	 38.251  15.230 120.710   0.942 -0.243  0.232 171.609    -49.57 -180.00  158.13   -4.43   86.63  179.93

DOCKED: MODEL       10
DOCKED: USER    Run = 10
DOCKED: USER    DPF = ligand_dock.biased.dpf
DOCKED: USER  
DOCKED: USER    Estimated Free Energy of Binding    =  -10.75 kcal/mol  [=(1)+(2)+(3)-(4)]
DOCKED: USER    Estimated Inhibition Constant, Ki   =   13.12 nM (nanomolar)  [Temperature = 298.15 K]
DOCKED: USER    
DOCKED: USER    (1) Final Intermolecular Energy     =  -12.54 kcal/mol
DOCKED: USER        vdW + Hbond + desolv Energy     =  -12.54 kcal/mol
DOCKED: USER        Electrostatic Energy            =   +0.00 kcal/mol
DOCKED: USER    (2) Final Total Internal Energy     =   -0.94 kcal/mol
DOCKED: USER    (3) Torsional Free Energy           =   +1.79 kcal/mol
DOCKED: USER    (4) Unbound System's Energy  [=(2)] =   -0.94 kcal/mol
DOCKED: USER    
DOCKED: USER    
DOCKED: USER    NEWDPF move ligand.dum.pdbqt
DOCKED: USER    NEWDPF about -0.023000 0.069000 -0.054000
DOCKED: USER    NEWDPF tran0 38.250664 15.230279 120.710061
DOCKED: USER    NEWDPF quaternion0 0.939470 -0.242110 0.231140 0.073157
DOCKED: USER    NEWDPF axisangle0 0.941995 -0.242761 0.231761 171.609279
DOCKED: USER    NEWDPF quat0 0.941995 -0.242761 0.231761 171.609279
DOCKED: USER    NEWDPF dihe0 -49.57 -180.00 158.13 -4.43 86.63 179.93 
DOCKED: USER  keepresnum = 1 
DOCKED: USER  
DOCKED: REMARK  Name = 
DOCKED: REMARK  6 active torsions:
DOCKED: REMARK  status: ('A' for Active; 'I' for Inactive)
DOCKED: REMARK    1  A    between atoms: C_2  and  C_5
DOCKED: REMARK    2  A    between atoms: C_5  and  C_6
DOCKED: REMARK    3  A    between atoms: C_6  and  C_7
DOCKED: REMARK    4  A    between atoms: C_7  and  C_8
DOCKED: REMARK    5  A    between atoms: C_8  and  C_9
DOCKED: REMARK    6  A    between atoms: C_9  and  N_10
DOCKED: REMARK                            x       y       z     vdW  Elec       q    Type
DOCKED: REMARK                         _______ _______ _______ _____ _____    ______ ____
DOCKED: USER                              x       y       z     vdW  Elec       q    Type
DOCKED: USER                           _______ _______ _______ _____ _____    ______ ____
DOCKED: ROOT
DOCKED: ATOM      1  N   UNL     1      37.459  14.907 120.371 -0.24 -0.00    +0.000 N 
DOCKED: ATOM      2  C   UNL     1      36.793  15.959 121.094 -0.21 -0.00    +0.000 C 
DOCKED: ATOM      3  C   UNL     1      35.858  16.865 120.388 -0.12 -0.00    +0.000 A 
DOCKED: ATOM      4  C   UNL     1      35.177  17.877 121.089 -0.26 -0.00    +0.000 A 
DOCKED: ATOM      5  C   UNL     1      34.297  18.731 120.424 -0.25 -0.00    +0.000 A 
DOCKED: ATOM      6  C   UNL     1      34.082  18.593 119.053 -0.23 -0.00    +0.000 A 
DOCKED: ATOM      7  C   UNL     1      34.750  17.593 118.331 -0.14 -0.00    +0.000 A 
DOCKED: ATOM      8  C   UNL     1      34.535  17.455 116.953 -0.10 -0.00    +0.000 A 
DOCKED: ATOM      9  C   UNL     1      35.201  16.463 116.234 -0.10 -0.00    +0.000 A 
DOCKED: ATOM     10  C   UNL     1      36.085  15.598 116.881 -0.17 -0.00    +0.000 A 
DOCKED: ATOM     11  C   UNL     1      36.317  15.715 118.264 -0.18 -0.00    +0.000 A 
DOCKED: ATOM     12  C   UNL     1      35.646  16.718 118.998 -0.09 -0.00    +0.000 A 
DOCKED: ATOM     13  O   UNL     1      37.005  16.111 122.329 -0.26 -0.00    +0.000 OA
DOCKED: ATOM     14  C   UNL     1      37.255  14.797 118.949 -0.28 -0.00    +0.000 C 
DOCKED: ATOM     15  O   UNL     1      37.877  13.922 118.286 -0.34 -0.00    +0.000 OA
DOCKED: ATOM     16  CM  UNL     1      36.579  15.802 119.696 +0.00 -0.00    +0.000 AC
DOCKED: ATOM     17  CM  UNL     1      34.968  17.730 119.714 +0.00 -0.00    +0.000 AC
DOCKED: ATOM     18  CM  UNL     1      35.422  16.590 117.610 +0.00 -0.00    +0.000 AC
DOCKED: ENDROOT
DOCKED: BRANCH   1  16
DOCKED: ATOM     19  C   UNL     1      38.416  14.024 121.054 -0.39 -0.00    +0.000 C 
DOCKED: BRANCH  16  17
DOCKED: ATOM     20  C   UNL     1      37.702  12.774 121.578 -0.46 -0.00    +0.000 C 
DOCKED: BRANCH  17  18
DOCKED: ATOM     21  C   UNL     1      37.254  12.962 123.032 -0.59 -0.00    +0.000 C 
DOCKED: BRANCH  18  19
DOCKED: ATOM     22  C   UNL     1      36.450  11.748 123.520 -0.70 -0.00    +0.000 C 
DOCKED: BRANCH  19  20
DOCKED: ATOM     23  C   UNL     1      35.912  10.901 122.358 -0.65 -0.00    +0.000 C 
DOCKED: BRANCH  20  22
DOCKED: ATOM     24  O   UNL     1      37.064   9.163 121.189 -2.73 -0.00    +0.000 OA
DOCKED: ATOM     25  C   UNL     1      36.588   9.562 122.286 -0.70 -0.00    +0.000 C 
DOCKED: ATOM     26  N   UNL     1      36.721   8.754 123.458 -0.60 -0.00    +0.000 N 
DOCKED: ATOM     27  O   UNL     1      37.345   7.555 123.396 -2.47 -0.00    +0.000 OA
DOCKED: ATOM     28  H   UNL     1      36.359   9.073 124.316 -0.28 -0.00    +0.000 HD
DOCKED: ENDBRANCH  20  22
DOCKED: ENDBRANCH  19  20
DOCKED: ENDBRANCH  18  19
DOCKED: ENDBRANCH  17  18
DOCKED: ENDBRANCH  16  17
DOCKED: ENDBRANCH   1  16
DOCKED: TORSDOF 6DOCKED: TER
DOCKED: ENDMDL
________________________________________________________________________________


	BEGINNING GENETIC ALGORITHM DOCKING 11 of 100
Run: 11 Seed: 457845848 1902979584 [ Run 11 of 100 GA/GALS ]
Beginning LAMARCKIAN GENETIC ALGORITHM (LGA), with a maximum of 2500000 energy evaluations.

Final-Value: -14.179


	FINAL GENETIC ALGORITHM DOCKED STATE
	_______________________________________________


Detailed state:  trans 35.965 15.566 124.315 quatxyzw -0.495212 0.490362 -0.277349 -0.661353 center -0.023 0.069 -0.054 ntor 6 -163.1789 179.1448 -21.3800 98.2555 27.4664 53.7081
State:	 35.965  15.566 124.315  -0.660  0.654 -0.370 -97.194   -163.18  179.14  -21.38   98.26   27.47   53.71

DOCKED: MODEL       11
DOCKED: USER    Run = 11
DOCKED: USER    DPF = ligand_dock.biased.dpf
DOCKED: USER  
DOCKED: USER    Estimated Free Energy of Binding    =  -12.10 kcal/mol  [=(1)+(2)+(3)-(4)]
DOCKED: USER    Estimated Inhibition Constant, Ki   =    1.35 nM (nanomolar)  [Temperature = 298.15 K]
DOCKED: USER    
DOCKED: USER    (1) Final Intermolecular Energy     =  -13.89 kcal/mol
DOCKED: USER        vdW + Hbond + desolv Energy     =  -13.89 kcal/mol
DOCKED: USER        Electrostatic Energy            =   +0.00 kcal/mol
DOCKED: USER    (2) Final Total Internal Energy     =   -0.29 kcal/mol
DOCKED: USER    (3) Torsional Free Energy           =   +1.79 kcal/mol
DOCKED: USER    (4) Unbound System's Energy  [=(2)] =   -0.29 kcal/mol
DOCKED: USER    
DOCKED: USER    
DOCKED: USER    NEWDPF move ligand.dum.pdbqt
DOCKED: USER    NEWDPF about -0.023000 0.069000 -0.054000
DOCKED: USER    NEWDPF tran0 35.965386 15.566271 124.315157
DOCKED: USER    NEWDPF quaternion0 -0.495212 0.490362 -0.277349 -0.661353
DOCKED: USER    NEWDPF axisangle0 -0.660217 0.653751 -0.369761 -97.193705
DOCKED: USER    NEWDPF quat0 -0.660217 0.653751 -0.369761 -97.193705
DOCKED: USER    NEWDPF dihe0 -163.18 179.14 -21.38 98.26 27.47 53.71 
DOCKED: USER  keepresnum = 1 
DOCKED: USER  
DOCKED: REMARK  Name = 
DOCKED: REMARK  6 active torsions:
DOCKED: REMARK  status: ('A' for Active; 'I' for Inactive)
DOCKED: REMARK    1  A    between atoms: C_2  and  C_5
DOCKED: REMARK    2  A    between atoms: C_5  and  C_6
DOCKED: REMARK    3  A    between atoms: C_6  and  C_7
DOCKED: REMARK    4  A    between atoms: C_7  and  C_8
DOCKED: REMARK    5  A    between atoms: C_8  and  C_9
DOCKED: REMARK    6  A    between atoms: C_9  and  N_10
DOCKED: REMARK                            x       y       z     vdW  Elec       q    Type
DOCKED: REMARK                         _______ _______ _______ _____ _____    ______ ____
DOCKED: USER                              x       y       z     vdW  Elec       q    Type
DOCKED: USER                           _______ _______ _______ _____ _____    ______ ____
DOCKED: ROOT
DOCKED: ATOM      1  N   UNL     1      35.592  16.288 123.885 -0.38 -0.00    +0.000 N 
DOCKED: ATOM      2  C   UNL     1      34.564  16.277 124.894 -0.51 -0.00    +0.000 C 
DOCKED: ATOM      3  C   UNL     1      34.252  17.514 125.647 -0.36 -0.00    +0.000 A 
DOCKED: ATOM      4  C   UNL     1      33.230  17.524 126.612 -0.26 -0.00    +0.000 A 
DOCKED: ATOM      5  C   UNL     1      32.936  18.689 127.322 -0.22 -0.00    +0.000 A 
DOCKED: ATOM      6  C   UNL     1      33.655  19.860 127.083 -0.16 -0.00    +0.000 A 
DOCKED: ATOM      7  C   UNL     1      34.680  19.875 126.126 -0.16 -0.00    +0.000 A 
DOCKED: ATOM      8  C   UNL     1      35.403  21.051 125.887 -0.12 -0.00    +0.000 A 
DOCKED: ATOM      9  C   UNL     1      36.425  21.067 124.937 -0.11 -0.00    +0.000 A 
DOCKED: ATOM     10  C   UNL     1      36.734  19.912 124.216 -0.13 -0.00    +0.000 A 
DOCKED: ATOM     11  C   UNL     1      36.022  18.719 124.437 -0.20 -0.00    +0.000 A 
DOCKED: ATOM     12  C   UNL     1      34.985  18.696 125.398 -0.24 -0.00    +0.000 A 
DOCKED: ATOM     13  O   UNL     1      33.930  15.214 125.139 -0.63 -0.00    +0.000 OA
DOCKED: ATOM     14  C   UNL     1      36.350  17.494 123.672 -0.27 -0.00    +0.000 C 
DOCKED: ATOM     15  O   UNL     1      37.296  17.508 122.837 -0.18 -0.00    +0.000 OA
DOCKED: ATOM     16  CM  UNL     1      35.302  17.466 124.635 -0.36 -0.00    +0.000 AC
DOCKED: ATOM     17  CM  UNL     1      33.956  18.693 126.365 -0.05 -0.00    +0.000 AC
DOCKED: ATOM     18  CM  UNL     1      35.708  19.887 125.167 -0.01 -0.00    +0.000 AC
DOCKED: ENDROOT
DOCKED: BRANCH   1  16
DOCKED: ATOM     19  C   UNL     1      35.934  15.058 123.157 -0.44 -0.00    +0.000 C 
DOCKED: BRANCH  16  17
DOCKED: ATOM     20  C   UNL     1      35.780  13.840 124.075 -0.47 -0.00    +0.000 C 
DOCKED: BRANCH  17  18
DOCKED: ATOM     21  C   UNL     1      36.713  12.703 123.645 -0.63 -0.00    +0.000 C 
DOCKED: BRANCH  18  19
DOCKED: ATOM     22  C   UNL     1      36.107  11.905 122.481 -0.57 -0.00    +0.000 C 
DOCKED: BRANCH  19  20
DOCKED: ATOM     23  C   UNL     1      37.159  11.071 121.737 -0.42 -0.00    +0.000 C 
DOCKED: BRANCH  20  22
DOCKED: ATOM     24  O   UNL     1      36.687   8.848 120.998 -2.61 -0.00    +0.000 OA
DOCKED: ATOM     25  C   UNL     1      36.970   9.600 121.969 -0.62 -0.00    +0.000 C 
DOCKED: ATOM     26  N   UNL     1      37.140   9.045 123.276 -0.60 -0.00    +0.000 N 
DOCKED: ATOM     27  O   UNL     1      36.986   7.717 123.481 -2.63 -0.00    +0.000 OA
DOCKED: ATOM     28  H   UNL     1      37.372   9.633 124.030 -0.54 -0.00    +0.000 HD
DOCKED: ENDBRANCH  20  22
DOCKED: ENDBRANCH  19  20
DOCKED: ENDBRANCH  18  19
DOCKED: ENDBRANCH  17  18
DOCKED: ENDBRANCH  16  17
DOCKED: ENDBRANCH   1  16
DOCKED: TORSDOF 6DOCKED: TER
DOCKED: ENDMDL
________________________________________________________________________________


	BEGINNING GENETIC ALGORITHM DOCKING 12 of 100
Run: 12 Seed: 1882952470 424760607 [ Run 12 of 100 GA/GALS ]
Beginning LAMARCKIAN GENETIC ALGORITHM (LGA), with a maximum of 2500000 energy evaluations.

Final-Value: -15.299


	FINAL GENETIC ALGORITHM DOCKED STATE
	_______________________________________________


Detailed state:  trans 36.922 15.465 122.298 quatxyzw 0.699935 -0.281790 -0.575468 -0.315472 center -0.023 0.069 -0.054 ntor 6 -140.5573 161.0782 -126.2127 -131.0643 -87.1186 -166.1391
State:	 36.922  15.465 122.298   0.738 -0.297 -0.606 -143.221   -140.56  161.08 -126.21 -131.06  -87.12 -166.14

DOCKED: MODEL       12
DOCKED: USER    Run = 12
DOCKED: USER    DPF = ligand_dock.biased.dpf
DOCKED: USER  
DOCKED: USER    Estimated Free Energy of Binding    =  -12.62 kcal/mol  [=(1)+(2)+(3)-(4)]
DOCKED: USER    Estimated Inhibition Constant, Ki   =  562.85 pM (picomolar)  [Temperature = 298.15 K]
DOCKED: USER    
DOCKED: USER    (1) Final Intermolecular Energy     =  -14.41 kcal/mol
DOCKED: USER        vdW + Hbond + desolv Energy     =  -14.41 kcal/mol
DOCKED: USER        Electrostatic Energy            =   +0.00 kcal/mol
DOCKED: USER    (2) Final Total Internal Energy     =   -0.89 kcal/mol
DOCKED: USER    (3) Torsional Free Energy           =   +1.79 kcal/mol
DOCKED: USER    (4) Unbound System's Energy  [=(2)] =   -0.89 kcal/mol
DOCKED: USER    
DOCKED: USER    
DOCKED: USER    NEWDPF move ligand.dum.pdbqt
DOCKED: USER    NEWDPF about -0.023000 0.069000 -0.054000
DOCKED: USER    NEWDPF tran0 36.921858 15.464699 122.297715
DOCKED: USER    NEWDPF quaternion0 0.699935 -0.281790 -0.575468 -0.315472
DOCKED: USER    NEWDPF axisangle0 0.737601 -0.296954 -0.606435 -143.221388
DOCKED: USER    NEWDPF quat0 0.737601 -0.296954 -0.606435 -143.221388
DOCKED: USER    NEWDPF dihe0 -140.56 161.08 -126.21 -131.06 -87.12 -166.14 
DOCKED: USER  keepresnum = 1 
DOCKED: USER  
DOCKED: REMARK  Name = 
DOCKED: REMARK  6 active torsions:
DOCKED: REMARK  status: ('A' for Active; 'I' for Inactive)
DOCKED: REMARK    1  A    between atoms: C_2  and  C_5
DOCKED: REMARK    2  A    between atoms: C_5  and  C_6
DOCKED: REMARK    3  A    between atoms: C_6  and  C_7
DOCKED: REMARK    4  A    between atoms: C_7  and  C_8
DOCKED: REMARK    5  A    between atoms: C_8  and  C_9
DOCKED: REMARK    6  A    between atoms: C_9  and  N_10
DOCKED: REMARK                            x       y       z     vdW  Elec       q    Type
DOCKED: REMARK                         _______ _______ _______ _____ _____    ______ ____
DOCKED: USER                              x       y       z     vdW  Elec       q    Type
DOCKED: USER                           _______ _______ _______ _____ _____    ______ ____
DOCKED: ROOT
DOCKED: ATOM      1  N   UNL     1      36.874  15.472 123.216 -0.36 -0.00    +0.000 N 
DOCKED: ATOM      2  C   UNL     1      37.675  16.668 123.185 -0.27 -0.00    +0.000 C 
DOCKED: ATOM      3  C   UNL     1      37.219  17.884 123.897 -0.19 -0.00    +0.000 A 
DOCKED: ATOM      4  C   UNL     1      38.007  19.049 123.900 -0.11 -0.00    +0.000 A 
DOCKED: ATOM      5  C   UNL     1      37.578  20.195 124.571 -0.08 -0.00    +0.000 A 
DOCKED: ATOM      6  C   UNL     1      36.358  20.199 125.247 -0.12 -0.00    +0.000 A 
DOCKED: ATOM      7  C   UNL     1      35.553  19.051 125.258 -0.20 -0.00    +0.000 A 
DOCKED: ATOM      8  C   UNL     1      34.326  19.057 125.935 -0.24 -0.00    +0.000 A 
DOCKED: ATOM      9  C   UNL     1      33.523  17.916 125.944 -0.30 -0.00    +0.000 A 
DOCKED: ATOM     10  C   UNL     1      33.936  16.760 125.279 -0.35 -0.00    +0.000 A 
DOCKED: ATOM     11  C   UNL     1      35.163  16.728 124.593 -0.38 -0.00    +0.000 A 
DOCKED: ATOM     12  C   UNL     1      35.981  17.881 124.580 -0.24 -0.00    +0.000 A 
DOCKED: ATOM     13  O   UNL     1      38.766  16.683 122.550 -0.22 -0.00    +0.000 OA
DOCKED: ATOM     14  C   UNL     1      35.600  15.502 123.888 -0.50 -0.00    +0.000 C 
DOCKED: ATOM     15  O   UNL     1      34.854  14.484 123.875 -0.65 -0.00    +0.000 OA
DOCKED: ATOM     16  CM  UNL     1      36.431  16.657 123.875 -0.01 -0.00    +0.000 AC
DOCKED: ATOM     17  CM  UNL     1      36.783  19.043 124.576 -0.01 -0.00    +0.000 AC
DOCKED: ATOM     18  CM  UNL     1      34.747  17.899 125.265 -0.45 -0.00    +0.000 AC
DOCKED: ENDROOT
DOCKED: BRANCH   1  16
DOCKED: ATOM     19  C   UNL     1      37.299  14.272 122.483 -0.46 -0.00    +0.000 C 
DOCKED: BRANCH  16  17
DOCKED: ATOM     20  C   UNL     1      37.814  13.210 123.460 -0.46 -0.00    +0.000 C 
DOCKED: BRANCH  17  18
DOCKED: ATOM     21  C   UNL     1      36.693  12.248 123.870 -0.64 -0.00    +0.000 C 
DOCKED: BRANCH  18  19
DOCKED: ATOM     22  C   UNL     1      35.940  11.724 122.638 -0.61 -0.00    +0.000 C 
DOCKED: BRANCH  19  20
DOCKED: ATOM     23  C   UNL     1      36.873  11.031 121.636 -0.53 -0.00    +0.000 C 
DOCKED: BRANCH  20  22
DOCKED: ATOM     24  O   UNL     1      36.960   8.757 120.904 -2.60 -0.00    +0.000 OA
DOCKED: ATOM     25  C   UNL     1      36.954   9.552 121.882 -0.61 -0.00    +0.000 C 
DOCKED: ATOM     26  N   UNL     1      37.058   9.045 123.215 -0.64 -0.00    +0.000 N 
DOCKED: ATOM     27  O   UNL     1      37.148   7.713 123.435 -2.66 -0.00    +0.000 OA
DOCKED: ATOM     28  H   UNL     1      37.065   9.668 123.977 -0.51 -0.00    +0.000 HD
DOCKED: ENDBRANCH  20  22
DOCKED: ENDBRANCH  19  20
DOCKED: ENDBRANCH  18  19
DOCKED: ENDBRANCH  17  18
DOCKED: ENDBRANCH  16  17
DOCKED: ENDBRANCH   1  16
DOCKED: TORSDOF 6DOCKED: TER
DOCKED: ENDMDL
________________________________________________________________________________


	BEGINNING GENETIC ALGORITHM DOCKING 13 of 100
Run: 13 Seed: 607652743 272645833 [ Run 13 of 100 GA/GALS ]
Beginning LAMARCKIAN GENETIC ALGORITHM (LGA), with a maximum of 2500000 energy evaluations.

Final-Value: -15.484


	FINAL GENETIC ALGORITHM DOCKED STATE
	_______________________________________________


Detailed state:  trans 36.642 14.455 123.411 quatxyzw -0.383887 0.488301 -0.356588 -0.697881 center -0.023 0.069 -0.054 ntor 6 -109.1013 165.3788 -152.9712 -113.9279 -102.1977 -3.0374
State:	 36.642  14.455 123.411  -0.536  0.682 -0.498 -91.485   -109.10  165.38 -152.97 -113.93 -102.20   -3.04

DOCKED: MODEL       13
DOCKED: USER    Run = 13
DOCKED: USER    DPF = ligand_dock.biased.dpf
DOCKED: USER  
DOCKED: USER    Estimated Free Energy of Binding    =  -12.72 kcal/mol  [=(1)+(2)+(3)-(4)]
DOCKED: USER    Estimated Inhibition Constant, Ki   =  471.33 pM (picomolar)  [Temperature = 298.15 K]
DOCKED: USER    
DOCKED: USER    (1) Final Intermolecular Energy     =  -14.51 kcal/mol
DOCKED: USER        vdW + Hbond + desolv Energy     =  -14.51 kcal/mol
DOCKED: USER        Electrostatic Energy            =   +0.00 kcal/mol
DOCKED: USER    (2) Final Total Internal Energy     =   -0.97 kcal/mol
DOCKED: USER    (3) Torsional Free Energy           =   +1.79 kcal/mol
DOCKED: USER    (4) Unbound System's Energy  [=(2)] =   -0.97 kcal/mol
DOCKED: USER    
DOCKED: USER    
DOCKED: USER    NEWDPF move ligand.dum.pdbqt
DOCKED: USER    NEWDPF about -0.023000 0.069000 -0.054000
DOCKED: USER    NEWDPF tran0 36.641599 14.455466 123.410842
DOCKED: USER    NEWDPF quaternion0 -0.383887 0.488301 -0.356588 -0.697881
DOCKED: USER    NEWDPF axisangle0 -0.535996 0.681781 -0.497879 -91.485467
DOCKED: USER    NEWDPF quat0 -0.535996 0.681781 -0.497879 -91.485467
DOCKED: USER    NEWDPF dihe0 -109.10 165.38 -152.97 -113.93 -102.20 -3.04 
DOCKED: USER  keepresnum = 1 
DOCKED: USER  
DOCKED: REMARK  Name = 
DOCKED: REMARK  6 active torsions:
DOCKED: REMARK  status: ('A' for Active; 'I' for Inactive)
DOCKED: REMARK    1  A    between atoms: C_2  and  C_5
DOCKED: REMARK    2  A    between atoms: C_5  and  C_6
DOCKED: REMARK    3  A    between atoms: C_6  and  C_7
DOCKED: REMARK    4  A    between atoms: C_7  and  C_8
DOCKED: REMARK    5  A    between atoms: C_8  and  C_9
DOCKED: REMARK    6  A    between atoms: C_9  and  N_10
DOCKED: REMARK                            x       y       z     vdW  Elec       q    Type
DOCKED: REMARK                         _______ _______ _______ _____ _____    ______ ____
DOCKED: USER                              x       y       z     vdW  Elec       q    Type
DOCKED: USER                           _______ _______ _______ _____ _____    ______ ____
DOCKED: ROOT
DOCKED: ATOM      1  N   UNL     1      36.491  15.272 123.014 -0.38 -0.00    +0.000 N 
DOCKED: ATOM      2  C   UNL     1      35.309  15.378 123.829 -0.54 -0.00    +0.000 C 
DOCKED: ATOM      3  C   UNL     1      35.089  16.583 124.663 -0.38 -0.00    +0.000 A 
DOCKED: ATOM      4  C   UNL     1      33.924  16.713 125.438 -0.35 -0.00    +0.000 A 
DOCKED: ATOM      5  C   UNL     1      33.717  17.847 126.224 -0.33 -0.00    +0.000 A 
DOCKED: ATOM      6  C   UNL     1      34.667  18.867 126.251 -0.22 -0.00    +0.000 A 
DOCKED: ATOM      7  C   UNL     1      35.839  18.761 125.488 -0.19 -0.00    +0.000 A 
DOCKED: ATOM      8  C   UNL     1      36.795  19.786 125.517 -0.12 -0.00    +0.000 A 
DOCKED: ATOM      9  C   UNL     1      37.962  19.680 124.760 -0.10 -0.00    +0.000 A 
DOCKED: ATOM     10  C   UNL     1      38.186  18.553 123.967 -0.15 -0.00    +0.000 A 
DOCKED: ATOM     11  C   UNL     1      37.242  17.512 123.920 -0.20 -0.00    +0.000 A 
DOCKED: ATOM     12  C   UNL     1      36.058  17.612 124.684 -0.23 -0.00    +0.000 A 
DOCKED: ATOM     13  O   UNL     1      34.458  14.446 123.834 -0.64 -0.00    +0.000 OA
DOCKED: ATOM     14  C   UNL     1      37.481  16.317 123.079 -0.30 -0.00    +0.000 C 
DOCKED: ATOM     15  O   UNL     1      38.553  16.214 122.421 -0.25 -0.00    +0.000 OA
DOCKED: ATOM     16  CM  UNL     1      36.284  16.414 123.842 -0.01 -0.00    +0.000 AC
DOCKED: ATOM     17  CM  UNL     1      34.882  17.731 125.458 -0.42 -0.00    +0.000 AC
DOCKED: ATOM     18  CM  UNL     1      37.014  18.651 124.723 -0.01 -0.00    +0.000 AC
DOCKED: ENDROOT
DOCKED: BRANCH   1  16
DOCKED: ATOM     19  C   UNL     1      36.736  14.065 122.211 -0.38 -0.00    +0.000 C 
DOCKED: BRANCH  16  17
DOCKED: ATOM     20  C   UNL     1      37.542  13.045 123.021 -0.56 -0.00    +0.000 C 
DOCKED: BRANCH  17  18
DOCKED: ATOM     21  C   UNL     1      36.650  12.309 124.027 -0.53 -0.00    +0.000 C 
DOCKED: BRANCH  18  19
DOCKED: ATOM     22  C   UNL     1      35.618  11.429 123.306 -0.60 -0.00    +0.000 C 
DOCKED: BRANCH  19  20
DOCKED: ATOM     23  C   UNL     1      36.136  10.911 121.957 -0.57 -0.00    +0.000 C 
DOCKED: BRANCH  20  22
DOCKED: ATOM     24  O   UNL     1      37.002   8.887 121.028 -2.69 -0.00    +0.000 OA
DOCKED: ATOM     25  C   UNL     1      36.698   9.524 122.072 -0.69 -0.00    +0.000 C 
DOCKED: ATOM     26  N   UNL     1      36.921   8.937 123.356 -0.61 -0.00    +0.000 N 
DOCKED: ATOM     27  O   UNL     1      37.443   7.693 123.460 -2.58 -0.00    +0.000 OA
DOCKED: ATOM     28  H   UNL     1      36.694   9.442 124.171 -0.48 -0.00    +0.000 HD
DOCKED: ENDBRANCH  20  22
DOCKED: ENDBRANCH  19  20
DOCKED: ENDBRANCH  18  19
DOCKED: ENDBRANCH  17  18
DOCKED: ENDBRANCH  16  17
DOCKED: ENDBRANCH   1  16
DOCKED: TORSDOF 6DOCKED: TER
DOCKED: ENDMDL
________________________________________________________________________________


	BEGINNING GENETIC ALGORITHM DOCKING 14 of 100
Run: 14 Seed: 1448865698 77251340 [ Run 14 of 100 GA/GALS ]
Beginning LAMARCKIAN GENETIC ALGORITHM (LGA), with a maximum of 2500000 energy evaluations.

Final-Value: -14.145


	FINAL GENETIC ALGORITHM DOCKED STATE
	_______________________________________________


Detailed state:  trans 36.948 14.849 119.695 quatxyzw -0.436575 -0.451247 -0.736490 -0.251716 center -0.023 0.069 -0.054 ntor 6 -70.7705 174.4412 -176.1231 -62.3105 -21.3332 176.3115
State:	 36.948  14.849 119.695  -0.451 -0.466 -0.761 -150.842    -70.77  174.44 -176.12  -62.31  -21.33  176.31

DOCKED: MODEL       14
DOCKED: USER    Run = 14
DOCKED: USER    DPF = ligand_dock.biased.dpf
DOCKED: USER  
DOCKED: USER    Estimated Free Energy of Binding    =  -11.49 kcal/mol  [=(1)+(2)+(3)-(4)]
DOCKED: USER    Estimated Inhibition Constant, Ki   =    3.78 nM (nanomolar)  [Temperature = 298.15 K]
DOCKED: USER    
DOCKED: USER    (1) Final Intermolecular Energy     =  -13.28 kcal/mol
DOCKED: USER        vdW + Hbond + desolv Energy     =  -13.28 kcal/mol
DOCKED: USER        Electrostatic Energy            =   +0.00 kcal/mol
DOCKED: USER    (2) Final Total Internal Energy     =   -0.86 kcal/mol
DOCKED: USER    (3) Torsional Free Energy           =   +1.79 kcal/mol
DOCKED: USER    (4) Unbound System's Energy  [=(2)] =   -0.86 kcal/mol
DOCKED: USER    
DOCKED: USER    
DOCKED: USER    NEWDPF move ligand.dum.pdbqt
DOCKED: USER    NEWDPF about -0.023000 0.069000 -0.054000
DOCKED: USER    NEWDPF tran0 36.948213 14.848743 119.694913
DOCKED: USER    NEWDPF quaternion0 -0.436575 -0.451247 -0.736490 -0.251716
DOCKED: USER    NEWDPF axisangle0 -0.451100 -0.466260 -0.760993 -150.841861
DOCKED: USER    NEWDPF quat0 -0.451100 -0.466260 -0.760993 -150.841861
DOCKED: USER    NEWDPF dihe0 -70.77 174.44 -176.12 -62.31 -21.33 176.31 
DOCKED: USER  keepresnum = 1 
DOCKED: USER  
DOCKED: REMARK  Name = 
DOCKED: REMARK  6 active torsions:
DOCKED: REMARK  status: ('A' for Active; 'I' for Inactive)
DOCKED: REMARK    1  A    between atoms: C_2  and  C_5
DOCKED: REMARK    2  A    between atoms: C_5  and  C_6
DOCKED: REMARK    3  A    between atoms: C_6  and  C_7
DOCKED: REMARK    4  A    between atoms: C_7  and  C_8
DOCKED: REMARK    5  A    between atoms: C_8  and  C_9
DOCKED: REMARK    6  A    between atoms: C_9  and  N_10
DOCKED: REMARK                            x       y       z     vdW  Elec       q    Type
DOCKED: REMARK                         _______ _______ _______ _____ _____    ______ ____
DOCKED: USER                              x       y       z     vdW  Elec       q    Type
DOCKED: USER                           _______ _______ _______ _____ _____    ______ ____
DOCKED: ROOT
DOCKED: ATOM      1  N   UNL     1      37.741  14.437 119.475 -0.27 -0.00    +0.000 N 
DOCKED: ATOM      2  C   UNL     1      37.097  13.983 118.269 -0.38 -0.00    +0.000 C 
DOCKED: ATOM      3  C   UNL     1      37.728  14.236 116.953 -0.30 -0.00    +0.000 A 
DOCKED: ATOM      4  C   UNL     1      37.125  13.771 115.771 -0.34 -0.00    +0.000 A 
DOCKED: ATOM      5  C   UNL     1      37.719  14.009 114.530 -0.32 -0.00    +0.000 A 
DOCKED: ATOM      6  C   UNL     1      38.919  14.713 114.448 -0.21 -0.00    +0.000 A 
DOCKED: ATOM      7  C   UNL     1      39.540  15.189 115.612 -0.27 -0.00    +0.000 A 
DOCKED: ATOM      8  C   UNL     1      40.745  15.899 115.529 -0.24 -0.00    +0.000 A 
DOCKED: ATOM      9  C   UNL     1      41.361  16.375 116.687 -0.18 -0.00    +0.000 A 
DOCKED: ATOM     10  C   UNL     1      40.783  16.147 117.937 -0.14 -0.00    +0.000 A 
DOCKED: ATOM     11  C   UNL     1      39.575  15.436 118.047 -0.01 -0.00    +0.000 A 
DOCKED: ATOM     12  C   UNL     1      38.945  14.951 116.878 -0.19 -0.00    +0.000 A 
DOCKED: ATOM     13  O   UNL     1      35.995  13.372 118.332 -0.46 -0.00    +0.000 OA
DOCKED: ATOM     14  C   UNL     1      38.962  15.194 119.373 -0.17 -0.00    +0.000 C 
DOCKED: ATOM     15  O   UNL     1      39.510  15.655 120.413 -0.22 -0.00    +0.000 OA
DOCKED: ATOM     16  CM  UNL     1      38.325  14.699 118.201 +0.00 -0.00    +0.000 AC
DOCKED: ATOM     17  CM  UNL     1      38.329  14.478 115.699 +0.00 -0.00    +0.000 AC
DOCKED: ATOM     18  CM  UNL     1      40.158  15.666 116.782 +0.00 -0.00    +0.000 AC
DOCKED: ENDROOT
DOCKED: BRANCH   1  16
DOCKED: ATOM     19  C   UNL     1      37.106  14.224 120.783 -0.30 -0.00    +0.000 C 
DOCKED: BRANCH  16  17
DOCKED: ATOM     20  C   UNL     1      37.524  12.867 121.359 -0.50 -0.00    +0.000 C 
DOCKED: BRANCH  17  18
DOCKED: ATOM     21  C   UNL     1      37.336  12.832 122.880 -0.58 -0.00    +0.000 C 
DOCKED: BRANCH  18  19
DOCKED: ATOM     22  C   UNL     1      36.317  11.756 123.283 -0.70 -0.00    +0.000 C 
DOCKED: BRANCH  19  20
DOCKED: ATOM     23  C   UNL     1      35.886  10.888 122.092 -0.56 -0.00    +0.000 C 
DOCKED: BRANCH  20  22
DOCKED: ATOM     24  O   UNL     1      36.726   8.895 121.076 -2.62 -0.00    +0.000 OA
DOCKED: ATOM     25  C   UNL     1      36.502   9.520 122.147 -0.68 -0.00    +0.000 C 
DOCKED: ATOM     26  N   UNL     1      36.866   8.940 123.402 -0.60 -0.00    +0.000 N 
DOCKED: ATOM     27  O   UNL     1      37.437   7.715 123.450 -2.60 -0.00    +0.000 OA
DOCKED: ATOM     28  H   UNL     1      36.701   9.436 124.237 -0.46 -0.00    +0.000 HD
DOCKED: ENDBRANCH  20  22
DOCKED: ENDBRANCH  19  20
DOCKED: ENDBRANCH  18  19
DOCKED: ENDBRANCH  17  18
DOCKED: ENDBRANCH  16  17
DOCKED: ENDBRANCH   1  16
DOCKED: TORSDOF 6DOCKED: TER
DOCKED: ENDMDL
________________________________________________________________________________


	BEGINNING GENETIC ALGORITHM DOCKING 15 of 100
Run: 15 Seed: 705987738 614309411 [ Run 15 of 100 GA/GALS ]
Beginning LAMARCKIAN GENETIC ALGORITHM (LGA), with a maximum of 2500000 energy evaluations.

Final-Value: -13.715


	FINAL GENETIC ALGORITHM DOCKED STATE
	_______________________________________________


Detailed state:  trans 37.488 13.798 120.947 quatxyzw -0.387334 -0.189601 -0.775886 -0.460461 center -0.023 0.069 -0.054 ntor 6 -67.9309 171.9058 -153.8826 77.5473 27.2671 20.3949
State:	 37.488  13.798 120.947  -0.436 -0.214 -0.874 -125.166    -67.93  171.91 -153.88   77.55   27.27   20.39

DOCKED: MODEL       15
DOCKED: USER    Run = 15
DOCKED: USER    DPF = ligand_dock.biased.dpf
DOCKED: USER  
DOCKED: USER    Estimated Free Energy of Binding    =  -10.99 kcal/mol  [=(1)+(2)+(3)-(4)]
DOCKED: USER    Estimated Inhibition Constant, Ki   =    8.86 nM (nanomolar)  [Temperature = 298.15 K]
DOCKED: USER    
DOCKED: USER    (1) Final Intermolecular Energy     =  -12.78 kcal/mol
DOCKED: USER        vdW + Hbond + desolv Energy     =  -12.78 kcal/mol
DOCKED: USER        Electrostatic Energy            =   +0.00 kcal/mol
DOCKED: USER    (2) Final Total Internal Energy     =   -0.94 kcal/mol
DOCKED: USER    (3) Torsional Free Energy           =   +1.79 kcal/mol
DOCKED: USER    (4) Unbound System's Energy  [=(2)] =   -0.94 kcal/mol
DOCKED: USER    
DOCKED: USER    
DOCKED: USER    NEWDPF move ligand.dum.pdbqt
DOCKED: USER    NEWDPF about -0.023000 0.069000 -0.054000
DOCKED: USER    NEWDPF tran0 37.487621 13.797840 120.947207
DOCKED: USER    NEWDPF quaternion0 -0.387334 -0.189601 -0.775886 -0.460461
DOCKED: USER    NEWDPF axisangle0 -0.436344 -0.213592 -0.874061 -125.166220
DOCKED: USER    NEWDPF quat0 -0.436344 -0.213592 -0.874061 -125.166220
DOCKED: USER    NEWDPF dihe0 -67.93 171.91 -153.88 77.55 27.27 20.39 
DOCKED: USER  keepresnum = 1 
DOCKED: USER  
DOCKED: REMARK  Name = 
DOCKED: REMARK  6 active torsions:
DOCKED: REMARK  status: ('A' for Active; 'I' for Inactive)
DOCKED: REMARK    1  A    between atoms: C_2  and  C_5
DOCKED: REMARK    2  A    between atoms: C_5  and  C_6
DOCKED: REMARK    3  A    between atoms: C_6  and  C_7
DOCKED: REMARK    4  A    between atoms: C_7  and  C_8
DOCKED: REMARK    5  A    between atoms: C_8  and  C_9
DOCKED: REMARK    6  A    between atoms: C_9  and  N_10
DOCKED: REMARK                            x       y       z     vdW  Elec       q    Type
DOCKED: REMARK                         _______ _______ _______ _____ _____    ______ ____
DOCKED: USER                              x       y       z     vdW  Elec       q    Type
DOCKED: USER                           _______ _______ _______ _____ _____    ______ ____
DOCKED: ROOT
DOCKED: ATOM      1  N   UNL     1      38.219  13.728 120.394 -0.35 -0.00    +0.000 N 
DOCKED: ATOM      2  C   UNL     1      37.326  13.960 119.289 -0.37 -0.00    +0.000 C 
DOCKED: ATOM      3  C   UNL     1      37.624  15.029 118.308 -0.21 -0.00    +0.000 A 
DOCKED: ATOM      4  C   UNL     1      36.777  15.245 117.207 -0.19 -0.00    +0.000 A 
DOCKED: ATOM      5  C   UNL     1      37.057  16.253 116.283 -0.09 -0.00    +0.000 A 
DOCKED: ATOM      6  C   UNL     1      38.183  17.060 116.441 -0.06 -0.00    +0.000 A 
DOCKED: ATOM      7  C   UNL     1      39.043  16.866 117.532 -0.08 -0.00    +0.000 A 
DOCKED: ATOM      8  C   UNL     1      40.174  17.679 117.692 -0.05 -0.00    +0.000 A 
DOCKED: ATOM      9  C   UNL     1      41.028  17.488 118.778 -0.06 -0.00    +0.000 A 
DOCKED: ATOM     10  C   UNL     1      40.765  16.485 119.713 -0.12 -0.00    +0.000 A 
DOCKED: ATOM     11  C   UNL     1      39.638  15.655 119.573 -0.14 -0.00    +0.000 A 
DOCKED: ATOM     12  C   UNL     1      38.767  15.843 118.476 -0.13 -0.00    +0.000 A 
DOCKED: ATOM     13  O   UNL     1      36.288  13.254 119.155 -0.43 -0.00    +0.000 OA
DOCKED: ATOM     14  C   UNL     1      39.359  14.592 120.565 -0.19 -0.00    +0.000 C 
DOCKED: ATOM     15  O   UNL     1      40.120  14.445 121.562 -0.96 -0.00    +0.000 OA
DOCKED: ATOM     16  CM  UNL     1      38.482  14.772 119.460 +0.00 -0.00    +0.000 AC
DOCKED: ATOM     17  CM  UNL     1      37.909  16.050 117.374 +0.00 -0.00    +0.000 AC
DOCKED: ATOM     18  CM  UNL     1      39.903  16.669 118.627 +0.00 -0.00    +0.000 AC
DOCKED: ENDROOT
DOCKED: BRANCH   1  16
DOCKED: ATOM     19  C   UNL     1      37.914  12.694 121.393 -0.37 -0.00    +0.000 C 
DOCKED: BRANCH  16  17
DOCKED: ATOM     20  C   UNL     1      36.672  13.087 122.200 -0.49 -0.00    +0.000 C 
DOCKED: BRANCH  17  18
DOCKED: ATOM     21  C   UNL     1      36.702  12.462 123.599 -0.66 -0.00    +0.000 C 
DOCKED: BRANCH  18  19
DOCKED: ATOM     22  C   UNL     1      35.773  11.241 123.676 -0.54 -0.00    +0.000 C 
DOCKED: BRANCH  19  20
DOCKED: ATOM     23  C   UNL     1      35.633  10.531 122.322 -0.63 -0.00    +0.000 C 
DOCKED: BRANCH  20  22
DOCKED: ATOM     24  O   UNL     1      36.940   8.894 121.172 -2.67 -0.00    +0.000 OA
DOCKED: ATOM     25  C   UNL     1      36.446   9.270 122.269 -0.71 -0.00    +0.000 C 
DOCKED: ATOM     26  N   UNL     1      36.689   8.514 123.458 -0.65 -0.00    +0.000 N 
DOCKED: ATOM     27  O   UNL     1      37.435   7.387 123.412 -2.33 -0.00    +0.000 OA
DOCKED: ATOM     28  H   UNL     1      36.311   8.816 124.315 -0.29 -0.00    +0.000 HD
DOCKED: ENDBRANCH  20  22
DOCKED: ENDBRANCH  19  20
DOCKED: ENDBRANCH  18  19
DOCKED: ENDBRANCH  17  18
DOCKED: ENDBRANCH  16  17
DOCKED: ENDBRANCH   1  16
DOCKED: TORSDOF 6DOCKED: TER
DOCKED: ENDMDL
________________________________________________________________________________


	BEGINNING GENETIC ALGORITHM DOCKING 16 of 100
Run: 16 Seed: 1692054832 1123525877 [ Run 16 of 100 GA/GALS ]
Beginning LAMARCKIAN GENETIC ALGORITHM (LGA), with a maximum of 2500000 energy evaluations.

Final-Value: -14.609


	FINAL GENETIC ALGORITHM DOCKED STATE
	_______________________________________________


Detailed state:  trans 38.066 14.301 121.945 quatxyzw 0.113660 -0.382872 0.645174 0.651338 center -0.023 0.069 -0.054 ntor 6 -53.9117 -177.6701 177.6435 25.9136 134.5077 37.1730
State:	 38.066  14.301 121.945   0.150 -0.505  0.850 98.715    -53.91 -177.67  177.64   25.91  134.51   37.17

DOCKED: MODEL       16
DOCKED: USER    Run = 16
DOCKED: USER    DPF = ligand_dock.biased.dpf
DOCKED: USER  
DOCKED: USER    Estimated Free Energy of Binding    =  -11.94 kcal/mol  [=(1)+(2)+(3)-(4)]
DOCKED: USER    Estimated Inhibition Constant, Ki   =    1.77 nM (nanomolar)  [Temperature = 298.15 K]
DOCKED: USER    
DOCKED: USER    (1) Final Intermolecular Energy     =  -13.73 kcal/mol
DOCKED: USER        vdW + Hbond + desolv Energy     =  -13.73 kcal/mol
DOCKED: USER        Electrostatic Energy            =   +0.00 kcal/mol
DOCKED: USER    (2) Final Total Internal Energy     =   -0.88 kcal/mol
DOCKED: USER    (3) Torsional Free Energy           =   +1.79 kcal/mol
DOCKED: USER    (4) Unbound System's Energy  [=(2)] =   -0.88 kcal/mol
DOCKED: USER    
DOCKED: USER    
DOCKED: USER    NEWDPF move ligand.dum.pdbqt
DOCKED: USER    NEWDPF about -0.023000 0.069000 -0.054000
DOCKED: USER    NEWDPF tran0 38.066265 14.300959 121.945446
DOCKED: USER    NEWDPF quaternion0 0.113660 -0.382872 0.645174 0.651338
DOCKED: USER    NEWDPF axisangle0 0.149792 -0.504583 0.850269 98.714865
DOCKED: USER    NEWDPF quat0 0.149792 -0.504583 0.850269 98.714865
DOCKED: USER    NEWDPF dihe0 -53.91 -177.67 177.64 25.91 134.51 37.17 
DOCKED: USER  keepresnum = 1 
DOCKED: USER  
DOCKED: REMARK  Name = 
DOCKED: REMARK  6 active torsions:
DOCKED: REMARK  status: ('A' for Active; 'I' for Inactive)
DOCKED: REMARK    1  A    between atoms: C_2  and  C_5
DOCKED: REMARK    2  A    between atoms: C_5  and  C_6
DOCKED: REMARK    3  A    between atoms: C_6  and  C_7
DOCKED: REMARK    4  A    between atoms: C_7  and  C_8
DOCKED: REMARK    5  A    between atoms: C_8  and  C_9
DOCKED: REMARK    6  A    between atoms: C_9  and  N_10
DOCKED: REMARK                            x       y       z     vdW  Elec       q    Type
DOCKED: REMARK                         _______ _______ _______ _____ _____    ______ ____
DOCKED: USER                              x       y       z     vdW  Elec       q    Type
DOCKED: USER                           _______ _______ _______ _____ _____    ______ ____
DOCKED: ROOT
DOCKED: ATOM      1  N   UNL     1      38.616  14.976 121.649 -0.30 -0.00    +0.000 N 
DOCKED: ATOM      2  C   UNL     1      37.497  15.869 121.806 -0.25 -0.00    +0.000 C 
DOCKED: ATOM      3  C   UNL     1      37.646  17.111 122.599 -0.17 -0.00    +0.000 A 
DOCKED: ATOM      4  C   UNL     1      36.571  18.007 122.734 -0.17 -0.00    +0.000 A 
DOCKED: ATOM      5  C   UNL     1      36.711  19.177 123.482 -0.15 -0.00    +0.000 A 
DOCKED: ATOM      6  C   UNL     1      37.922  19.472 124.107 -0.10 -0.00    +0.000 A 
DOCKED: ATOM      7  C   UNL     1      39.010  18.594 123.989 -0.15 -0.00    +0.000 A 
DOCKED: ATOM      8  C   UNL     1      40.226  18.890 124.619 -0.19 -0.00    +0.000 A 
DOCKED: ATOM      9  C   UNL     1      41.307  18.016 124.504 -0.27 -0.00    +0.000 A 
DOCKED: ATOM     10  C   UNL     1      41.187  16.841 123.760 -0.21 -0.00    +0.000 A 
DOCKED: ATOM     11  C   UNL     1      39.977  16.522 123.117 -0.23 -0.00    +0.000 A 
DOCKED: ATOM     12  C   UNL     1      38.878  17.403 123.230 -0.19 -0.00    +0.000 A 
DOCKED: ATOM     13  O   UNL     1      36.388  15.595 121.269 -0.23 -0.00    +0.000 OA
DOCKED: ATOM     14  C   UNL     1      39.850  15.276 122.329 -0.41 -0.00    +0.000 C 
DOCKED: ATOM     15  O   UNL     1      40.823  14.475 122.255 -1.10 -0.00    +0.000 OA
DOCKED: ATOM     16  CM  UNL     1      38.740  16.160 122.433 +0.00 -0.00    +0.000 AC
DOCKED: ATOM     17  CM  UNL     1      37.790  18.294 123.357 +0.00 -0.00    +0.000 AC
DOCKED: ATOM     18  CM  UNL     1      40.098  17.711 123.870 +0.00 -0.00    +0.000 AC
DOCKED: ENDROOT
DOCKED: BRANCH   1  16
DOCKED: ATOM     19  C   UNL     1      38.468  13.724 120.894 -0.40 -0.00    +0.000 C 
DOCKED: BRANCH  16  17
DOCKED: ATOM     20  C   UNL     1      37.245  12.947 121.391 -0.50 -0.00    +0.000 C 
DOCKED: BRANCH  17  18
DOCKED: ATOM     21  C   UNL     1      37.200  12.908 122.923 -0.59 -0.00    +0.000 C 
DOCKED: BRANCH  18  19
DOCKED: ATOM     22  C   UNL     1      36.435  11.672 123.418 -0.70 -0.00    +0.000 C 
DOCKED: BRANCH  19  20
DOCKED: ATOM     23  C   UNL     1      35.935  10.794 122.263 -0.63 -0.00    +0.000 C 
DOCKED: BRANCH  20  22
DOCKED: ATOM     24  O   UNL     1      37.055   8.997 121.154 -2.71 -0.00    +0.000 OA
DOCKED: ATOM     25  C   UNL     1      36.617   9.457 122.243 -0.71 -0.00    +0.000 C 
DOCKED: ATOM     26  N   UNL     1      36.801   8.721 123.454 -0.62 -0.00    +0.000 N 
DOCKED: ATOM     27  O   UNL     1      37.431   7.523 123.439 -2.45 -0.00    +0.000 OA
DOCKED: ATOM     28  H   UNL     1      36.468   9.087 124.305 -0.32 -0.00    +0.000 HD
DOCKED: ENDBRANCH  20  22
DOCKED: ENDBRANCH  19  20
DOCKED: ENDBRANCH  18  19
DOCKED: ENDBRANCH  17  18
DOCKED: ENDBRANCH  16  17
DOCKED: ENDBRANCH   1  16
DOCKED: TORSDOF 6DOCKED: TER
DOCKED: ENDMDL
________________________________________________________________________________


	BEGINNING GENETIC ALGORITHM DOCKING 17 of 100
Run: 17 Seed: 1206941907 543231786 [ Run 17 of 100 GA/GALS ]
Beginning LAMARCKIAN GENETIC ALGORITHM (LGA), with a maximum of 2500000 energy evaluations.

Final-Value: -14.782


	FINAL GENETIC ALGORITHM DOCKED STATE
	_______________________________________________


Detailed state:  trans 36.745 14.705 123.466 quatxyzw 0.539665 -0.470457 0.325701 0.617536 center -0.023 0.069 -0.054 ntor 6 -40.4043 115.3851 -44.4140 124.6989 -27.0528 12.2274
State:	 36.745  14.705 123.466   0.686 -0.598  0.414 103.727    -40.40  115.39  -44.41  124.70  -27.05   12.23

DOCKED: MODEL       17
DOCKED: USER    Run = 17
DOCKED: USER    DPF = ligand_dock.biased.dpf
DOCKED: USER  
DOCKED: USER    Estimated Free Energy of Binding    =  -12.11 kcal/mol  [=(1)+(2)+(3)-(4)]
DOCKED: USER    Estimated Inhibition Constant, Ki   =    1.34 nM (nanomolar)  [Temperature = 298.15 K]
DOCKED: USER    
DOCKED: USER    (1) Final Intermolecular Energy     =  -13.90 kcal/mol
DOCKED: USER        vdW + Hbond + desolv Energy     =  -13.90 kcal/mol
DOCKED: USER        Electrostatic Energy            =   +0.00 kcal/mol
DOCKED: USER    (2) Final Total Internal Energy     =   -0.89 kcal/mol
DOCKED: USER    (3) Torsional Free Energy           =   +1.79 kcal/mol
DOCKED: USER    (4) Unbound System's Energy  [=(2)] =   -0.89 kcal/mol
DOCKED: USER    
DOCKED: USER    
DOCKED: USER    NEWDPF move ligand.dum.pdbqt
DOCKED: USER    NEWDPF about -0.023000 0.069000 -0.054000
DOCKED: USER    NEWDPF tran0 36.744919 14.704816 123.465593
DOCKED: USER    NEWDPF quaternion0 0.539665 -0.470457 0.325701 0.617536
DOCKED: USER    NEWDPF axisangle0 0.686123 -0.598133 0.414091 103.727202
DOCKED: USER    NEWDPF quat0 0.686123 -0.598133 0.414091 103.727202
DOCKED: USER    NEWDPF dihe0 -40.40 115.39 -44.41 124.70 -27.05 12.23 
DOCKED: USER  keepresnum = 1 
DOCKED: USER  
DOCKED: REMARK  Name = 
DOCKED: REMARK  6 active torsions:
DOCKED: REMARK  status: ('A' for Active; 'I' for Inactive)
DOCKED: REMARK    1  A    between atoms: C_2  and  C_5
DOCKED: REMARK    2  A    between atoms: C_5  and  C_6
DOCKED: REMARK    3  A    between atoms: C_6  and  C_7
DOCKED: REMARK    4  A    between atoms: C_7  and  C_8
DOCKED: REMARK    5  A    between atoms: C_8  and  C_9
DOCKED: REMARK    6  A    between atoms: C_9  and  N_10
DOCKED: REMARK                            x       y       z     vdW  Elec       q    Type
DOCKED: REMARK                         _______ _______ _______ _____ _____    ______ ____
DOCKED: USER                              x       y       z     vdW  Elec       q    Type
DOCKED: USER                           _______ _______ _______ _____ _____    ______ ____
DOCKED: ROOT
DOCKED: ATOM      1  N   UNL     1      36.392  15.357 122.922 -0.36 -0.00    +0.000 N 
DOCKED: ATOM      2  C   UNL     1      35.360  15.533 123.911 -0.52 -0.00    +0.000 C 
DOCKED: ATOM      3  C   UNL     1      35.075  16.882 124.453 -0.38 -0.00    +0.000 A 
DOCKED: ATOM      4  C   UNL     1      34.050  17.071 125.396 -0.39 -0.00    +0.000 A 
DOCKED: ATOM      5  C   UNL     1      33.782  18.342 125.908 -0.31 -0.00    +0.000 A 
DOCKED: ATOM      6  C   UNL     1      34.531  19.441 125.491 -0.20 -0.00    +0.000 A 
DOCKED: ATOM      7  C   UNL     1      35.561  19.278 124.552 -0.20 -0.00    +0.000 A 
DOCKED: ATOM      8  C   UNL     1      36.315  20.383 124.134 -0.15 -0.00    +0.000 A 
DOCKED: ATOM      9  C   UNL     1      37.341  20.221 123.203 -0.10 -0.00    +0.000 A 
DOCKED: ATOM     10  C   UNL     1      37.624  18.958 122.679 -0.09 -0.00    +0.000 A 
DOCKED: ATOM     11  C   UNL     1      36.881  17.834 123.082 -0.18 -0.00    +0.000 A 
DOCKED: ATOM     12  C   UNL     1      35.840  17.991 124.025 -0.24 -0.00    +0.000 A 
DOCKED: ATOM     13  O   UNL     1      34.697  14.538 124.318 -0.55 -0.00    +0.000 OA
DOCKED: ATOM     14  C   UNL     1      37.181  16.495 122.526 -0.26 -0.00    +0.000 C 
DOCKED: ATOM     15  O   UNL     1      38.131  16.352 121.707 -0.19 -0.00    +0.000 OA
DOCKED: ATOM     16  CM  UNL     1      36.128  16.646 123.472 -0.01 -0.00    +0.000 AC
DOCKED: ATOM     17  CM  UNL     1      34.806  18.168 124.971 -0.44 -0.00    +0.000 AC
DOCKED: ATOM     18  CM  UNL     1      36.594  19.111 123.612 -0.00 -0.00    +0.000 AC
DOCKED: ENDROOT
DOCKED: BRANCH   1  16
DOCKED: ATOM     19  C   UNL     1      36.706  14.018 122.404 -0.43 -0.00    +0.000 C 
DOCKED: BRANCH  16  17
DOCKED: ATOM     20  C   UNL     1      37.501  13.222 123.443 -0.54 -0.00    +0.000 C 
DOCKED: BRANCH  17  18
DOCKED: ATOM     21  C   UNL     1      37.278  11.715 123.274 -0.54 -0.00    +0.000 C 
DOCKED: BRANCH  18  19
DOCKED: ATOM     22  C   UNL     1      35.781  11.373 123.317 -0.65 -0.00    +0.000 C 
DOCKED: BRANCH  19  20
DOCKED: ATOM     23  C   UNL     1      35.393  10.323 122.267 -0.58 -0.00    +0.000 C 
DOCKED: BRANCH  20  22
DOCKED: ATOM     24  O   UNL     1      36.981   8.886 121.206 -2.67 -0.00    +0.000 OA
DOCKED: ATOM     25  C   UNL     1      36.347   9.164 122.259 -0.72 -0.00    +0.000 C 
DOCKED: ATOM     26  N   UNL     1      36.564   8.397 123.446 -0.66 -0.00    +0.000 N 
DOCKED: ATOM     27  O   UNL     1      37.437   7.363 123.444 -2.33 -0.00    +0.000 OA
DOCKED: ATOM     28  H   UNL     1      36.076   8.623 124.271 -0.21 -0.00    +0.000 HD
DOCKED: ENDBRANCH  20  22
DOCKED: ENDBRANCH  19  20
DOCKED: ENDBRANCH  18  19
DOCKED: ENDBRANCH  17  18
DOCKED: ENDBRANCH  16  17
DOCKED: ENDBRANCH   1  16
DOCKED: TORSDOF 6DOCKED: TER
DOCKED: ENDMDL
________________________________________________________________________________


	BEGINNING GENETIC ALGORITHM DOCKING 18 of 100
Run: 18 Seed: 423511664 1417912340 [ Run 18 of 100 GA/GALS ]
Beginning LAMARCKIAN GENETIC ALGORITHM (LGA), with a maximum of 2500000 energy evaluations.

Final-Value: -14.434


	FINAL GENETIC ALGORITHM DOCKED STATE
	_______________________________________________


Detailed state:  trans 36.583 15.295 123.085 quatxyzw 0.560159 -0.502262 0.124270 0.646924 center -0.023 0.069 -0.054 ntor 6 45.1375 -49.7709 124.3324 115.7281 12.2039 19.7171
State:	 36.583  15.295 123.085   0.735 -0.659  0.163 99.380     45.14  -49.77  124.33  115.73   12.20   19.72

DOCKED: MODEL       18
DOCKED: USER    Run = 18
DOCKED: USER    DPF = ligand_dock.biased.dpf
DOCKED: USER  
DOCKED: USER    Estimated Free Energy of Binding    =  -11.85 kcal/mol  [=(1)+(2)+(3)-(4)]
DOCKED: USER    Estimated Inhibition Constant, Ki   =    2.07 nM (nanomolar)  [Temperature = 298.15 K]
DOCKED: USER    
DOCKED: USER    (1) Final Intermolecular Energy     =  -13.64 kcal/mol
DOCKED: USER        vdW + Hbond + desolv Energy     =  -13.64 kcal/mol
DOCKED: USER        Electrostatic Energy            =   +0.00 kcal/mol
DOCKED: USER    (2) Final Total Internal Energy     =   -0.80 kcal/mol
DOCKED: USER    (3) Torsional Free Energy           =   +1.79 kcal/mol
DOCKED: USER    (4) Unbound System's Energy  [=(2)] =   -0.80 kcal/mol
DOCKED: USER    
DOCKED: USER    
DOCKED: USER    NEWDPF move ligand.dum.pdbqt
DOCKED: USER    NEWDPF about -0.023000 0.069000 -0.054000
DOCKED: USER    NEWDPF tran0 36.583158 15.295045 123.085372
DOCKED: USER    NEWDPF quaternion0 0.560159 -0.502262 0.124270 0.646924
DOCKED: USER    NEWDPF axisangle0 0.734583 -0.658658 0.162965 99.379770
DOCKED: USER    NEWDPF quat0 0.734583 -0.658658 0.162965 99.379770
DOCKED: USER    NEWDPF dihe0 45.14 -49.77 124.33 115.73 12.20 19.72 
DOCKED: USER  keepresnum = 1 
DOCKED: USER  
DOCKED: REMARK  Name = 
DOCKED: REMARK  6 active torsions:
DOCKED: REMARK  status: ('A' for Active; 'I' for Inactive)
DOCKED: REMARK    1  A    between atoms: C_2  and  C_5
DOCKED: REMARK    2  A    between atoms: C_5  and  C_6
DOCKED: REMARK    3  A    between atoms: C_6  and  C_7
DOCKED: REMARK    4  A    between atoms: C_7  and  C_8
DOCKED: REMARK    5  A    between atoms: C_8  and  C_9
DOCKED: REMARK    6  A    between atoms: C_9  and  N_10
DOCKED: REMARK                            x       y       z     vdW  Elec       q    Type
DOCKED: REMARK                         _______ _______ _______ _____ _____    ______ ____
DOCKED: USER                              x       y       z     vdW  Elec       q    Type
DOCKED: USER                           _______ _______ _______ _____ _____    ______ ____
DOCKED: ROOT
DOCKED: ATOM      1  N   UNL     1      35.963  15.913 122.803 -0.33 -0.00    +0.000 N 
DOCKED: ATOM      2  C   UNL     1      35.217  15.617 123.999 -0.53 -0.00    +0.000 C 
DOCKED: ATOM      3  C   UNL     1      34.796  16.715 124.900 -0.40 -0.00    +0.000 A 
DOCKED: ATOM      4  C   UNL     1      34.041  16.442 126.054 -0.33 -0.00    +0.000 A 
DOCKED: ATOM      5  C   UNL     1      33.644  17.476 126.903 -0.33 -0.00    +0.000 A 
DOCKED: ATOM      6  C   UNL     1      33.993  18.795 126.617 -0.23 -0.00    +0.000 A 
DOCKED: ATOM      7  C   UNL     1      34.747  19.094 125.473 -0.23 -0.00    +0.000 A 
DOCKED: ATOM      8  C   UNL     1      35.101  20.419 125.186 -0.14 -0.00    +0.000 A 
DOCKED: ATOM      9  C   UNL     1      35.853  20.716 124.050 -0.12 -0.00    +0.000 A 
DOCKED: ATOM     10  C   UNL     1      36.259  19.696 123.188 -0.16 -0.00    +0.000 A 
DOCKED: ATOM     11  C   UNL     1      35.917  18.358 123.453 -0.21 -0.00    +0.000 A 
DOCKED: ATOM     12  C   UNL     1      35.155  18.049 124.602 -0.29 -0.00    +0.000 A 
DOCKED: ATOM     13  O   UNL     1      34.923  14.423 124.282 -0.57 -0.00    +0.000 OA
DOCKED: ATOM     14  C   UNL     1      36.348  17.276 122.538 -0.25 -0.00    +0.000 C 
DOCKED: ATOM     15  O   UNL     1      37.055  17.549 121.529 -0.14 -0.00    +0.000 OA
DOCKED: ATOM     16  CM  UNL     1      35.577  16.959 123.691 -0.07 -0.00    +0.000 AC
DOCKED: ATOM     17  CM  UNL     1      34.396  17.762 125.758 -0.29 -0.00    +0.000 AC
DOCKED: ATOM     18  CM  UNL     1      35.505  19.389 124.325 -0.04 -0.00    +0.000 AC
DOCKED: ENDROOT
DOCKED: BRANCH   1  16
DOCKED: ATOM     19  C   UNL     1      36.417  14.828 121.921 +0.02 -0.00    +0.000 C 
DOCKED: BRANCH  16  17
DOCKED: ATOM     20  C   UNL     1      37.489  13.989 122.624 -0.49 -0.00    +0.000 C 
DOCKED: BRANCH  17  18
DOCKED: ATOM     21  C   UNL     1      38.190  13.049 121.637 -0.31 -0.00    +0.000 C 
DOCKED: BRANCH  18  19
DOCKED: ATOM     22  C   UNL     1      37.203  12.020 121.064 -0.53 -0.00    +0.000 C 
DOCKED: BRANCH  19  20
DOCKED: ATOM     23  C   UNL     1      36.439  11.271 122.165 -0.63 -0.00    +0.000 C 
DOCKED: BRANCH  20  22
DOCKED: ATOM     24  O   UNL     1      36.889   9.221 121.022 -2.67 -0.00    +0.000 OA
DOCKED: ATOM     25  C   UNL     1      36.714   9.796 122.130 -0.67 -0.00    +0.000 C 
DOCKED: ATOM     26  N   UNL     1      36.812   9.049 123.345 -0.59 -0.00    +0.000 N 
DOCKED: ATOM     27  O   UNL     1      37.077   7.723 123.314 -2.62 -0.00    +0.000 OA
DOCKED: ATOM     28  H   UNL     1      36.687   9.503 124.210 -0.48 -0.00    +0.000 HD
DOCKED: ENDBRANCH  20  22
DOCKED: ENDBRANCH  19  20
DOCKED: ENDBRANCH  18  19
DOCKED: ENDBRANCH  17  18
DOCKED: ENDBRANCH  16  17
DOCKED: ENDBRANCH   1  16
DOCKED: TORSDOF 6DOCKED: TER
DOCKED: ENDMDL
________________________________________________________________________________


	BEGINNING GENETIC ALGORITHM DOCKING 19 of 100
Run: 19 Seed: 1145760125 1614047200 [ Run 19 of 100 GA/GALS ]
Beginning LAMARCKIAN GENETIC ALGORITHM (LGA), with a maximum of 2500000 energy evaluations.

Final-Value: -14.444


	FINAL GENETIC ALGORITHM DOCKED STATE
	_______________________________________________


Detailed state:  trans 38.086 15.055 121.898 quatxyzw -0.854326 0.196748 -0.456643 0.151309 center -0.023 0.069 -0.054 ntor 6 -151.1660 -80.4270 92.6823 -104.7212 -120.4760 149.0836
State:	 38.086  15.055 121.898  -0.864  0.199 -0.462 162.594   -151.17  -80.43   92.68 -104.72 -120.48  149.08

DOCKED: MODEL       19
DOCKED: USER    Run = 19
DOCKED: USER    DPF = ligand_dock.biased.dpf
DOCKED: USER  
DOCKED: USER    Estimated Free Energy of Binding    =  -11.54 kcal/mol  [=(1)+(2)+(3)-(4)]
DOCKED: USER    Estimated Inhibition Constant, Ki   =    3.49 nM (nanomolar)  [Temperature = 298.15 K]
DOCKED: USER    
DOCKED: USER    (1) Final Intermolecular Energy     =  -13.33 kcal/mol
DOCKED: USER        vdW + Hbond + desolv Energy     =  -13.33 kcal/mol
DOCKED: USER        Electrostatic Energy            =   +0.00 kcal/mol
DOCKED: USER    (2) Final Total Internal Energy     =   -1.12 kcal/mol
DOCKED: USER    (3) Torsional Free Energy           =   +1.79 kcal/mol
DOCKED: USER    (4) Unbound System's Energy  [=(2)] =   -1.12 kcal/mol
DOCKED: USER    
DOCKED: USER    
DOCKED: USER    NEWDPF move ligand.dum.pdbqt
DOCKED: USER    NEWDPF about -0.023000 0.069000 -0.054000
DOCKED: USER    NEWDPF tran0 38.086196 15.055226 121.897847
DOCKED: USER    NEWDPF quaternion0 -0.854326 0.196748 -0.456643 0.151309
DOCKED: USER    NEWDPF axisangle0 -0.864277 0.199039 -0.461962 162.594406
DOCKED: USER    NEWDPF quat0 -0.864277 0.199039 -0.461962 162.594406
DOCKED: USER    NEWDPF dihe0 -151.17 -80.43 92.68 -104.72 -120.48 149.08 
DOCKED: USER  keepresnum = 1 
DOCKED: USER  
DOCKED: REMARK  Name = 
DOCKED: REMARK  6 active torsions:
DOCKED: REMARK  status: ('A' for Active; 'I' for Inactive)
DOCKED: REMARK    1  A    between atoms: C_2  and  C_5
DOCKED: REMARK    2  A    between atoms: C_5  and  C_6
DOCKED: REMARK    3  A    between atoms: C_6  and  C_7
DOCKED: REMARK    4  A    between atoms: C_7  and  C_8
DOCKED: REMARK    5  A    between atoms: C_8  and  C_9
DOCKED: REMARK    6  A    between atoms: C_9  and  N_10
DOCKED: REMARK                            x       y       z     vdW  Elec       q    Type
DOCKED: REMARK                         _______ _______ _______ _____ _____    ______ ____
DOCKED: USER                              x       y       z     vdW  Elec       q    Type
DOCKED: USER                           _______ _______ _______ _____ _____    ______ ____
DOCKED: ROOT
DOCKED: ATOM      1  N   UNL     1      37.397  14.594 121.500 -0.30 -0.00    +0.000 N 
DOCKED: ATOM      2  C   UNL     1      36.743  15.862 121.308 -0.22 -0.00    +0.000 C 
DOCKED: ATOM      3  C   UNL     1      36.264  16.252 119.962 -0.10 -0.00    +0.000 A 
DOCKED: ATOM      4  C   UNL     1      35.596  17.474 119.767 -0.16 -0.00    +0.000 A 
DOCKED: ATOM      5  C   UNL     1      35.145  17.843 118.499 -0.14 -0.00    +0.000 A 
DOCKED: ATOM      6  C   UNL     1      35.353  17.001 117.406 -0.12 -0.00    +0.000 A 
DOCKED: ATOM      7  C   UNL     1      36.017  15.778 117.574 -0.17 -0.00    +0.000 A 
DOCKED: ATOM      8  C   UNL     1      36.228  14.933 116.475 -0.22 -0.00    +0.000 A 
DOCKED: ATOM      9  C   UNL     1      36.891  13.718 116.641 -0.34 -0.00    +0.000 A 
DOCKED: ATOM     10  C   UNL     1      37.349  13.331 117.902 -0.37 -0.00    +0.000 A 
DOCKED: ATOM     11  C   UNL     1      37.150  14.160 119.020 -0.31 -0.00    +0.000 A 
DOCKED: ATOM     12  C   UNL     1      36.479  15.394 118.860 -0.18 -0.00    +0.000 A 
DOCKED: ATOM     13  O   UNL     1      36.579  16.644 122.286 -0.24 -0.00    +0.000 OA
DOCKED: ATOM     14  C   UNL     1      37.636  13.750 120.357 -0.41 -0.00    +0.000 C 
DOCKED: ATOM     15  O   UNL     1      38.263  12.663 120.493 -0.49 -0.00    +0.000 OA
DOCKED: ATOM     16  CM  UNL     1      36.957  14.992 120.204 +0.00 -0.00    +0.000 AC
DOCKED: ATOM     17  CM  UNL     1      35.809  16.624 118.678 +0.00 -0.00    +0.000 AC
DOCKED: ATOM     18  CM  UNL     1      36.686  14.552 117.745 +0.00 -0.00    +0.000 AC
DOCKED: ENDROOT
DOCKED: BRANCH   1  16
DOCKED: ATOM     19  C   UNL     1      37.908  14.213 122.825 -0.48 -0.00    +0.000 C 
DOCKED: BRANCH  16  17
DOCKED: ATOM     20  C   UNL     1      36.759  14.139 123.834 -0.42 -0.00    +0.000 C 
DOCKED: BRANCH  17  18
DOCKED: ATOM     21  C   UNL     1      35.707  13.112 123.400 -0.49 -0.00    +0.000 C 
DOCKED: BRANCH  18  19
DOCKED: ATOM     22  C   UNL     1      36.201  11.679 123.652 -0.69 -0.00    +0.000 C 
DOCKED: BRANCH  19  20
DOCKED: ATOM     23  C   UNL     1      37.078  11.156 122.506 -0.57 -0.00    +0.000 C 
DOCKED: BRANCH  20  22
DOCKED: ATOM     24  O   UNL     1      36.693   9.191 121.202 -2.63 -0.00    +0.000 OA
DOCKED: ATOM     25  C   UNL     1      36.949   9.670 122.339 -0.63 -0.00    +0.000 C 
DOCKED: ATOM     26  N   UNL     1      37.147   8.797 123.454 -0.60 -0.00    +0.000 N 
DOCKED: ATOM     27  O   UNL     1      37.048   7.456 123.300 -2.45 -0.00    +0.000 OA
DOCKED: ATOM     28  H   UNL     1      37.359   9.173 124.339 -0.61 -0.00    +0.000 HD
DOCKED: ENDBRANCH  20  22
DOCKED: ENDBRANCH  19  20
DOCKED: ENDBRANCH  18  19
DOCKED: ENDBRANCH  17  18
DOCKED: ENDBRANCH  16  17
DOCKED: ENDBRANCH   1  16
DOCKED: TORSDOF 6DOCKED: TER
DOCKED: ENDMDL
________________________________________________________________________________


	BEGINNING GENETIC ALGORITHM DOCKING 20 of 100
Run: 20 Seed: 799999573 884297610 [ Run 20 of 100 GA/GALS ]
Beginning LAMARCKIAN GENETIC ALGORITHM (LGA), with a maximum of 2500000 energy evaluations.

Final-Value: -12.888


	FINAL GENETIC ALGORITHM DOCKED STATE
	_______________________________________________


Detailed state:  trans 37.529 14.081 120.653 quatxyzw 0.019974 -0.317251 0.666029 0.674803 center -0.023 0.069 -0.054 ntor 6 145.6263 -33.0493 177.9646 27.0114 -129.1589 -10.7123
State:	 37.529  14.081 120.653   0.027 -0.430  0.902 95.122    145.63  -33.05  177.96   27.01 -129.16  -10.71

DOCKED: MODEL       20
DOCKED: USER    Run = 20
DOCKED: USER    DPF = ligand_dock.biased.dpf
DOCKED: USER  
DOCKED: USER    Estimated Free Energy of Binding    =  -10.01 kcal/mol  [=(1)+(2)+(3)-(4)]
DOCKED: USER    Estimated Inhibition Constant, Ki   =   45.82 nM (nanomolar)  [Temperature = 298.15 K]
DOCKED: USER    
DOCKED: USER    (1) Final Intermolecular Energy     =  -11.80 kcal/mol
DOCKED: USER        vdW + Hbond + desolv Energy     =  -11.80 kcal/mol
DOCKED: USER        Electrostatic Energy            =   +0.00 kcal/mol
DOCKED: USER    (2) Final Total Internal Energy     =   -1.09 kcal/mol
DOCKED: USER    (3) Torsional Free Energy           =   +1.79 kcal/mol
DOCKED: USER    (4) Unbound System's Energy  [=(2)] =   -1.09 kcal/mol
DOCKED: USER    
DOCKED: USER    
DOCKED: USER    NEWDPF move ligand.dum.pdbqt
DOCKED: USER    NEWDPF about -0.023000 0.069000 -0.054000
DOCKED: USER    NEWDPF tran0 37.529386 14.081145 120.652877
DOCKED: USER    NEWDPF quaternion0 0.019974 -0.317251 0.666029 0.674803
DOCKED: USER    NEWDPF axisangle0 0.027065 -0.429880 0.902480 95.122336
DOCKED: USER    NEWDPF quat0 0.027065 -0.429880 0.902480 95.122336
DOCKED: USER    NEWDPF dihe0 145.63 -33.05 177.96 27.01 -129.16 -10.71 
DOCKED: USER  keepresnum = 1 
DOCKED: USER  
DOCKED: REMARK  Name = 
DOCKED: REMARK  6 active torsions:
DOCKED: REMARK  status: ('A' for Active; 'I' for Inactive)
DOCKED: REMARK    1  A    between atoms: C_2  and  C_5
DOCKED: REMARK    2  A    between atoms: C_5  and  C_6
DOCKED: REMARK    3  A    between atoms: C_6  and  C_7
DOCKED: REMARK    4  A    between atoms: C_7  and  C_8
DOCKED: REMARK    5  A    between atoms: C_8  and  C_9
DOCKED: REMARK    6  A    between atoms: C_9  and  N_10
DOCKED: REMARK                            x       y       z     vdW  Elec       q    Type
DOCKED: REMARK                         _______ _______ _______ _____ _____    ______ ____
DOCKED: USER                              x       y       z     vdW  Elec       q    Type
DOCKED: USER                           _______ _______ _______ _____ _____    ______ ____
DOCKED: ROOT
DOCKED: ATOM      1  N   UNL     1      38.165  14.730 120.511 -0.26 -0.00    +0.000 N 
DOCKED: ATOM      2  C   UNL     1      37.087  15.682 120.439 -0.22 -0.00    +0.000 C 
DOCKED: ATOM      3  C   UNL     1      37.113  16.897 121.286 -0.15 -0.00    +0.000 A 
DOCKED: ATOM      4  C   UNL     1      36.082  17.849 121.203 -0.18 -0.00    +0.000 A 
DOCKED: ATOM      5  C   UNL     1      36.106  18.993 122.001 -0.18 -0.00    +0.000 A 
DOCKED: ATOM      6  C   UNL     1      37.156  19.207 122.893 -0.12 -0.00    +0.000 A 
DOCKED: ATOM      7  C   UNL     1      38.196  18.272 122.996 -0.12 -0.00    +0.000 A 
DOCKED: ATOM      8  C   UNL     1      39.250  18.486 123.895 -0.16 -0.00    +0.000 A 
DOCKED: ATOM      9  C   UNL     1      40.283  17.555 124.000 -0.24 -0.00    +0.000 A 
DOCKED: ATOM     10  C   UNL     1      40.277  16.404 123.210 -0.18 -0.00    +0.000 A 
DOCKED: ATOM     11  C   UNL     1      39.232  16.167 122.300 -0.24 -0.00    +0.000 A 
DOCKED: ATOM     12  C   UNL     1      38.181  17.105 122.188 -0.15 -0.00    +0.000 A 
DOCKED: ATOM     13  O   UNL     1      36.117  15.481 119.657 -0.10 -0.00    +0.000 OA
DOCKED: ATOM     14  C   UNL     1      39.225  14.946 121.462 -0.34 -0.00    +0.000 C 
DOCKED: ATOM     15  O   UNL     1      40.148  14.093 121.585 -0.94 -0.00    +0.000 OA
DOCKED: ATOM     16  CM  UNL     1      38.167  15.889 121.341 +0.00 -0.00    +0.000 AC
DOCKED: ATOM     17  CM  UNL     1      37.139  18.054 122.095 +0.00 -0.00    +0.000 AC
DOCKED: ATOM     18  CM  UNL     1      39.237  17.331 123.098 +0.00 -0.00    +0.000 AC
DOCKED: ENDROOT
DOCKED: BRANCH   1  16
DOCKED: ATOM     19  C   UNL     1      38.131  13.504 119.702 -0.26 -0.00    +0.000 C 
DOCKED: BRANCH  16  17
DOCKED: ATOM     20  C   UNL     1      37.631  12.327 120.545 -0.51 -0.00    +0.000 C 
DOCKED: BRANCH  17  18
DOCKED: ATOM     21  C   UNL     1      36.324  12.678 121.264 -0.08 -0.00    +0.000 C 
DOCKED: BRANCH  18  19
DOCKED: ATOM     22  C   UNL     1      36.172  11.865 122.558 -0.61 -0.00    +0.000 C 
DOCKED: BRANCH  19  20
DOCKED: ATOM     23  C   UNL     1      37.372  10.941 122.809 -0.22 -0.00    +0.000 C 
DOCKED: BRANCH  20  22
DOCKED: ATOM     24  O   UNL     1      36.842   9.222 121.235 -2.64 -0.00    +0.000 OA
DOCKED: ATOM     25  C   UNL     1      37.066   9.518 122.439 -0.61 -0.00    +0.000 C 
DOCKED: ATOM     26  N   UNL     1      37.060   8.497 123.439 -0.68 -0.00    +0.000 N 
DOCKED: ATOM     27  O   UNL     1      36.801   7.212 123.103 -2.08 -0.00    +0.000 OA
DOCKED: ATOM     28  H   UNL     1      37.247   8.729 124.377 -0.54 -0.00    +0.000 HD
DOCKED: ENDBRANCH  20  22
DOCKED: ENDBRANCH  19  20
DOCKED: ENDBRANCH  18  19
DOCKED: ENDBRANCH  17  18
DOCKED: ENDBRANCH  16  17
DOCKED: ENDBRANCH   1  16
DOCKED: TORSDOF 6DOCKED: TER
DOCKED: ENDMDL
________________________________________________________________________________


	BEGINNING GENETIC ALGORITHM DOCKING 21 of 100
Run: 21 Seed: 1126167079 1322395661 [ Run 21 of 100 GA/GALS ]
Beginning LAMARCKIAN GENETIC ALGORITHM (LGA), with a maximum of 2500000 energy evaluations.

Final-Value: -14.173


	FINAL GENETIC ALGORITHM DOCKED STATE
	_______________________________________________


Detailed state:  trans 37.587 16.106 121.498 quatxyzw -0.251263 0.512176 0.820840 -0.027667 center -0.023 0.069 -0.054 ntor 6 -105.0273 -96.2780 160.8959 12.3338 -111.5068 152.3196
State:	 37.587  16.106 121.498  -0.251  0.512  0.821 -176.829   -105.03  -96.28  160.90   12.33 -111.51  152.32

DOCKED: MODEL       21
DOCKED: USER    Run = 21
DOCKED: USER    DPF = ligand_dock.biased.dpf
DOCKED: USER  
DOCKED: USER    Estimated Free Energy of Binding    =  -11.50 kcal/mol  [=(1)+(2)+(3)-(4)]
DOCKED: USER    Estimated Inhibition Constant, Ki   =    3.71 nM (nanomolar)  [Temperature = 298.15 K]
DOCKED: USER    
DOCKED: USER    (1) Final Intermolecular Energy     =  -13.29 kcal/mol
DOCKED: USER        vdW + Hbond + desolv Energy     =  -13.29 kcal/mol
DOCKED: USER        Electrostatic Energy            =   +0.00 kcal/mol
DOCKED: USER    (2) Final Total Internal Energy     =   -0.88 kcal/mol
DOCKED: USER    (3) Torsional Free Energy           =   +1.79 kcal/mol
DOCKED: USER    (4) Unbound System's Energy  [=(2)] =   -0.88 kcal/mol
DOCKED: USER    
DOCKED: USER    
DOCKED: USER    NEWDPF move ligand.dum.pdbqt
DOCKED: USER    NEWDPF about -0.023000 0.069000 -0.054000
DOCKED: USER    NEWDPF tran0 37.587235 16.105953 121.498410
DOCKED: USER    NEWDPF quaternion0 -0.251263 0.512176 0.820840 -0.027667
DOCKED: USER    NEWDPF axisangle0 -0.251359 0.512372 0.821154 -176.829151
DOCKED: USER    NEWDPF quat0 -0.251359 0.512372 0.821154 -176.829151
DOCKED: USER    NEWDPF dihe0 -105.03 -96.28 160.90 12.33 -111.51 152.32 
DOCKED: USER  keepresnum = 1 
DOCKED: USER  
DOCKED: REMARK  Name = 
DOCKED: REMARK  6 active torsions:
DOCKED: REMARK  status: ('A' for Active; 'I' for Inactive)
DOCKED: REMARK    1  A    between atoms: C_2  and  C_5
DOCKED: REMARK    2  A    between atoms: C_5  and  C_6
DOCKED: REMARK    3  A    between atoms: C_6  and  C_7
DOCKED: REMARK    4  A    between atoms: C_7  and  C_8
DOCKED: REMARK    5  A    between atoms: C_8  and  C_9
DOCKED: REMARK    6  A    between atoms: C_9  and  N_10
DOCKED: REMARK                            x       y       z     vdW  Elec       q    Type
DOCKED: REMARK                         _______ _______ _______ _____ _____    ______ ____
DOCKED: USER                              x       y       z     vdW  Elec       q    Type
DOCKED: USER                           _______ _______ _______ _____ _____    ______ ____
DOCKED: ROOT
DOCKED: ATOM      1  N   UNL     1      37.922  15.830 122.310 -0.25 -0.00    +0.000 N 
DOCKED: ATOM      2  C   UNL     1      39.172  15.585 121.639 -0.29 -0.00    +0.000 C 
DOCKED: ATOM      3  C   UNL     1      40.424  16.174 122.168 -0.27 -0.00    +0.000 A 
DOCKED: ATOM      4  C   UNL     1      41.656  15.917 121.540 -0.29 -0.00    +0.000 A 
DOCKED: ATOM      5  C   UNL     1      42.836  16.472 122.037 -0.33 -0.00    +0.000 A 
DOCKED: ATOM      6  C   UNL     1      42.807  17.292 123.165 -0.30 -0.00    +0.000 A 
DOCKED: ATOM      7  C   UNL     1      41.591  17.564 123.809 -0.31 -0.00    +0.000 A 
DOCKED: ATOM      8  C   UNL     1      41.562  18.390 124.941 -0.07 -0.00    +0.000 A 
DOCKED: ATOM      9  C   UNL     1      40.353  18.665 125.580 -0.26 -0.00    +0.000 A 
DOCKED: ATOM     10  C   UNL     1      39.162  18.118 125.098 -0.17 -0.00    +0.000 A 
DOCKED: ATOM     11  C   UNL     1      39.165  17.286 123.964 -0.17 -0.00    +0.000 A 
DOCKED: ATOM     12  C   UNL     1      40.386  17.004 123.311 -0.25 -0.00    +0.000 A 
DOCKED: ATOM     13  O   UNL     1      39.203  14.870 120.599 -0.30 -0.00    +0.000 OA
DOCKED: ATOM     14  C   UNL     1      37.902  16.707 123.453 -0.27 -0.00    +0.000 C 
DOCKED: ATOM     15  O   UNL     1      36.808  16.985 124.018 -0.30 -0.00    +0.000 OA
DOCKED: ATOM     16  CM  UNL     1      39.129  16.415 122.794 +0.00 -0.00    +0.000 AC
DOCKED: ATOM     17  CM  UNL     1      41.617  16.737 122.672 +0.00 -0.00    +0.000 AC
DOCKED: ATOM     18  CM  UNL     1      40.370  17.838 124.451 +0.00 -0.00    +0.000 AC
DOCKED: ENDROOT
DOCKED: BRANCH   1  16
DOCKED: ATOM     19  C   UNL     1      36.669  15.281 121.773 -0.23 -0.00    +0.000 C 
DOCKED: BRANCH  16  17
DOCKED: ATOM     20  C   UNL     1      36.697  13.750 121.827 -0.30 -0.00    +0.000 C 
DOCKED: BRANCH  17  18
DOCKED: ATOM     21  C   UNL     1      36.652  13.247 123.274 -0.60 -0.00    +0.000 C 
DOCKED: BRANCH  18  19
DOCKED: ATOM     22  C   UNL     1      36.993  11.751 123.346 -0.67 -0.00    +0.000 C 
DOCKED: BRANCH  19  20
DOCKED: ATOM     23  C   UNL     1      36.902  11.066 121.976 -0.58 -0.00    +0.000 C 
DOCKED: BRANCH  20  22
DOCKED: ATOM     24  O   UNL     1      36.700   8.863 121.073 -2.62 -0.00    +0.000 OA
DOCKED: ATOM     25  C   UNL     1      36.874   9.570 122.101 -0.65 -0.00    +0.000 C 
DOCKED: ATOM     26  N   UNL     1      37.076   8.947 123.372 -0.61 -0.00    +0.000 N 
DOCKED: ATOM     27  O   UNL     1      37.067   7.598 123.481 -2.59 -0.00    +0.000 OA
DOCKED: ATOM     28  H   UNL     1      37.223   9.502 124.171 -0.59 -0.00    +0.000 HD
DOCKED: ENDBRANCH  20  22
DOCKED: ENDBRANCH  19  20
DOCKED: ENDBRANCH  18  19
DOCKED: ENDBRANCH  17  18
DOCKED: ENDBRANCH  16  17
DOCKED: ENDBRANCH   1  16
DOCKED: TORSDOF 6DOCKED: TER
DOCKED: ENDMDL
________________________________________________________________________________


	BEGINNING GENETIC ALGORITHM DOCKING 22 of 100
Run: 22 Seed: 1524954559 361997696 [ Run 22 of 100 GA/GALS ]
Beginning LAMARCKIAN GENETIC ALGORITHM (LGA), with a maximum of 2500000 energy evaluations.

Final-Value: -14.440


	FINAL GENETIC ALGORITHM DOCKED STATE
	_______________________________________________


Detailed state:  trans 37.491 15.814 122.072 quatxyzw -0.795285 0.122540 -0.566282 0.178411 center -0.023 0.069 -0.054 ntor 6 -138.3634 -172.1949 -64.8134 60.8502 -86.4327 -171.2719
State:	 37.491  15.814 122.072  -0.808  0.125 -0.576 159.446   -138.36 -172.19  -64.81   60.85  -86.43 -171.27

DOCKED: MODEL       22
DOCKED: USER    Run = 22
DOCKED: USER    DPF = ligand_dock.biased.dpf
DOCKED: USER  
DOCKED: USER    Estimated Free Energy of Binding    =  -11.58 kcal/mol  [=(1)+(2)+(3)-(4)]
DOCKED: USER    Estimated Inhibition Constant, Ki   =    3.24 nM (nanomolar)  [Temperature = 298.15 K]
DOCKED: USER    
DOCKED: USER    (1) Final Intermolecular Energy     =  -13.37 kcal/mol
DOCKED: USER        vdW + Hbond + desolv Energy     =  -13.37 kcal/mol
DOCKED: USER        Electrostatic Energy            =   +0.00 kcal/mol
DOCKED: USER    (2) Final Total Internal Energy     =   -1.07 kcal/mol
DOCKED: USER    (3) Torsional Free Energy           =   +1.79 kcal/mol
DOCKED: USER    (4) Unbound System's Energy  [=(2)] =   -1.07 kcal/mol
DOCKED: USER    
DOCKED: USER    
DOCKED: USER    NEWDPF move ligand.dum.pdbqt
DOCKED: USER    NEWDPF about -0.023000 0.069000 -0.054000
DOCKED: USER    NEWDPF tran0 37.491140 15.813671 122.072163
DOCKED: USER    NEWDPF quaternion0 -0.795285 0.122540 -0.566282 0.178411
DOCKED: USER    NEWDPF axisangle0 -0.808253 0.124538 -0.575515 159.445588
DOCKED: USER    NEWDPF quat0 -0.808253 0.124538 -0.575515 159.445588
DOCKED: USER    NEWDPF dihe0 -138.36 -172.19 -64.81 60.85 -86.43 -171.27 
DOCKED: USER  keepresnum = 1 
DOCKED: USER  
DOCKED: REMARK  Name = 
DOCKED: REMARK  6 active torsions:
DOCKED: REMARK  status: ('A' for Active; 'I' for Inactive)
DOCKED: REMARK    1  A    between atoms: C_2  and  C_5
DOCKED: REMARK    2  A    between atoms: C_5  and  C_6
DOCKED: REMARK    3  A    between atoms: C_6  and  C_7
DOCKED: REMARK    4  A    between atoms: C_7  and  C_8
DOCKED: REMARK    5  A    between atoms: C_8  and  C_9
DOCKED: REMARK    6  A    between atoms: C_9  and  N_10
DOCKED: REMARK                            x       y       z     vdW  Elec       q    Type
DOCKED: REMARK                         _______ _______ _______ _____ _____    ______ ____
DOCKED: USER                              x       y       z     vdW  Elec       q    Type
DOCKED: USER                           _______ _______ _______ _____ _____    ______ ____
DOCKED: ROOT
DOCKED: ATOM      1  N   UNL     1      36.950  15.209 121.639 -0.26 -0.00    +0.000 N 
DOCKED: ATOM      2  C   UNL     1      36.238  16.335 121.092 -0.17 -0.00    +0.000 C 
DOCKED: ATOM      3  C   UNL     1      36.027  16.437 119.629 -0.09 -0.00    +0.000 A 
DOCKED: ATOM      4  C   UNL     1      35.307  17.515 119.085 -0.14 -0.00    +0.000 A 
DOCKED: ATOM      5  C   UNL     1      35.108  17.612 117.707 -0.11 -0.00    +0.000 A 
DOCKED: ATOM      6  C   UNL     1      35.623  16.640 116.851 -0.11 -0.00    +0.000 A 
DOCKED: ATOM      7  C   UNL     1      36.346  15.555 117.369 -0.18 -0.00    +0.000 A 
DOCKED: ATOM      8  C   UNL     1      36.866  14.579 116.508 -0.26 -0.00    +0.000 A 
DOCKED: ATOM      9  C   UNL     1      37.587  13.502 117.022 -0.36 -0.00    +0.000 A 
DOCKED: ATOM     10  C   UNL     1      37.796  13.386 118.398 -0.24 -0.00    +0.000 A 
DOCKED: ATOM     11  C   UNL     1      37.284  14.352 119.283 -0.29 -0.00    +0.000 A 
DOCKED: ATOM     12  C   UNL     1      36.552  15.447 118.769 -0.18 -0.00    +0.000 A 
DOCKED: ATOM     13  O   UNL     1      35.795  17.236 121.856 -0.26 -0.00    +0.000 OA
DOCKED: ATOM     14  C   UNL     1      37.507  14.230 120.741 -0.36 -0.00    +0.000 C 
DOCKED: ATOM     15  O   UNL     1      38.187  13.269 121.196 -0.47 -0.00    +0.000 OA
DOCKED: ATOM     16  CM  UNL     1      36.765  15.332 120.231 +0.00 -0.00    +0.000 AC
DOCKED: ATOM     17  CM  UNL     1      35.827  16.535 118.235 +0.00 -0.00    +0.000 AC
DOCKED: ATOM     18  CM  UNL     1      37.072  14.470 117.891 +0.00 -0.00    +0.000 AC
DOCKED: ENDROOT
DOCKED: BRANCH   1  16
DOCKED: ATOM     19  C   UNL     1      37.196  15.116 123.085 -0.42 -0.00    +0.000 C 
DOCKED: BRANCH  16  17
DOCKED: ATOM     20  C   UNL     1      36.199  14.149 123.731 -0.54 -0.00    +0.000 C 
DOCKED: BRANCH  17  18
DOCKED: ATOM     21  C   UNL     1      36.780  12.733 123.818 -0.58 -0.00    +0.000 C 
DOCKED: BRANCH  18  19
DOCKED: ATOM     22  C   UNL     1      35.928  11.739 123.015 -0.66 -0.00    +0.000 C 
DOCKED: BRANCH  19  20
DOCKED: ATOM     23  C   UNL     1      36.718  11.086 121.872 -0.60 -0.00    +0.000 C 
DOCKED: BRANCH  20  22
DOCKED: ATOM     24  O   UNL     1      36.706   8.857 121.012 -2.62 -0.00    +0.000 OA
DOCKED: ATOM     25  C   UNL     1      36.795   9.595 122.029 -0.66 -0.00    +0.000 C 
DOCKED: ATOM     26  N   UNL     1      37.000   9.013 123.318 -0.62 -0.00    +0.000 N 
DOCKED: ATOM     27  O   UNL     1      37.086   7.669 123.457 -2.66 -0.00    +0.000 OA
DOCKED: ATOM     28  H   UNL     1      37.080   9.592 124.110 -0.56 -0.00    +0.000 HD
DOCKED: ENDBRANCH  20  22
DOCKED: ENDBRANCH  19  20
DOCKED: ENDBRANCH  18  19
DOCKED: ENDBRANCH  17  18
DOCKED: ENDBRANCH  16  17
DOCKED: ENDBRANCH   1  16
DOCKED: TORSDOF 6DOCKED: TER
DOCKED: ENDMDL
________________________________________________________________________________


	BEGINNING GENETIC ALGORITHM DOCKING 23 of 100
Run: 23 Seed: 265579786 1782420426 [ Run 23 of 100 GA/GALS ]
Beginning LAMARCKIAN GENETIC ALGORITHM (LGA), with a maximum of 2500000 energy evaluations.

Final-Value: -13.832


	FINAL GENETIC ALGORITHM DOCKED STATE
	_______________________________________________


Detailed state:  trans 38.445 15.040 121.477 quatxyzw 0.887380 -0.200242 0.371120 -0.186358 center -0.023 0.069 -0.054 ntor 6 115.0253 -118.8286 -153.1859 -91.2600 -165.7082 175.2364
State:	 38.445  15.040 121.477   0.903 -0.204  0.378 -158.519    115.03 -118.83 -153.19  -91.26 -165.71  175.24

DOCKED: MODEL       23
DOCKED: USER    Run = 23
DOCKED: USER    DPF = ligand_dock.biased.dpf
DOCKED: USER  
DOCKED: USER    Estimated Free Energy of Binding    =  -10.85 kcal/mol  [=(1)+(2)+(3)-(4)]
DOCKED: USER    Estimated Inhibition Constant, Ki   =   11.17 nM (nanomolar)  [Temperature = 298.15 K]
DOCKED: USER    
DOCKED: USER    (1) Final Intermolecular Energy     =  -12.64 kcal/mol
DOCKED: USER        vdW + Hbond + desolv Energy     =  -12.64 kcal/mol
DOCKED: USER        Electrostatic Energy            =   +0.00 kcal/mol
DOCKED: USER    (2) Final Total Internal Energy     =   -1.19 kcal/mol
DOCKED: USER    (3) Torsional Free Energy           =   +1.79 kcal/mol
DOCKED: USER    (4) Unbound System's Energy  [=(2)] =   -1.19 kcal/mol
DOCKED: USER    
DOCKED: USER    
DOCKED: USER    NEWDPF move ligand.dum.pdbqt
DOCKED: USER    NEWDPF about -0.023000 0.069000 -0.054000
DOCKED: USER    NEWDPF tran0 38.445284 15.040460 121.476757
DOCKED: USER    NEWDPF quaternion0 0.887380 -0.200242 0.371120 -0.186358
DOCKED: USER    NEWDPF axisangle0 0.903203 -0.203813 0.377737 -158.519323
DOCKED: USER    NEWDPF quat0 0.903203 -0.203813 0.377737 -158.519323
DOCKED: USER    NEWDPF dihe0 115.03 -118.83 -153.19 -91.26 -165.71 175.24 
DOCKED: USER  keepresnum = 1 
DOCKED: USER  
DOCKED: REMARK  Name = 
DOCKED: REMARK  6 active torsions:
DOCKED: REMARK  status: ('A' for Active; 'I' for Inactive)
DOCKED: REMARK    1  A    between atoms: C_2  and  C_5
DOCKED: REMARK    2  A    between atoms: C_5  and  C_6
DOCKED: REMARK    3  A    between atoms: C_6  and  C_7
DOCKED: REMARK    4  A    between atoms: C_7  and  C_8
DOCKED: REMARK    5  A    between atoms: C_8  and  C_9
DOCKED: REMARK    6  A    between atoms: C_9  and  N_10
DOCKED: REMARK                            x       y       z     vdW  Elec       q    Type
DOCKED: REMARK                         _______ _______ _______ _____ _____    ______ ____
DOCKED: USER                              x       y       z     vdW  Elec       q    Type
DOCKED: USER                           _______ _______ _______ _____ _____    ______ ____
DOCKED: ROOT
DOCKED: ATOM      1  N   UNL     1      37.672  14.612 121.224 -0.29 -0.00    +0.000 N 
DOCKED: ATOM      2  C   UNL     1      37.057  15.911 121.136 -0.23 -0.00    +0.000 C 
DOCKED: ATOM      3  C   UNL     1      36.352  16.315 119.897 -0.14 -0.00    +0.000 A 
DOCKED: ATOM      4  C   UNL     1      35.721  17.568 119.809 -0.16 -0.00    +0.000 A 
DOCKED: ATOM      5  C   UNL     1      35.058  17.949 118.641 -0.15 -0.00    +0.000 A 
DOCKED: ATOM      6  C   UNL     1      35.014  17.089 117.545 -0.12 -0.00    +0.000 A 
DOCKED: ATOM      7  C   UNL     1      35.637  15.834 117.606 -0.17 -0.00    +0.000 A 
DOCKED: ATOM      8  C   UNL     1      35.595  14.971 116.503 -0.23 -0.00    +0.000 A 
DOCKED: ATOM      9  C   UNL     1      36.217  13.724 116.562 -0.31 -0.00    +0.000 A 
DOCKED: ATOM     10  C   UNL     1      36.884  13.324 117.721 -0.34 -0.00    +0.000 A 
DOCKED: ATOM     11  C   UNL     1      36.940  14.172 118.842 -0.31 -0.00    +0.000 A 
DOCKED: ATOM     12  C   UNL     1      36.313  15.437 118.789 -0.17 -0.00    +0.000 A 
DOCKED: ATOM     13  O   UNL     1      37.118  16.708 122.113 -0.20 -0.00    +0.000 OA
DOCKED: ATOM     14  C   UNL     1      37.649  13.748 120.072 -0.40 -0.00    +0.000 C 
DOCKED: ATOM     15  O   UNL     1      38.235  12.631 120.107 -0.48 -0.00    +0.000 OA
DOCKED: ATOM     16  CM  UNL     1      37.015  15.022 120.026 +0.00 -0.00    +0.000 AC
DOCKED: ATOM     17  CM  UNL     1      35.682  16.699 118.714 +0.00 -0.00    +0.000 AC
DOCKED: ATOM     18  CM  UNL     1      36.264  14.577 117.670 +0.00 -0.00    +0.000 AC
DOCKED: ENDROOT
DOCKED: BRANCH   1  16
DOCKED: ATOM     19  C   UNL     1      38.404  14.216 122.435 -0.46 -0.00    +0.000 C 
DOCKED: BRANCH  16  17
DOCKED: ATOM     20  C   UNL     1      37.445  13.589 123.452 -0.51 -0.00    +0.000 C 
DOCKED: BRANCH  17  18
DOCKED: ATOM     21  C   UNL     1      36.103  13.235 122.800 -0.39 -0.00    +0.000 C 
DOCKED: BRANCH  18  19
DOCKED: ATOM     22  C   UNL     1      36.134  11.814 122.217 -0.54 -0.00    +0.000 C 
DOCKED: BRANCH  19  20
DOCKED: ATOM     23  C   UNL     1      37.076  10.885 122.995 -0.60 -0.00    +0.000 C 
DOCKED: BRANCH  20  22
DOCKED: ATOM     24  O   UNL     1      36.744   9.220 121.314 -2.55 -0.00    +0.000 OA
DOCKED: ATOM     25  C   UNL     1      36.963   9.462 122.531 -0.64 -0.00    +0.000 C 
DOCKED: ATOM     26  N   UNL     1      37.136   8.384 123.454 -0.69 -0.00    +0.000 N 
DOCKED: ATOM     27  O   UNL     1      37.051   7.101 123.032 -2.02 -0.00    +0.000 OA
DOCKED: ATOM     28  H   UNL     1      37.319   8.576 124.402 -0.52 -0.00    +0.000 HD
DOCKED: ENDBRANCH  20  22
DOCKED: ENDBRANCH  19  20
DOCKED: ENDBRANCH  18  19
DOCKED: ENDBRANCH  17  18
DOCKED: ENDBRANCH  16  17
DOCKED: ENDBRANCH   1  16
DOCKED: TORSDOF 6DOCKED: TER
DOCKED: ENDMDL
________________________________________________________________________________


	BEGINNING GENETIC ALGORITHM DOCKING 24 of 100
Run: 24 Seed: 578126528 712281948 [ Run 24 of 100 GA/GALS ]
Beginning LAMARCKIAN GENETIC ALGORITHM (LGA), with a maximum of 2500000 energy evaluations.

Final-Value: -14.960


	FINAL GENETIC ALGORITHM DOCKED STATE
	_______________________________________________


Detailed state:  trans 36.723 15.311 122.098 quatxyzw -0.681199 0.353980 0.621035 0.158059 center -0.023 0.069 -0.054 ntor 6 -90.6761 -175.6151 180.0000 -83.0013 -117.6603 165.4875
State:	 36.723  15.311 122.098  -0.690  0.358  0.629 161.812    -90.68 -175.62  180.00  -83.00 -117.66  165.49

DOCKED: MODEL       24
DOCKED: USER    Run = 24
DOCKED: USER    DPF = ligand_dock.biased.dpf
DOCKED: USER  
DOCKED: USER    Estimated Free Energy of Binding    =  -12.19 kcal/mol  [=(1)+(2)+(3)-(4)]
DOCKED: USER    Estimated Inhibition Constant, Ki   =    1.17 nM (nanomolar)  [Temperature = 298.15 K]
DOCKED: USER    
DOCKED: USER    (1) Final Intermolecular Energy     =  -13.98 kcal/mol
DOCKED: USER        vdW + Hbond + desolv Energy     =  -13.98 kcal/mol
DOCKED: USER        Electrostatic Energy            =   +0.00 kcal/mol
DOCKED: USER    (2) Final Total Internal Energy     =   -0.98 kcal/mol
DOCKED: USER    (3) Torsional Free Energy           =   +1.79 kcal/mol
DOCKED: USER    (4) Unbound System's Energy  [=(2)] =   -0.98 kcal/mol
DOCKED: USER    
DOCKED: USER    
DOCKED: USER    NEWDPF move ligand.dum.pdbqt
DOCKED: USER    NEWDPF about -0.023000 0.069000 -0.054000
DOCKED: USER    NEWDPF tran0 36.723319 15.310789 122.097859
DOCKED: USER    NEWDPF quaternion0 -0.681199 0.353980 0.621035 0.158059
DOCKED: USER    NEWDPF axisangle0 -0.689870 0.358486 0.628941 161.811527
DOCKED: USER    NEWDPF quat0 -0.689870 0.358486 0.628941 161.811527
DOCKED: USER    NEWDPF dihe0 -90.68 -175.62 180.00 -83.00 -117.66 165.49 
DOCKED: USER  keepresnum = 1 
DOCKED: USER  
DOCKED: REMARK  Name = 
DOCKED: REMARK  6 active torsions:
DOCKED: REMARK  status: ('A' for Active; 'I' for Inactive)
DOCKED: REMARK    1  A    between atoms: C_2  and  C_5
DOCKED: REMARK    2  A    between atoms: C_5  and  C_6
DOCKED: REMARK    3  A    between atoms: C_6  and  C_7
DOCKED: REMARK    4  A    between atoms: C_7  and  C_8
DOCKED: REMARK    5  A    between atoms: C_8  and  C_9
DOCKED: REMARK    6  A    between atoms: C_9  and  N_10
DOCKED: REMARK                            x       y       z     vdW  Elec       q    Type
DOCKED: REMARK                         _______ _______ _______ _____ _____    ______ ____
DOCKED: USER                              x       y       z     vdW  Elec       q    Type
DOCKED: USER                           _______ _______ _______ _____ _____    ______ ____
DOCKED: ROOT
DOCKED: ATOM      1  N   UNL     1      36.614  15.204 123.005 -0.38 -0.00    +0.000 N 
DOCKED: ATOM      2  C   UNL     1      37.749  16.072 123.180 -0.31 -0.00    +0.000 C 
DOCKED: ATOM      3  C   UNL     1      37.646  17.257 124.063 -0.16 -0.00    +0.000 A 
DOCKED: ATOM      4  C   UNL     1      38.756  18.096 124.267 -0.19 -0.00    +0.000 A 
DOCKED: ATOM      5  C   UNL     1      38.659  19.212 125.098 -0.13 -0.00    +0.000 A 
DOCKED: ATOM      6  C   UNL     1      37.456  19.512 125.737 -0.12 -0.00    +0.000 A 
DOCKED: ATOM      7  C   UNL     1      36.334  18.692 125.549 -0.17 -0.00    +0.000 A 
DOCKED: ATOM      8  C   UNL     1      35.124  18.995 126.190 -0.19 -0.00    +0.000 A 
DOCKED: ATOM      9  C   UNL     1      34.007  18.182 126.001 -0.31 -0.00    +0.000 A 
DOCKED: ATOM     10  C   UNL     1      34.084  17.060 125.174 -0.40 -0.00    +0.000 A 
DOCKED: ATOM     11  C   UNL     1      35.286  16.734 124.520 -0.36 -0.00    +0.000 A 
DOCKED: ATOM     12  C   UNL     1      36.423  17.554 124.707 -0.16 -0.00    +0.000 A 
DOCKED: ATOM     13  O   UNL     1      38.832  15.826 122.581 -0.31 -0.00    +0.000 OA
DOCKED: ATOM     14  C   UNL     1      35.368  15.544 123.643 -0.50 -0.00    +0.000 C 
DOCKED: ATOM     15  O   UNL     1      34.344  14.831 123.453 -0.57 -0.00    +0.000 OA
DOCKED: ATOM     16  CM  UNL     1      36.517  16.363 123.830 -0.01 -0.00    +0.000 AC
DOCKED: ATOM     17  CM  UNL     1      37.546  18.387 124.904 +0.00 -0.00    +0.000 AC
DOCKED: ATOM     18  CM  UNL     1      35.209  17.870 125.357 -0.43 -0.00    +0.000 AC
DOCKED: ENDROOT
DOCKED: BRANCH   1  16
DOCKED: ATOM     19  C   UNL     1      36.695  14.046 122.103 -0.35 -0.00    +0.000 C 
DOCKED: BRANCH  16  17
DOCKED: ATOM     20  C   UNL     1      37.454  12.901 122.779 -0.56 -0.00    +0.000 C 
DOCKED: BRANCH  17  18
DOCKED: ATOM     21  C   UNL     1      36.723  12.420 124.037 -0.46 -0.00    +0.000 C 
DOCKED: BRANCH  18  19
DOCKED: ATOM     22  C   UNL     1      35.866  11.181 123.735 -0.55 -0.00    +0.000 C 
DOCKED: BRANCH  19  20
DOCKED: ATOM     23  C   UNL     1      36.023  10.704 122.285 -0.65 -0.00    +0.000 C 
DOCKED: BRANCH  20  22
DOCKED: ATOM     24  O   UNL     1      36.994   8.873 121.096 -2.68 -0.00    +0.000 OA
DOCKED: ATOM     25  C   UNL     1      36.640   9.337 122.212 -0.71 -0.00    +0.000 C 
DOCKED: ATOM     26  N   UNL     1      36.856   8.577 123.403 -0.66 -0.00    +0.000 N 
DOCKED: ATOM     27  O   UNL     1      37.427   7.352 123.339 -2.26 -0.00    +0.000 OA
DOCKED: ATOM     28  H   UNL     1      36.589   8.947 124.275 -0.39 -0.00    +0.000 HD
DOCKED: ENDBRANCH  20  22
DOCKED: ENDBRANCH  19  20
DOCKED: ENDBRANCH  18  19
DOCKED: ENDBRANCH  17  18
DOCKED: ENDBRANCH  16  17
DOCKED: ENDBRANCH   1  16
DOCKED: TORSDOF 6DOCKED: TER
DOCKED: ENDMDL
________________________________________________________________________________


	BEGINNING GENETIC ALGORITHM DOCKING 25 of 100
Run: 25 Seed: 1672720644 842343568 [ Run 25 of 100 GA/GALS ]
Beginning LAMARCKIAN GENETIC ALGORITHM (LGA), with a maximum of 2500000 energy evaluations.

Final-Value: -14.652


	FINAL GENETIC ALGORITHM DOCKED STATE
	_______________________________________________


Detailed state:  trans 36.052 16.278 121.653 quatxyzw -0.665997 0.005381 0.615370 0.421592 center -0.023 0.069 -0.054 ntor 6 1.2599 179.9163 -40.0102 50.5923 -55.4187 -148.5989
State:	 36.052  16.278 121.653  -0.734  0.006  0.679 130.130      1.26  179.92  -40.01   50.59  -55.42 -148.60

DOCKED: MODEL       25
DOCKED: USER    Run = 25
DOCKED: USER    DPF = ligand_dock.biased.dpf
DOCKED: USER  
DOCKED: USER    Estimated Free Energy of Binding    =  -12.07 kcal/mol  [=(1)+(2)+(3)-(4)]
DOCKED: USER    Estimated Inhibition Constant, Ki   =    1.43 nM (nanomolar)  [Temperature = 298.15 K]
DOCKED: USER    
DOCKED: USER    (1) Final Intermolecular Energy     =  -13.86 kcal/mol
DOCKED: USER        vdW + Hbond + desolv Energy     =  -13.86 kcal/mol
DOCKED: USER        Electrostatic Energy            =   +0.00 kcal/mol
DOCKED: USER    (2) Final Total Internal Energy     =   -0.79 kcal/mol
DOCKED: USER    (3) Torsional Free Energy           =   +1.79 kcal/mol
DOCKED: USER    (4) Unbound System's Energy  [=(2)] =   -0.79 kcal/mol
DOCKED: USER    
DOCKED: USER    
DOCKED: USER    NEWDPF move ligand.dum.pdbqt
DOCKED: USER    NEWDPF about -0.023000 0.069000 -0.054000
DOCKED: USER    NEWDPF tran0 36.052162 16.277777 121.652967
DOCKED: USER    NEWDPF quaternion0 -0.665997 0.005381 0.615370 0.421592
DOCKED: USER    NEWDPF axisangle0 -0.734459 0.005934 0.678627 130.129776
DOCKED: USER    NEWDPF quat0 -0.734459 0.005934 0.678627 130.129776
DOCKED: USER    NEWDPF dihe0 1.26 179.92 -40.01 50.59 -55.42 -148.60 
DOCKED: USER  keepresnum = 1 
DOCKED: USER  
DOCKED: REMARK  Name = 
DOCKED: REMARK  6 active torsions:
DOCKED: REMARK  status: ('A' for Active; 'I' for Inactive)
DOCKED: REMARK    1  A    between atoms: C_2  and  C_5
DOCKED: REMARK    2  A    between atoms: C_5  and  C_6
DOCKED: REMARK    3  A    between atoms: C_6  and  C_7
DOCKED: REMARK    4  A    between atoms: C_7  and  C_8
DOCKED: REMARK    5  A    between atoms: C_8  and  C_9
DOCKED: REMARK    6  A    between atoms: C_9  and  N_10
DOCKED: REMARK                            x       y       z     vdW  Elec       q    Type
DOCKED: REMARK                         _______ _______ _______ _____ _____    ______ ____
DOCKED: USER                              x       y       z     vdW  Elec       q    Type
DOCKED: USER                           _______ _______ _______ _____ _____    ______ ____
DOCKED: ROOT
DOCKED: ATOM      1  N   UNL     1      36.334  16.182 122.523 -0.27 -0.00    +0.000 N 
DOCKED: ATOM      2  C   UNL     1      36.497  17.613 122.560 -0.22 -0.00    +0.000 C 
DOCKED: ATOM      3  C   UNL     1      35.862  18.403 123.640 -0.22 -0.00    +0.000 A 
DOCKED: ATOM      4  C   UNL     1      36.039  19.796 123.705 -0.17 -0.00    +0.000 A 
DOCKED: ATOM      5  C   UNL     1      35.440  20.541 124.722 -0.12 -0.00    +0.000 A 
DOCKED: ATOM      6  C   UNL     1      34.655  19.911 125.688 -0.18 -0.00    +0.000 A 
DOCKED: ATOM      7  C   UNL     1      34.462  18.523 125.644 -0.28 -0.00    +0.000 A 
DOCKED: ATOM      8  C   UNL     1      33.672  17.890 126.613 -0.31 -0.00    +0.000 A 
DOCKED: ATOM      9  C   UNL     1      33.476  16.510 126.569 -0.33 -0.00    +0.000 A 
DOCKED: ATOM     10  C   UNL     1      34.067  15.747 125.560 -0.31 -0.00    +0.000 A 
DOCKED: ATOM     11  C   UNL     1      34.866  16.358 124.576 -0.44 -0.00    +0.000 A 
DOCKED: ATOM     12  C   UNL     1      35.068  17.757 124.615 -0.31 -0.00    +0.000 A 
DOCKED: ATOM     13  O   UNL     1      37.180  18.195 121.673 -0.12 -0.00    +0.000 OA
DOCKED: ATOM     14  C   UNL     1      35.492  15.549 123.506 -0.49 -0.00    +0.000 C 
DOCKED: ATOM     15  O   UNL     1      35.286  14.305 123.455 -0.59 -0.00    +0.000 OA
DOCKED: ATOM     16  CM  UNL     1      35.704  16.956 123.542 -0.04 -0.00    +0.000 AC
DOCKED: ATOM     17  CM  UNL     1      35.254  19.155 124.669 -0.11 -0.00    +0.000 AC
DOCKED: ATOM     18  CM  UNL     1      34.268  17.131 125.597 -0.22 -0.00    +0.000 AC
DOCKED: ENDROOT
DOCKED: BRANCH   1  16
DOCKED: ATOM     19  C   UNL     1      36.930  15.393 121.436 -0.25 -0.00    +0.000 C 
DOCKED: BRANCH  16  17
DOCKED: ATOM     20  C   UNL     1      37.846  14.308 122.011 -0.43 -0.00    +0.000 C 
DOCKED: BRANCH  17  18
DOCKED: ATOM     21  C   UNL     1      37.437  12.918 121.510 -0.50 -0.00    +0.000 C 
DOCKED: BRANCH  18  19
DOCKED: ATOM     22  C   UNL     1      37.282  11.936 122.681 -0.52 -0.00    +0.000 C 
DOCKED: BRANCH  19  20
DOCKED: ATOM     23  C   UNL     1      36.122  10.954 122.467 -0.67 -0.00    +0.000 C 
DOCKED: BRANCH  20  22
DOCKED: ATOM     24  O   UNL     1      37.055   9.217 121.117 -2.73 -0.00    +0.000 OA
DOCKED: ATOM     25  C   UNL     1      36.612   9.552 122.248 -0.70 -0.00    +0.000 C 
DOCKED: ATOM     26  N   UNL     1      36.608   8.609 123.323 -0.65 -0.00    +0.000 N 
DOCKED: ATOM     27  O   UNL     1      37.066   7.350 123.130 -2.34 -0.00    +0.000 OA
DOCKED: ATOM     28  H   UNL     1      36.272   8.877 124.208 -0.32 -0.00    +0.000 HD
DOCKED: ENDBRANCH  20  22
DOCKED: ENDBRANCH  19  20
DOCKED: ENDBRANCH  18  19
DOCKED: ENDBRANCH  17  18
DOCKED: ENDBRANCH  16  17
DOCKED: ENDBRANCH   1  16
DOCKED: TORSDOF 6DOCKED: TER
DOCKED: ENDMDL
________________________________________________________________________________


	BEGINNING GENETIC ALGORITHM DOCKING 26 of 100
Run: 26 Seed: 2024146896 2085250476 [ Run 26 of 100 GA/GALS ]
Beginning LAMARCKIAN GENETIC ALGORITHM (LGA), with a maximum of 2500000 energy evaluations.

Final-Value: -14.329


	FINAL GENETIC ALGORITHM DOCKED STATE
	_______________________________________________


Detailed state:  trans 37.506 15.006 120.153 quatxyzw -0.539107 -0.464166 -0.635605 -0.299865 center -0.023 0.069 -0.054 ntor 6 -78.7251 -174.1911 176.0214 -37.4235 12.3986 144.5776
State:	 37.506  15.006 120.153  -0.565 -0.487 -0.666 -145.101    -78.73 -174.19  176.02  -37.42   12.40  144.58

DOCKED: MODEL       26
DOCKED: USER    Run = 26
DOCKED: USER    DPF = ligand_dock.biased.dpf
DOCKED: USER  
DOCKED: USER    Estimated Free Energy of Binding    =  -11.65 kcal/mol  [=(1)+(2)+(3)-(4)]
DOCKED: USER    Estimated Inhibition Constant, Ki   =    2.89 nM (nanomolar)  [Temperature = 298.15 K]
DOCKED: USER    
DOCKED: USER    (1) Final Intermolecular Energy     =  -13.44 kcal/mol
DOCKED: USER        vdW + Hbond + desolv Energy     =  -13.44 kcal/mol
DOCKED: USER        Electrostatic Energy            =   +0.00 kcal/mol
DOCKED: USER    (2) Final Total Internal Energy     =   -0.89 kcal/mol
DOCKED: USER    (3) Torsional Free Energy           =   +1.79 kcal/mol
DOCKED: USER    (4) Unbound System's Energy  [=(2)] =   -0.89 kcal/mol
DOCKED: USER    
DOCKED: USER    
DOCKED: USER    NEWDPF move ligand.dum.pdbqt
DOCKED: USER    NEWDPF about -0.023000 0.069000 -0.054000
DOCKED: USER    NEWDPF tran0 37.506081 15.005583 120.153291
DOCKED: USER    NEWDPF quaternion0 -0.539107 -0.464166 -0.635605 -0.299865
DOCKED: USER    NEWDPF axisangle0 -0.565113 -0.486557 -0.666266 -145.100955
DOCKED: USER    NEWDPF quat0 -0.565113 -0.486557 -0.666266 -145.100955
DOCKED: USER    NEWDPF dihe0 -78.73 -174.19 176.02 -37.42 12.40 144.58 
DOCKED: USER  keepresnum = 1 
DOCKED: USER  
DOCKED: REMARK  Name = 
DOCKED: REMARK  6 active torsions:
DOCKED: REMARK  status: ('A' for Active; 'I' for Inactive)
DOCKED: REMARK    1  A    between atoms: C_2  and  C_5
DOCKED: REMARK    2  A    between atoms: C_5  and  C_6
DOCKED: REMARK    3  A    between atoms: C_6  and  C_7
DOCKED: REMARK    4  A    between atoms: C_7  and  C_8
DOCKED: REMARK    5  A    between atoms: C_8  and  C_9
DOCKED: REMARK    6  A    between atoms: C_9  and  N_10
DOCKED: REMARK                            x       y       z     vdW  Elec       q    Type
DOCKED: REMARK                         _______ _______ _______ _____ _____    ______ ____
DOCKED: USER                              x       y       z     vdW  Elec       q    Type
DOCKED: USER                           _______ _______ _______ _____ _____    ______ ____
DOCKED: ROOT
DOCKED: ATOM      1  N   UNL     1      38.231  14.589 119.771 -0.25 -0.00    +0.000 N 
DOCKED: ATOM      2  C   UNL     1      37.313  13.974 118.849 -0.37 -0.00    +0.000 C 
DOCKED: ATOM      3  C   UNL     1      37.548  14.076 117.390 -0.31 -0.00    +0.000 A 
DOCKED: ATOM      4  C   UNL     1      36.676  13.454 116.480 -0.30 -0.00    +0.000 A 
DOCKED: ATOM      5  C   UNL     1      36.897  13.551 115.105 -0.31 -0.00    +0.000 A 
DOCKED: ATOM      6  C   UNL     1      37.989  14.268 114.617 -0.30 -0.00    +0.000 A 
DOCKED: ATOM      7  C   UNL     1      38.873  14.898 115.504 -0.27 -0.00    +0.000 A 
DOCKED: ATOM      8  C   UNL     1      39.969  15.621 115.013 -0.24 -0.00    +0.000 A 
DOCKED: ATOM      9  C   UNL     1      40.847  16.251 115.894 -0.20 -0.00    +0.000 A 
DOCKED: ATOM     10  C   UNL     1      40.643  16.165 117.273 -0.16 -0.00    +0.000 A 
DOCKED: ATOM     11  C   UNL     1      39.552  15.446 117.791 -0.05 -0.00    +0.000 A 
DOCKED: ATOM     12  C   UNL     1      38.657  14.805 116.903 -0.20 -0.00    +0.000 A 
DOCKED: ATOM     13  O   UNL     1      36.305  13.349 119.281 -0.41 -0.00    +0.000 OA
DOCKED: ATOM     14  C   UNL     1      39.335  15.356 119.253 -0.11 -0.00    +0.000 C 
DOCKED: ATOM     15  O   UNL     1      40.117  15.954 120.043 -0.19 -0.00    +0.000 OA
DOCKED: ATOM     16  CM  UNL     1      38.434  14.704 118.365 +0.00 -0.00    +0.000 AC
DOCKED: ATOM     17  CM  UNL     1      37.773  14.175 115.999 +0.00 -0.00    +0.000 AC
DOCKED: ATOM     18  CM  UNL     1      39.757  15.531 116.396 +0.00 -0.00    +0.000 AC
DOCKED: ENDROOT
DOCKED: BRANCH   1  16
DOCKED: ATOM     19  C   UNL     1      37.987  14.524 121.219 -0.36 -0.00    +0.000 C 
DOCKED: BRANCH  16  17
DOCKED: ATOM     20  C   UNL     1      37.872  13.065 121.672 -0.45 -0.00    +0.000 C 
DOCKED: BRANCH  17  18
DOCKED: ATOM     21  C   UNL     1      37.321  12.971 123.099 -0.59 -0.00    +0.000 C 
DOCKED: BRANCH  18  19
DOCKED: ATOM     22  C   UNL     1      36.384  11.763 123.248 -0.70 -0.00    +0.000 C 
DOCKED: BRANCH  19  20
DOCKED: ATOM     23  C   UNL     1      36.228  10.982 121.936 -0.57 -0.00    +0.000 C 
DOCKED: BRANCH  20  22
DOCKED: ATOM     24  O   UNL     1      37.062   8.939 121.020 -2.71 -0.00    +0.000 OA
DOCKED: ATOM     25  C   UNL     1      36.745   9.578 122.059 -0.68 -0.00    +0.000 C 
DOCKED: ATOM     26  N   UNL     1      36.909   8.977 123.345 -0.61 -0.00    +0.000 N 
DOCKED: ATOM     27  O   UNL     1      37.391   7.718 123.456 -2.62 -0.00    +0.000 OA
DOCKED: ATOM     28  H   UNL     1      36.671   9.483 124.156 -0.47 -0.00    +0.000 HD
DOCKED: ENDBRANCH  20  22
DOCKED: ENDBRANCH  19  20
DOCKED: ENDBRANCH  18  19
DOCKED: ENDBRANCH  17  18
DOCKED: ENDBRANCH  16  17
DOCKED: ENDBRANCH   1  16
DOCKED: TORSDOF 6DOCKED: TER
DOCKED: ENDMDL
________________________________________________________________________________


	BEGINNING GENETIC ALGORITHM DOCKING 27 of 100
Run: 27 Seed: 1475318613 1825905423 [ Run 27 of 100 GA/GALS ]
Beginning LAMARCKIAN GENETIC ALGORITHM (LGA), with a maximum of 2500000 energy evaluations.

Final-Value: -14.951


	FINAL GENETIC ALGORITHM DOCKED STATE
	_______________________________________________


Detailed state:  trans 37.297 15.052 122.317 quatxyzw -0.712657 0.237132 0.547784 0.368539 center -0.023 0.069 -0.054 ntor 6 64.1585 -82.4691 130.6187 -90.1741 -9.4287 1.8137
State:	 37.297  15.052 122.317  -0.767  0.255  0.589 136.749     64.16  -82.47  130.62  -90.17   -9.43    1.81

DOCKED: MODEL       27
DOCKED: USER    Run = 27
DOCKED: USER    DPF = ligand_dock.biased.dpf
DOCKED: USER  
DOCKED: USER    Estimated Free Energy of Binding    =  -12.40 kcal/mol  [=(1)+(2)+(3)-(4)]
DOCKED: USER    Estimated Inhibition Constant, Ki   =  807.37 pM (picomolar)  [Temperature = 298.15 K]
DOCKED: USER    
DOCKED: USER    (1) Final Intermolecular Energy     =  -14.19 kcal/mol
DOCKED: USER        vdW + Hbond + desolv Energy     =  -14.19 kcal/mol
DOCKED: USER        Electrostatic Energy            =   +0.00 kcal/mol
DOCKED: USER    (2) Final Total Internal Energy     =   -0.76 kcal/mol
DOCKED: USER    (3) Torsional Free Energy           =   +1.79 kcal/mol
DOCKED: USER    (4) Unbound System's Energy  [=(2)] =   -0.76 kcal/mol
DOCKED: USER    
DOCKED: USER    
DOCKED: USER    NEWDPF move ligand.dum.pdbqt
DOCKED: USER    NEWDPF about -0.023000 0.069000 -0.054000
DOCKED: USER    NEWDPF tran0 37.296572 15.052498 122.316656
DOCKED: USER    NEWDPF quaternion0 -0.712657 0.237132 0.547784 0.368539
DOCKED: USER    NEWDPF axisangle0 -0.766617 0.255087 0.589261 136.748972
DOCKED: USER    NEWDPF quat0 -0.766617 0.255087 0.589261 136.748972
DOCKED: USER    NEWDPF dihe0 64.16 -82.47 130.62 -90.17 -9.43 1.81 
DOCKED: USER  keepresnum = 1 
DOCKED: USER  
DOCKED: REMARK  Name = 
DOCKED: REMARK  6 active torsions:
DOCKED: REMARK  status: ('A' for Active; 'I' for Inactive)
DOCKED: REMARK    1  A    between atoms: C_2  and  C_5
DOCKED: REMARK    2  A    between atoms: C_5  and  C_6
DOCKED: REMARK    3  A    between atoms: C_6  and  C_7
DOCKED: REMARK    4  A    between atoms: C_7  and  C_8
DOCKED: REMARK    5  A    between atoms: C_8  and  C_9
DOCKED: REMARK    6  A    between atoms: C_9  and  N_10
DOCKED: REMARK                            x       y       z     vdW  Elec       q    Type
DOCKED: REMARK                         _______ _______ _______ _____ _____    ______ ____
DOCKED: USER                              x       y       z     vdW  Elec       q    Type
DOCKED: USER                           _______ _______ _______ _____ _____    ______ ____
DOCKED: ROOT
DOCKED: ATOM      1  N   UNL     1      37.250  15.081 123.235 -0.39 -0.00    +0.000 N 
DOCKED: ATOM      2  C   UNL     1      37.866  16.381 123.162 -0.28 -0.00    +0.000 C 
DOCKED: ATOM      3  C   UNL     1      37.237  17.538 123.841 -0.21 -0.00    +0.000 A 
DOCKED: ATOM      4  C   UNL     1      37.844  18.805 123.803 -0.13 -0.00    +0.000 A 
DOCKED: ATOM      5  C   UNL     1      37.251  19.895 124.442 -0.10 -0.00    +0.000 A 
DOCKED: ATOM      6  C   UNL     1      36.046  19.740 125.126 -0.15 -0.00    +0.000 A 
DOCKED: ATOM      7  C   UNL     1      35.420  18.487 125.177 -0.23 -0.00    +0.000 A 
DOCKED: ATOM      8  C   UNL     1      34.207  18.332 125.863 -0.30 -0.00    +0.000 A 
DOCKED: ATOM      9  C   UNL     1      33.582  17.086 125.911 -0.25 -0.00    +0.000 A 
DOCKED: ATOM     10  C   UNL     1      34.159  15.983 125.279 -0.44 -0.00    +0.000 A 
DOCKED: ATOM     11  C   UNL     1      35.376  16.112 124.585 -0.35 -0.00    +0.000 A 
DOCKED: ATOM     12  C   UNL     1      36.015  17.372 124.532 -0.25 -0.00    +0.000 A 
DOCKED: ATOM     13  O   UNL     1      38.941  16.537 122.519 -0.23 -0.00    +0.000 OA
DOCKED: ATOM     14  C   UNL     1      35.988  14.943 123.915 -0.49 -0.00    +0.000 C 
DOCKED: ATOM     15  O   UNL     1      35.400  13.826 123.937 -0.62 -0.00    +0.000 OA
DOCKED: ATOM     16  CM  UNL     1      36.639  16.207 123.861 -0.00 -0.00    +0.000 AC
DOCKED: ATOM     17  CM  UNL     1      36.636  18.640 124.487 -0.03 -0.00    +0.000 AC
DOCKED: ATOM     18  CM  UNL     1      34.793  17.229 125.225 -0.38 -0.00    +0.000 AC
DOCKED: ENDROOT
DOCKED: BRANCH   1  16
DOCKED: ATOM     19  C   UNL     1      37.847  13.935 122.535 -0.49 -0.00    +0.000 C 
DOCKED: BRANCH  16  17
DOCKED: ATOM     20  C   UNL     1      37.361  13.890 121.083 -0.40 -0.00    +0.000 C 
DOCKED: BRANCH  17  18
DOCKED: ATOM     21  C   UNL     1      38.143  12.851 120.271 -0.41 -0.00    +0.000 C 
DOCKED: BRANCH  18  19
DOCKED: ATOM     22  C   UNL     1      37.458  11.478 120.330 -0.36 -0.00    +0.000 C 
DOCKED: BRANCH  19  20
DOCKED: ATOM     23  C   UNL     1      37.043  11.096 121.758 -0.53 -0.00    +0.000 C 
DOCKED: BRANCH  20  22
DOCKED: ATOM     24  O   UNL     1      37.051   8.845 120.954 -2.70 -0.00    +0.000 OA
DOCKED: ATOM     25  C   UNL     1      37.039   9.608 121.958 -0.61 -0.00    +0.000 C 
DOCKED: ATOM     26  N   UNL     1      37.054   9.055 123.276 -0.63 -0.00    +0.000 N 
DOCKED: ATOM     27  O   UNL     1      37.067   7.713 123.455 -2.70 -0.00    +0.000 OA
DOCKED: ATOM     28  H   UNL     1      37.056   9.653 124.058 -0.53 -0.00    +0.000 HD
DOCKED: ENDBRANCH  20  22
DOCKED: ENDBRANCH  19  20
DOCKED: ENDBRANCH  18  19
DOCKED: ENDBRANCH  17  18
DOCKED: ENDBRANCH  16  17
DOCKED: ENDBRANCH   1  16
DOCKED: TORSDOF 6DOCKED: TER
DOCKED: ENDMDL
________________________________________________________________________________


	BEGINNING GENETIC ALGORITHM DOCKING 28 of 100
Run: 28 Seed: 1216680112 1554398689 [ Run 28 of 100 GA/GALS ]
Beginning LAMARCKIAN GENETIC ALGORITHM (LGA), with a maximum of 2500000 energy evaluations.

Final-Value: -13.781


	FINAL GENETIC ALGORITHM DOCKED STATE
	_______________________________________________


Detailed state:  trans 38.653 15.090 123.844 quatxyzw 0.365069 -0.538012 0.674994 0.348784 center -0.023 0.069 -0.054 ntor 6 20.7786 173.0272 -43.8941 176.9994 -20.9730 -173.1315
State:	 38.653  15.090 123.844   0.390 -0.574  0.720 139.174     20.78  173.03  -43.89  177.00  -20.97 -173.13

DOCKED: MODEL       28
DOCKED: USER    Run = 28
DOCKED: USER    DPF = ligand_dock.biased.dpf
DOCKED: USER  
DOCKED: USER    Estimated Free Energy of Binding    =  -11.25 kcal/mol  [=(1)+(2)+(3)-(4)]
DOCKED: USER    Estimated Inhibition Constant, Ki   =    5.63 nM (nanomolar)  [Temperature = 298.15 K]
DOCKED: USER    
DOCKED: USER    (1) Final Intermolecular Energy     =  -13.04 kcal/mol
DOCKED: USER        vdW + Hbond + desolv Energy     =  -13.04 kcal/mol
DOCKED: USER        Electrostatic Energy            =   +0.00 kcal/mol
DOCKED: USER    (2) Final Total Internal Energy     =   -0.74 kcal/mol
DOCKED: USER    (3) Torsional Free Energy           =   +1.79 kcal/mol
DOCKED: USER    (4) Unbound System's Energy  [=(2)] =   -0.74 kcal/mol
DOCKED: USER    
DOCKED: USER    
DOCKED: USER    NEWDPF move ligand.dum.pdbqt
DOCKED: USER    NEWDPF about -0.023000 0.069000 -0.054000
DOCKED: USER    NEWDPF tran0 38.653462 15.090385 123.844371
DOCKED: USER    NEWDPF quaternion0 0.365069 -0.538012 0.674994 0.348784
DOCKED: USER    NEWDPF axisangle0 0.389530 -0.574062 0.720222 139.174049
DOCKED: USER    NEWDPF quat0 0.389530 -0.574062 0.720222 139.174049
DOCKED: USER    NEWDPF dihe0 20.78 173.03 -43.89 177.00 -20.97 -173.13 
DOCKED: USER  keepresnum = 1 
DOCKED: USER  
DOCKED: REMARK  Name = 
DOCKED: REMARK  6 active torsions:
DOCKED: REMARK  status: ('A' for Active; 'I' for Inactive)
DOCKED: REMARK    1  A    between atoms: C_2  and  C_5
DOCKED: REMARK    2  A    between atoms: C_5  and  C_6
DOCKED: REMARK    3  A    between atoms: C_6  and  C_7
DOCKED: REMARK    4  A    between atoms: C_7  and  C_8
DOCKED: REMARK    5  A    between atoms: C_8  and  C_9
DOCKED: REMARK    6  A    between atoms: C_9  and  N_10
DOCKED: REMARK                            x       y       z     vdW  Elec       q    Type
DOCKED: REMARK                         _______ _______ _______ _____ _____    ______ ____
DOCKED: USER                              x       y       z     vdW  Elec       q    Type
DOCKED: USER                           _______ _______ _______ _____ _____    ______ ____
DOCKED: ROOT
DOCKED: ATOM      1  N   UNL     1      38.927  15.515 123.076 -0.31 -0.00    +0.000 N 
DOCKED: ATOM      2  C   UNL     1      38.426  16.737 123.647 -0.23 -0.00    +0.000 C 
DOCKED: ATOM      3  C   UNL     1      39.299  17.931 123.725 -0.19 -0.00    +0.000 A 
DOCKED: ATOM      4  C   UNL     1      38.811  19.140 124.252 -0.11 -0.00    +0.000 A 
DOCKED: ATOM      5  C   UNL     1      39.634  20.265 124.327 -0.06 -0.00    +0.000 A 
DOCKED: ATOM      6  C   UNL     1      40.953  20.204 123.879 -0.07 -0.00    +0.000 A 
DOCKED: ATOM      7  C   UNL     1      41.464  19.009 123.351 -0.14 -0.00    +0.000 A 
DOCKED: ATOM      8  C   UNL     1      42.790  18.947 122.903 -0.14 -0.00    +0.000 A 
DOCKED: ATOM      9  C   UNL     1      43.300  17.759 122.380 -0.23 -0.00    +0.000 A 
DOCKED: ATOM     10  C   UNL     1      42.493  16.623 122.296 -0.34 -0.00    +0.000 A 
DOCKED: ATOM     11  C   UNL     1      41.158  16.660 122.738 -0.30 -0.00    +0.000 A 
DOCKED: ATOM     12  C   UNL     1      40.635  17.860 123.270 -0.21 -0.00    +0.000 A 
DOCKED: ATOM     13  O   UNL     1      37.243  16.793 124.083 -0.30 -0.00    +0.000 OA
DOCKED: ATOM     14  C   UNL     1      40.302  15.454 122.650 -0.40 -0.00    +0.000 C 
DOCKED: ATOM     15  O   UNL     1      40.780  14.375 122.203 -1.09 +0.00    +0.000 OA
DOCKED: ATOM     16  CM  UNL     1      39.768  16.661 123.181 +0.00 -0.00    +0.000 AC
DOCKED: ATOM     17  CM  UNL     1      40.133  19.069 123.801 +0.00 -0.00    +0.000 AC
DOCKED: ATOM     18  CM  UNL     1      41.974  17.810 122.823 +0.00 -0.00    +0.000 AC
DOCKED: ENDROOT
DOCKED: BRANCH   1  16
DOCKED: ATOM     19  C   UNL     1      38.081  14.314 123.026 -0.46 -0.00    +0.000 C 
DOCKED: BRANCH  16  17
DOCKED: ATOM     20  C   UNL     1      37.464  14.159 121.633 -0.40 -0.00    +0.000 C 
DOCKED: BRANCH  17  18
DOCKED: ATOM     21  C   UNL     1      37.025  12.712 121.381 -0.51 -0.00    +0.000 C 
DOCKED: BRANCH  18  19
DOCKED: ATOM     22  C   UNL     1      37.390  11.812 122.571 -0.44 -0.00    +0.000 C 
DOCKED: BRANCH  19  20
DOCKED: ATOM     23  C   UNL     1      36.278  10.806 122.902 -0.69 -0.00    +0.000 C 
DOCKED: BRANCH  20  22
DOCKED: ATOM     24  O   UNL     1      36.843   9.212 121.214 -2.67 -0.00    +0.000 OA
DOCKED: ATOM     25  C   UNL     1      36.624   9.421 122.437 -0.72 -0.00    +0.000 C 
DOCKED: ATOM     26  N   UNL     1      36.737   8.350 123.376 -0.69 -0.00    +0.000 N 
DOCKED: ATOM     27  O   UNL     1      37.065   7.105 122.959 -1.98 -0.00    +0.000 OA
DOCKED: ATOM     28  H   UNL     1      36.577   8.518 124.333 -0.36 -0.00    +0.000 HD
DOCKED: ENDBRANCH  20  22
DOCKED: ENDBRANCH  19  20
DOCKED: ENDBRANCH  18  19
DOCKED: ENDBRANCH  17  18
DOCKED: ENDBRANCH  16  17
DOCKED: ENDBRANCH   1  16
DOCKED: TORSDOF 6DOCKED: TER
DOCKED: ENDMDL
________________________________________________________________________________


	BEGINNING GENETIC ALGORITHM DOCKING 29 of 100
Run: 29 Seed: 1619962827 766349378 [ Run 29 of 100 GA/GALS ]
Beginning LAMARCKIAN GENETIC ALGORITHM (LGA), with a maximum of 2500000 energy evaluations.

Final-Value: -15.181


	FINAL GENETIC ALGORITHM DOCKED STATE
	_______________________________________________


Detailed state:  trans 38.006 15.283 121.892 quatxyzw 0.290081 -0.642095 -0.707556 -0.054151 center -0.023 0.069 -0.054 ntor 6 -161.3033 -151.1577 -179.7356 -75.2170 -24.1746 169.1976
State:	 38.006  15.283 121.892   0.291 -0.643 -0.709 -173.792   -161.30 -151.16 -179.74  -75.22  -24.17  169.20

DOCKED: MODEL       29
DOCKED: USER    Run = 29
DOCKED: USER    DPF = ligand_dock.biased.dpf
DOCKED: USER  
DOCKED: USER    Estimated Free Energy of Binding    =  -12.57 kcal/mol  [=(1)+(2)+(3)-(4)]
DOCKED: USER    Estimated Inhibition Constant, Ki   =  606.53 pM (picomolar)  [Temperature = 298.15 K]
DOCKED: USER    
DOCKED: USER    (1) Final Intermolecular Energy     =  -14.36 kcal/mol
DOCKED: USER        vdW + Hbond + desolv Energy     =  -14.36 kcal/mol
DOCKED: USER        Electrostatic Energy            =   +0.00 kcal/mol
DOCKED: USER    (2) Final Total Internal Energy     =   -0.82 kcal/mol
DOCKED: USER    (3) Torsional Free Energy           =   +1.79 kcal/mol
DOCKED: USER    (4) Unbound System's Energy  [=(2)] =   -0.82 kcal/mol
DOCKED: USER    
DOCKED: USER    
DOCKED: USER    NEWDPF move ligand.dum.pdbqt
DOCKED: USER    NEWDPF about -0.023000 0.069000 -0.054000
DOCKED: USER    NEWDPF tran0 38.005577 15.283331 121.892281
DOCKED: USER    NEWDPF quaternion0 0.290081 -0.642095 -0.707556 -0.054151
DOCKED: USER    NEWDPF axisangle0 0.290507 -0.643038 -0.708596 -173.791726
DOCKED: USER    NEWDPF quat0 0.290507 -0.643038 -0.708596 -173.791726
DOCKED: USER    NEWDPF dihe0 -161.30 -151.16 -179.74 -75.22 -24.17 169.20 
DOCKED: USER  keepresnum = 1 
DOCKED: USER  
DOCKED: REMARK  Name = 
DOCKED: REMARK  6 active torsions:
DOCKED: REMARK  status: ('A' for Active; 'I' for Inactive)
DOCKED: REMARK    1  A    between atoms: C_2  and  C_5
DOCKED: REMARK    2  A    between atoms: C_5  and  C_6
DOCKED: REMARK    3  A    between atoms: C_6  and  C_7
DOCKED: REMARK    4  A    between atoms: C_7  and  C_8
DOCKED: REMARK    5  A    between atoms: C_8  and  C_9
DOCKED: REMARK    6  A    between atoms: C_9  and  N_10
DOCKED: REMARK                            x       y       z     vdW  Elec       q    Type
DOCKED: REMARK                         _______ _______ _______ _____ _____    ______ ____
DOCKED: USER                              x       y       z     vdW  Elec       q    Type
DOCKED: USER                           _______ _______ _______ _____ _____    ______ ____
DOCKED: ROOT
DOCKED: ATOM      1  N   UNL     1      38.325  15.359 122.751 -0.33 -0.00    +0.000 N 
DOCKED: ATOM      2  C   UNL     1      39.624  15.021 122.230 -0.41 -0.00    +0.000 C 
DOCKED: ATOM      3  C   UNL     1      40.788  15.891 122.518 -0.36 -0.00    +0.000 A 
DOCKED: ATOM      4  C   UNL     1      42.067  15.555 122.041 -0.40 -0.00    +0.000 A 
DOCKED: ATOM      5  C   UNL     1      43.163  16.375 122.312 -0.35 -0.00    +0.000 A 
DOCKED: ATOM      6  C   UNL     1      43.003  17.541 123.060 -0.27 -0.00    +0.000 A 
DOCKED: ATOM      7  C   UNL     1      41.737  17.899 123.546 -0.27 -0.00    +0.000 A 
DOCKED: ATOM      8  C   UNL     1      41.575  19.072 124.296 -0.16 -0.00    +0.000 A 
DOCKED: ATOM      9  C   UNL     1      40.316  19.430 124.777 -0.14 -0.00    +0.000 A 
DOCKED: ATOM     10  C   UNL     1      39.207  18.622 124.517 -0.17 -0.00    +0.000 A 
DOCKED: ATOM     11  C   UNL     1      39.343  17.440 123.768 -0.21 -0.00    +0.000 A 
DOCKED: ATOM     12  C   UNL     1      40.616  17.071 123.277 -0.27 -0.00    +0.000 A 
DOCKED: ATOM     13  O   UNL     1      39.773  13.984 121.526 -0.84 -0.00    +0.000 OA
DOCKED: ATOM     14  C   UNL     1      38.167  16.584 123.492 -0.27 -0.00    +0.000 C 
DOCKED: ATOM     15  O   UNL     1      37.026  16.931 123.905 -0.30 -0.00    +0.000 OA
DOCKED: ATOM     16  CM  UNL     1      39.447  16.204 122.999 +0.00 -0.00    +0.000 AC
DOCKED: ATOM     17  CM  UNL     1      41.896  16.722 122.792 +0.00 -0.00    +0.000 AC
DOCKED: ATOM     18  CM  UNL     1      40.466  18.256 124.030 +0.00 -0.00    +0.000 AC
DOCKED: ENDROOT
DOCKED: BRANCH   1  16
DOCKED: ATOM     19  C   UNL     1      37.158  14.522 122.441 -0.43 -0.00    +0.000 C 
DOCKED: BRANCH  16  17
DOCKED: ATOM     20  C   UNL     1      37.116  13.306 123.372 -0.57 -0.00    +0.000 C 
DOCKED: BRANCH  17  18
DOCKED: ATOM     21  C   UNL     1      35.689  12.763 123.508 -0.51 -0.00    +0.000 C 
DOCKED: BRANCH  18  19
DOCKED: ATOM     22  C   UNL     1      35.517  11.465 122.704 -0.50 -0.00    +0.000 C 
DOCKED: BRANCH  19  20
DOCKED: ATOM     23  C   UNL     1      36.827  11.008 122.048 -0.60 -0.00    +0.000 C 
DOCKED: BRANCH  20  22
DOCKED: ATOM     24  O   UNL     1      37.065   8.848 121.054 -2.70 -0.00    +0.000 OA
DOCKED: ATOM     25  C   UNL     1      36.994   9.518 122.119 -0.63 -0.00    +0.000 C 
DOCKED: ATOM     26  N   UNL     1      37.106   8.861 123.384 -0.61 -0.00    +0.000 N 
DOCKED: ATOM     27  O   UNL     1      37.275   7.520 123.447 -2.50 -0.00    +0.000 OA
DOCKED: ATOM     28  H   UNL     1      37.062   9.388 124.214 -0.58 -0.00    +0.000 HD
DOCKED: ENDBRANCH  20  22
DOCKED: ENDBRANCH  19  20
DOCKED: ENDBRANCH  18  19
DOCKED: ENDBRANCH  17  18
DOCKED: ENDBRANCH  16  17
DOCKED: ENDBRANCH   1  16
DOCKED: TORSDOF 6DOCKED: TER
DOCKED: ENDMDL
________________________________________________________________________________


	BEGINNING GENETIC ALGORITHM DOCKING 30 of 100
Run: 30 Seed: 217402184 828099798 [ Run 30 of 100 GA/GALS ]
Beginning LAMARCKIAN GENETIC ALGORITHM (LGA), with a maximum of 2500000 energy evaluations.

Final-Value: -14.582


	FINAL GENETIC ALGORITHM DOCKED STATE
	_______________________________________________


Detailed state:  trans 38.211 14.949 121.330 quatxyzw 0.471667 -0.600691 -0.644806 -0.030438 center -0.023 0.069 -0.054 ntor 6 -60.4571 -124.5335 172.9100 82.7268 117.6969 -136.2663
State:	 38.211  14.949 121.330   0.472 -0.601 -0.645 -176.512    -60.46 -124.53  172.91   82.73  117.70 -136.27

DOCKED: MODEL       30
DOCKED: USER    Run = 30
DOCKED: USER    DPF = ligand_dock.biased.dpf
DOCKED: USER  
DOCKED: USER    Estimated Free Energy of Binding    =  -11.98 kcal/mol  [=(1)+(2)+(3)-(4)]
DOCKED: USER    Estimated Inhibition Constant, Ki   =    1.65 nM (nanomolar)  [Temperature = 298.15 K]
DOCKED: USER    
DOCKED: USER    (1) Final Intermolecular Energy     =  -13.77 kcal/mol
DOCKED: USER        vdW + Hbond + desolv Energy     =  -13.77 kcal/mol
DOCKED: USER        Electrostatic Energy            =   +0.00 kcal/mol
DOCKED: USER    (2) Final Total Internal Energy     =   -0.81 kcal/mol
DOCKED: USER    (3) Torsional Free Energy           =   +1.79 kcal/mol
DOCKED: USER    (4) Unbound System's Energy  [=(2)] =   -0.81 kcal/mol
DOCKED: USER    
DOCKED: USER    
DOCKED: USER    NEWDPF move ligand.dum.pdbqt
DOCKED: USER    NEWDPF about -0.023000 0.069000 -0.054000
DOCKED: USER    NEWDPF tran0 38.211454 14.949181 121.329532
DOCKED: USER    NEWDPF quaternion0 0.471667 -0.600691 -0.644806 -0.030438
DOCKED: USER    NEWDPF axisangle0 0.471886 -0.600969 -0.645104 -176.511517
DOCKED: USER    NEWDPF quat0 0.471886 -0.600969 -0.645104 -176.511517
DOCKED: USER    NEWDPF dihe0 -60.46 -124.53 172.91 82.73 117.70 -136.27 
DOCKED: USER  keepresnum = 1 
DOCKED: USER  
DOCKED: REMARK  Name = 
DOCKED: REMARK  6 active torsions:
DOCKED: REMARK  status: ('A' for Active; 'I' for Inactive)
DOCKED: REMARK    1  A    between atoms: C_2  and  C_5
DOCKED: REMARK    2  A    between atoms: C_5  and  C_6
DOCKED: REMARK    3  A    between atoms: C_6  and  C_7
DOCKED: REMARK    4  A    between atoms: C_7  and  C_8
DOCKED: REMARK    5  A    between atoms: C_8  and  C_9
DOCKED: REMARK    6  A    between atoms: C_9  and  N_10
DOCKED: REMARK                            x       y       z     vdW  Elec       q    Type
DOCKED: REMARK                         _______ _______ _______ _____ _____    ______ ____
DOCKED: USER                              x       y       z     vdW  Elec       q    Type
DOCKED: USER                           _______ _______ _______ _____ _____    ______ ____
DOCKED: ROOT
DOCKED: ATOM      1  N   UNL     1      38.221  15.053 122.243 -0.32 -0.00    +0.000 N 
DOCKED: ATOM      2  C   UNL     1      39.659  15.040 122.166 -0.41 -0.00    +0.000 C 
DOCKED: ATOM      3  C   UNL     1      40.444  16.134 122.783 -0.30 -0.00    +0.000 A 
DOCKED: ATOM      4  C   UNL     1      41.850  16.117 122.741 -0.41 -0.00    +0.000 A 
DOCKED: ATOM      5  C   UNL     1      42.590  17.148 123.321 -0.32 -0.00    +0.000 A 
DOCKED: ATOM      6  C   UNL     1      41.943  18.211 123.951 -0.14 -0.00    +0.000 A 
DOCKED: ATOM      7  C   UNL     1      40.542  18.252 124.005 -0.23 -0.00    +0.000 A 
DOCKED: ATOM      8  C   UNL     1      39.892  19.321 124.636 -0.13 -0.00    +0.000 A 
DOCKED: ATOM      9  C   UNL     1      38.499  19.365 124.687 -0.11 -0.00    +0.000 A 
DOCKED: ATOM     10  C   UNL     1      37.741  18.343 124.113 -0.16 -0.00    +0.000 A 
DOCKED: ATOM     11  C   UNL     1      38.369  17.258 123.475 -0.20 -0.00    +0.000 A 
DOCKED: ATOM     12  C   UNL     1      39.781  17.208 123.418 -0.23 -0.00    +0.000 A 
DOCKED: ATOM     13  O   UNL     1      40.252  14.098 121.571 -0.91 -0.00    +0.000 OA
DOCKED: ATOM     14  C   UNL     1      37.565  16.175 122.865 -0.30 -0.00    +0.000 C 
DOCKED: ATOM     15  O   UNL     1      36.305  16.237 122.890 -0.32 -0.00    +0.000 OA
DOCKED: ATOM     16  CM  UNL     1      38.986  16.115 122.809 +0.00 -0.00    +0.000 AC
DOCKED: ATOM     17  CM  UNL     1      41.192  17.178 123.370 +0.00 -0.00    +0.000 AC
DOCKED: ATOM     18  CM  UNL     1      39.137  18.292 124.056 +0.00 -0.00    +0.000 AC
DOCKED: ENDROOT
DOCKED: BRANCH   1  16
DOCKED: ATOM     19  C   UNL     1      37.432  13.992 121.603 -0.42 -0.00    +0.000 C 
DOCKED: BRANCH  16  17
DOCKED: ATOM     20  C   UNL     1      36.313  13.526 122.541 -0.38 -0.00    +0.000 C 
DOCKED: BRANCH  17  18
DOCKED: ATOM     21  C   UNL     1      36.887  12.921 123.827 -0.51 -0.00    +0.000 C 
DOCKED: BRANCH  18  19
DOCKED: ATOM     22  C   UNL     1      36.952  11.389 123.733 -0.65 -0.00    +0.000 C 
DOCKED: BRANCH  19  20
DOCKED: ATOM     23  C   UNL     1      36.342  10.860 122.427 -0.67 -0.00    +0.000 C 
DOCKED: BRANCH  20  22
DOCKED: ATOM     24  O   UNL     1      36.959   9.022 121.031 -2.69 -0.00    +0.000 OA
DOCKED: ATOM     25  C   UNL     1      36.686   9.418 122.196 -0.71 -0.00    +0.000 C 
DOCKED: ATOM     26  N   UNL     1      36.738   8.501 123.291 -0.68 -0.00    +0.000 N 
DOCKED: ATOM     27  O   UNL     1      37.066   7.205 123.085 -2.18 -0.00    +0.000 OA
DOCKED: ATOM     28  H   UNL     1      36.536   8.815 124.202 -0.40 -0.00    +0.000 HD
DOCKED: ENDBRANCH  20  22
DOCKED: ENDBRANCH  19  20
DOCKED: ENDBRANCH  18  19
DOCKED: ENDBRANCH  17  18
DOCKED: ENDBRANCH  16  17
DOCKED: ENDBRANCH   1  16
DOCKED: TORSDOF 6DOCKED: TER
DOCKED: ENDMDL
________________________________________________________________________________


	BEGINNING GENETIC ALGORITHM DOCKING 31 of 100
Run: 31 Seed: 2016076475 576771049 [ Run 31 of 100 GA/GALS ]
Beginning LAMARCKIAN GENETIC ALGORITHM (LGA), with a maximum of 2500000 energy evaluations.

Final-Value: -13.936


	FINAL GENETIC ALGORITHM DOCKED STATE
	_______________________________________________


Detailed state:  trans 36.693 15.645 124.851 quatxyzw 0.524897 -0.356407 0.364982 0.681355 center -0.023 0.069 -0.054 ntor 6 -163.6979 -169.3872 -88.9239 34.3141 45.4335 135.0901
State:	 36.693  15.645 124.851   0.717 -0.487  0.499 94.101   -163.70 -169.39  -88.92   34.31   45.43  135.09

DOCKED: MODEL       31
DOCKED: USER    Run = 31
DOCKED: USER    DPF = ligand_dock.biased.dpf
DOCKED: USER  
DOCKED: USER    Estimated Free Energy of Binding    =  -11.61 kcal/mol  [=(1)+(2)+(3)-(4)]
DOCKED: USER    Estimated Inhibition Constant, Ki   =    3.08 nM (nanomolar)  [Temperature = 298.15 K]
DOCKED: USER    
DOCKED: USER    (1) Final Intermolecular Energy     =  -13.40 kcal/mol
DOCKED: USER        vdW + Hbond + desolv Energy     =  -13.40 kcal/mol
DOCKED: USER        Electrostatic Energy            =   +0.00 kcal/mol
DOCKED: USER    (2) Final Total Internal Energy     =   -0.53 kcal/mol
DOCKED: USER    (3) Torsional Free Energy           =   +1.79 kcal/mol
DOCKED: USER    (4) Unbound System's Energy  [=(2)] =   -0.53 kcal/mol
DOCKED: USER    
DOCKED: USER    
DOCKED: USER    NEWDPF move ligand.dum.pdbqt
DOCKED: USER    NEWDPF about -0.023000 0.069000 -0.054000
DOCKED: USER    NEWDPF tran0 36.693412 15.645140 124.850826
DOCKED: USER    NEWDPF quaternion0 0.524897 -0.356407 0.364982 0.681355
DOCKED: USER    NEWDPF axisangle0 0.717119 -0.486927 0.498641 94.100716
DOCKED: USER    NEWDPF quat0 0.717119 -0.486927 0.498641 94.100716
DOCKED: USER    NEWDPF dihe0 -163.70 -169.39 -88.92 34.31 45.43 135.09 
DOCKED: USER  keepresnum = 1 
DOCKED: USER  
DOCKED: REMARK  Name = 
DOCKED: REMARK  6 active torsions:
DOCKED: REMARK  status: ('A' for Active; 'I' for Inactive)
DOCKED: REMARK    1  A    between atoms: C_2  and  C_5
DOCKED: REMARK    2  A    between atoms: C_5  and  C_6
DOCKED: REMARK    3  A    between atoms: C_6  and  C_7
DOCKED: REMARK    4  A    between atoms: C_7  and  C_8
DOCKED: REMARK    5  A    between atoms: C_8  and  C_9
DOCKED: REMARK    6  A    between atoms: C_9  and  N_10
DOCKED: REMARK                            x       y       z     vdW  Elec       q    Type
DOCKED: REMARK                         _______ _______ _______ _____ _____    ______ ____
DOCKED: USER                              x       y       z     vdW  Elec       q    Type
DOCKED: USER                           _______ _______ _______ _____ _____    ______ ____
DOCKED: ROOT
DOCKED: ATOM      1  N   UNL     1      36.426  16.251 124.213 -0.32 -0.00    +0.000 N 
DOCKED: ATOM      2  C   UNL     1      35.166  16.329 124.906 -0.34 -0.00    +0.000 C 
DOCKED: ATOM      3  C   UNL     1      34.623  17.647 125.310 -0.34 -0.00    +0.000 A 
DOCKED: ATOM      4  C   UNL     1      33.380  17.738 125.960 -0.24 -0.00    +0.000 A 
DOCKED: ATOM      5  C   UNL     1      32.869  18.980 126.342 -0.25 -0.00    +0.000 A 
DOCKED: ATOM      6  C   UNL     1      33.587  20.146 126.084 -0.16 -0.00    +0.000 A 
DOCKED: ATOM      7  C   UNL     1      34.830  20.082 125.439 -0.16 -0.00    +0.000 A 
DOCKED: ATOM      8  C   UNL     1      35.554  21.254 125.181 -0.14 -0.00    +0.000 A 
DOCKED: ATOM      9  C   UNL     1      36.792  21.190 124.543 -0.10 -0.00    +0.000 A 
DOCKED: ATOM     10  C   UNL     1      37.320  19.958 124.152 -0.10 -0.00    +0.000 A 
DOCKED: ATOM     11  C   UNL     1      36.613  18.767 124.398 -0.17 -0.00    +0.000 A 
DOCKED: ATOM     12  C   UNL     1      35.358  18.824 125.045 -0.22 -0.00    +0.000 A 
DOCKED: ATOM     13  O   UNL     1      34.524  15.275 125.171 -0.62 -0.00    +0.000 OA
DOCKED: ATOM     14  C   UNL     1      37.174  17.461 123.984 -0.24 -0.00    +0.000 C 
DOCKED: ATOM     15  O   UNL     1      38.309  17.409 123.434 -0.23 -0.00    +0.000 OA
DOCKED: ATOM     16  CM  UNL     1      35.908  17.512 124.631 -0.20 -0.00    +0.000 AC
DOCKED: ATOM     17  CM  UNL     1      34.108  18.903 125.697 -0.10 -0.00    +0.000 AC
DOCKED: ATOM     18  CM  UNL     1      36.078  20.013 124.793 -0.00 -0.00    +0.000 AC
DOCKED: ENDROOT
DOCKED: BRANCH   1  16
DOCKED: ATOM     19  C   UNL     1      36.991  14.947 123.839 -0.29 -0.00    +0.000 C 
DOCKED: BRANCH  16  17
DOCKED: ATOM     20  C   UNL     1      35.920  14.078 123.171 -0.45 -0.00    +0.000 C 
DOCKED: BRANCH  17  18
DOCKED: ATOM     21  C   UNL     1      35.940  12.650 123.728 -0.62 -0.00    +0.000 C 
DOCKED: BRANCH  18  19
DOCKED: ATOM     22  C   UNL     1      35.591  11.630 122.634 -0.44 -0.00    +0.000 C 
DOCKED: BRANCH  19  20
DOCKED: ATOM     23  C   UNL     1      36.842  11.054 121.955 -0.59 -0.00    +0.000 C 
DOCKED: BRANCH  20  22
DOCKED: ATOM     24  O   UNL     1      36.843   8.848 121.035 -2.65 -0.00    +0.000 OA
DOCKED: ATOM     25  C   UNL     1      36.902   9.559 122.075 -0.64 -0.00    +0.000 C 
DOCKED: ATOM     26  N   UNL     1      37.060   8.941 123.354 -0.62 -0.00    +0.000 N 
DOCKED: ATOM     27  O   UNL     1      37.131   7.594 123.460 -2.59 -0.00    +0.000 OA
DOCKED: ATOM     28  H   UNL     1      37.117   9.499 124.163 -0.58 -0.00    +0.000 HD
DOCKED: ENDBRANCH  20  22
DOCKED: ENDBRANCH  19  20
DOCKED: ENDBRANCH  18  19
DOCKED: ENDBRANCH  17  18
DOCKED: ENDBRANCH  16  17
DOCKED: ENDBRANCH   1  16
DOCKED: TORSDOF 6DOCKED: TER
DOCKED: ENDMDL
________________________________________________________________________________


	BEGINNING GENETIC ALGORITHM DOCKING 32 of 100
Run: 32 Seed: 603996396 1282849481 [ Run 32 of 100 GA/GALS ]
Beginning LAMARCKIAN GENETIC ALGORITHM (LGA), with a maximum of 2500000 energy evaluations.

Final-Value: -14.194


	FINAL GENETIC ALGORITHM DOCKED STATE
	_______________________________________________


Detailed state:  trans 37.006 15.473 122.776 quatxyzw -0.115299 0.455949 -0.406391 -0.783366 center -0.023 0.069 -0.054 ntor 6 -48.2750 -128.5427 80.5768 -13.7065 -119.8923 -7.1933
State:	 37.006  15.473 122.776  -0.185  0.734 -0.654 -76.860    -48.28 -128.54   80.58  -13.71 -119.89   -7.19

DOCKED: MODEL       32
DOCKED: USER    Run = 32
DOCKED: USER    DPF = ligand_dock.biased.dpf
DOCKED: USER  
DOCKED: USER    Estimated Free Energy of Binding    =  -11.60 kcal/mol  [=(1)+(2)+(3)-(4)]
DOCKED: USER    Estimated Inhibition Constant, Ki   =    3.13 nM (nanomolar)  [Temperature = 298.15 K]
DOCKED: USER    
DOCKED: USER    (1) Final Intermolecular Energy     =  -13.39 kcal/mol
DOCKED: USER        vdW + Hbond + desolv Energy     =  -13.39 kcal/mol
DOCKED: USER        Electrostatic Energy            =   +0.00 kcal/mol
DOCKED: USER    (2) Final Total Internal Energy     =   -0.80 kcal/mol
DOCKED: USER    (3) Torsional Free Energy           =   +1.79 kcal/mol
DOCKED: USER    (4) Unbound System's Energy  [=(2)] =   -0.80 kcal/mol
DOCKED: USER    
DOCKED: USER    
DOCKED: USER    NEWDPF move ligand.dum.pdbqt
DOCKED: USER    NEWDPF about -0.023000 0.069000 -0.054000
DOCKED: USER    NEWDPF tran0 37.006340 15.472708 122.775956
DOCKED: USER    NEWDPF quaternion0 -0.115299 0.455949 -0.406391 -0.783366
DOCKED: USER    NEWDPF axisangle0 -0.185500 0.733556 -0.653823 -76.860333
DOCKED: USER    NEWDPF quat0 -0.185500 0.733556 -0.653823 -76.860333
DOCKED: USER    NEWDPF dihe0 -48.28 -128.54 80.58 -13.71 -119.89 -7.19 
DOCKED: USER  keepresnum = 1 
DOCKED: USER  
DOCKED: REMARK  Name = 
DOCKED: REMARK  6 active torsions:
DOCKED: REMARK  status: ('A' for Active; 'I' for Inactive)
DOCKED: REMARK    1  A    between atoms: C_2  and  C_5
DOCKED: REMARK    2  A    between atoms: C_5  and  C_6
DOCKED: REMARK    3  A    between atoms: C_6  and  C_7
DOCKED: REMARK    4  A    between atoms: C_7  and  C_8
DOCKED: REMARK    5  A    between atoms: C_8  and  C_9
DOCKED: REMARK    6  A    between atoms: C_9  and  N_10
DOCKED: REMARK                            x       y       z     vdW  Elec       q    Type
DOCKED: REMARK                         _______ _______ _______ _____ _____    ______ ____
DOCKED: USER                              x       y       z     vdW  Elec       q    Type
DOCKED: USER                           _______ _______ _______ _____ _____    ______ ____
DOCKED: ROOT
DOCKED: ATOM      1  N   UNL     1      37.163  16.377 122.712 -0.24 -0.00    +0.000 N 
DOCKED: ATOM      2  C   UNL     1      35.793  16.578 123.108 -0.36 -0.00    +0.000 C 
DOCKED: ATOM      3  C   UNL     1      35.475  17.472 124.245 -0.30 -0.00    +0.000 A 
DOCKED: ATOM      4  C   UNL     1      34.140  17.701 124.622 -0.37 -0.00    +0.000 A 
DOCKED: ATOM      5  C   UNL     1      33.840  18.543 125.694 -0.30 -0.00    +0.000 A 
DOCKED: ATOM      6  C   UNL     1      34.862  19.168 126.406 -0.18 -0.00    +0.000 A 
DOCKED: ATOM      7  C   UNL     1      36.202  18.955 126.051 -0.16 -0.00    +0.000 A 
DOCKED: ATOM      8  C   UNL     1      37.231  19.582 126.768 -0.11 -0.00    +0.000 A 
DOCKED: ATOM      9  C   UNL     1      38.563  19.367 126.417 -0.14 -0.00    +0.000 A 
DOCKED: ATOM     10  C   UNL     1      38.884  18.529 125.348 -0.17 -0.00    +0.000 A 
DOCKED: ATOM     11  C   UNL     1      37.871  17.890 124.612 -0.13 -0.00    +0.000 A 
DOCKED: ATOM     12  C   UNL     1      36.518  18.102 124.962 -0.18 -0.00    +0.000 A 
DOCKED: ATOM     13  O   UNL     1      34.863  15.992 122.488 -0.25 -0.00    +0.000 OA
DOCKED: ATOM     14  C   UNL     1      38.211  17.000 123.478 -0.25 -0.00    +0.000 C 
DOCKED: ATOM     15  O   UNL     1      39.421  16.788 123.186 -0.28 -0.00    +0.000 OA
DOCKED: ATOM     16  CM  UNL     1      36.847  17.213 123.822 -0.01 -0.00    +0.000 AC
DOCKED: ATOM     17  CM  UNL     1      35.173  18.324 125.330 -0.36 -0.00    +0.000 AC
DOCKED: ATOM     18  CM  UNL     1      37.545  18.738 125.693 +0.00 -0.00    +0.000 AC
DOCKED: ENDROOT
DOCKED: BRANCH   1  16
DOCKED: ATOM     19  C   UNL     1      37.492  15.463 121.608 -0.28 -0.00    +0.000 C 
DOCKED: BRANCH  16  17
DOCKED: ATOM     20  C   UNL     1      37.835  14.074 122.155 -0.46 -0.00    +0.000 C 
DOCKED: BRANCH  17  18
DOCKED: ATOM     21  C   UNL     1      36.655  13.480 122.933 -0.56 -0.00    +0.000 C 
DOCKED: BRANCH  18  19
DOCKED: ATOM     22  C   UNL     1      36.867  11.981 123.193 -0.67 -0.00    +0.000 C 
DOCKED: BRANCH  19  20
DOCKED: ATOM     23  C   UNL     1      36.162  11.104 122.149 -0.62 -0.00    +0.000 C 
DOCKED: BRANCH  20  22
DOCKED: ATOM     24  O   UNL     1      37.066   9.175 121.068 -2.73 -0.00    +0.000 OA
DOCKED: ATOM     25  C   UNL     1      36.693   9.700 122.151 -0.69 -0.00    +0.000 C 
DOCKED: ATOM     26  N   UNL     1      36.808   8.971 123.375 -0.60 -0.00    +0.000 N 
DOCKED: ATOM     27  O   UNL     1      37.303   7.712 123.378 -2.58 -0.00    +0.000 OA
DOCKED: ATOM     28  H   UNL     1      36.527   9.389 124.221 -0.41 -0.00    +0.000 HD
DOCKED: ENDBRANCH  20  22
DOCKED: ENDBRANCH  19  20
DOCKED: ENDBRANCH  18  19
DOCKED: ENDBRANCH  17  18
DOCKED: ENDBRANCH  16  17
DOCKED: ENDBRANCH   1  16
DOCKED: TORSDOF 6DOCKED: TER
DOCKED: ENDMDL
________________________________________________________________________________


	BEGINNING GENETIC ALGORITHM DOCKING 33 of 100
Run: 33 Seed: 980426451 458240193 [ Run 33 of 100 GA/GALS ]
Beginning LAMARCKIAN GENETIC ALGORITHM (LGA), with a maximum of 2500000 energy evaluations.

Final-Value: -14.711


	FINAL GENETIC ALGORITHM DOCKED STATE
	_______________________________________________


Detailed state:  trans 36.798 15.006 122.232 quatxyzw 0.622022 -0.239662 -0.575081 -0.474271 center -0.023 0.069 -0.054 ntor 6 53.4584 -103.2841 151.6503 -91.8949 -30.4318 13.3308
State:	 36.798  15.006 122.232   0.707 -0.272 -0.653 -123.376     53.46 -103.28  151.65  -91.89  -30.43   13.33

DOCKED: MODEL       33
DOCKED: USER    Run = 33
DOCKED: USER    DPF = ligand_dock.biased.dpf
DOCKED: USER  
DOCKED: USER    Estimated Free Energy of Binding    =  -12.22 kcal/mol  [=(1)+(2)+(3)-(4)]
DOCKED: USER    Estimated Inhibition Constant, Ki   =    1.10 nM (nanomolar)  [Temperature = 298.15 K]
DOCKED: USER    
DOCKED: USER    (1) Final Intermolecular Energy     =  -14.01 kcal/mol
DOCKED: USER        vdW + Hbond + desolv Energy     =  -14.01 kcal/mol
DOCKED: USER        Electrostatic Energy            =   +0.00 kcal/mol
DOCKED: USER    (2) Final Total Internal Energy     =   -0.70 kcal/mol
DOCKED: USER    (3) Torsional Free Energy           =   +1.79 kcal/mol
DOCKED: USER    (4) Unbound System's Energy  [=(2)] =   -0.70 kcal/mol
DOCKED: USER    
DOCKED: USER    
DOCKED: USER    NEWDPF move ligand.dum.pdbqt
DOCKED: USER    NEWDPF about -0.023000 0.069000 -0.054000
DOCKED: USER    NEWDPF tran0 36.797687 15.006413 122.231555
DOCKED: USER    NEWDPF quaternion0 0.622022 -0.239662 -0.575081 -0.474271
DOCKED: USER    NEWDPF axisangle0 0.706539 -0.272226 -0.653220 -123.376189
DOCKED: USER    NEWDPF quat0 0.706539 -0.272226 -0.653220 -123.376189
DOCKED: USER    NEWDPF dihe0 53.46 -103.28 151.65 -91.89 -30.43 13.33 
DOCKED: USER  keepresnum = 1 
DOCKED: USER  
DOCKED: REMARK  Name = 
DOCKED: REMARK  6 active torsions:
DOCKED: REMARK  status: ('A' for Active; 'I' for Inactive)
DOCKED: REMARK    1  A    between atoms: C_2  and  C_5
DOCKED: REMARK    2  A    between atoms: C_5  and  C_6
DOCKED: REMARK    3  A    between atoms: C_6  and  C_7
DOCKED: REMARK    4  A    between atoms: C_7  and  C_8
DOCKED: REMARK    5  A    between atoms: C_8  and  C_9
DOCKED: REMARK    6  A    between atoms: C_9  and  N_10
DOCKED: REMARK                            x       y       z     vdW  Elec       q    Type
DOCKED: REMARK                         _______ _______ _______ _____ _____    ______ ____
DOCKED: USER                              x       y       z     vdW  Elec       q    Type
DOCKED: USER                           _______ _______ _______ _____ _____    ______ ____
DOCKED: ROOT
DOCKED: ATOM      1  N   UNL     1      36.915  15.226 123.117 -0.38 -0.00    +0.000 N 
DOCKED: ATOM      2  C   UNL     1      37.418  16.499 122.670 -0.26 -0.00    +0.000 C 
DOCKED: ATOM      3  C   UNL     1      36.844  17.753 123.209 -0.19 -0.00    +0.000 A 
DOCKED: ATOM      4  C   UNL     1      37.347  19.002 122.804 -0.11 -0.00    +0.000 A 
DOCKED: ATOM      5  C   UNL     1      36.806  20.184 123.311 -0.13 -0.00    +0.000 A 
DOCKED: ATOM      6  C   UNL     1      35.756  20.141 124.228 -0.15 -0.00    +0.000 A 
DOCKED: ATOM      7  C   UNL     1      35.236  18.908 124.648 -0.23 -0.00    +0.000 A 
DOCKED: ATOM      8  C   UNL     1      34.179  18.865 125.568 -0.27 -0.00    +0.000 A 
DOCKED: ATOM      9  C   UNL     1      33.659  17.639 125.983 -0.33 -0.00    +0.000 A 
DOCKED: ATOM     10  C   UNL     1      34.187  16.446 125.487 -0.39 -0.00    +0.000 A 
DOCKED: ATOM     11  C   UNL     1      35.248  16.462 124.564 -0.38 -0.00    +0.000 A 
DOCKED: ATOM     12  C   UNL     1      35.780  17.700 124.138 -0.26 -0.00    +0.000 A 
DOCKED: ATOM     13  O   UNL     1      38.347  16.547 121.816 -0.18 -0.00    +0.000 OA
DOCKED: ATOM     14  C   UNL     1      35.807  15.196 124.038 -0.48 -0.00    +0.000 C 
DOCKED: ATOM     15  O   UNL     1      35.311  14.092 124.395 -0.55 -0.00    +0.000 OA
DOCKED: ATOM     16  CM  UNL     1      36.351  16.439 123.609 -0.00 -0.00    +0.000 AC
DOCKED: ATOM     17  CM  UNL     1      36.295  18.948 123.723 -0.01 -0.00    +0.000 AC
DOCKED: ATOM     18  CM  UNL     1      34.714  17.670 125.065 -0.46 -0.00    +0.000 AC
DOCKED: ENDROOT
DOCKED: BRANCH   1  16
DOCKED: ATOM     19  C   UNL     1      37.453  13.976 122.561 -0.49 -0.00    +0.000 C 
DOCKED: BRANCH  16  17
DOCKED: ATOM     20  C   UNL     1      36.929  13.761 121.138 -0.26 -0.00    +0.000 C 
DOCKED: BRANCH  17  18
DOCKED: ATOM     21  C   UNL     1      37.946  12.994 120.285 -0.45 -0.00    +0.000 C 
DOCKED: BRANCH  18  19
DOCKED: ATOM     22  C   UNL     1      37.740  11.478 120.416 -0.37 -0.00    +0.000 C 
DOCKED: BRANCH  19  20
DOCKED: ATOM     23  C   UNL     1      37.067  11.094 121.741 -0.53 -0.00    +0.000 C 
DOCKED: BRANCH  20  22
DOCKED: ATOM     24  O   UNL     1      37.059   8.841 120.946 -2.71 -0.00    +0.000 OA
DOCKED: ATOM     25  C   UNL     1      37.047   9.607 121.946 -0.60 -0.00    +0.000 C 
DOCKED: ATOM     26  N   UNL     1      37.048   9.059 123.267 -0.63 -0.00    +0.000 N 
DOCKED: ATOM     27  O   UNL     1      37.048   7.718 123.451 -2.69 -0.00    +0.000 OA
DOCKED: ATOM     28  H   UNL     1      37.051   9.660 124.046 -0.53 -0.00    +0.000 HD
DOCKED: ENDBRANCH  20  22
DOCKED: ENDBRANCH  19  20
DOCKED: ENDBRANCH  18  19
DOCKED: ENDBRANCH  17  18
DOCKED: ENDBRANCH  16  17
DOCKED: ENDBRANCH   1  16
DOCKED: TORSDOF 6DOCKED: TER
DOCKED: ENDMDL
________________________________________________________________________________


	BEGINNING GENETIC ALGORITHM DOCKING 34 of 100
Run: 34 Seed: 1998865422 824453268 [ Run 34 of 100 GA/GALS ]
Beginning LAMARCKIAN GENETIC ALGORITHM (LGA), with a maximum of 2500000 energy evaluations.

Final-Value: -14.216


	FINAL GENETIC ALGORITHM DOCKED STATE
	_______________________________________________


Detailed state:  trans 38.599 14.497 123.343 quatxyzw -0.310973 0.464856 -0.649795 -0.514753 center -0.023 0.069 -0.054 ntor 6 -8.4777 179.6952 11.2868 176.9181 31.9018 166.3936
State:	 38.599  14.497 123.343  -0.363  0.542 -0.758 -118.038     -8.48  179.70   11.29  176.92   31.90  166.39

DOCKED: MODEL       34
DOCKED: USER    Run = 34
DOCKED: USER    DPF = ligand_dock.biased.dpf
DOCKED: USER  
DOCKED: USER    Estimated Free Energy of Binding    =  -11.62 kcal/mol  [=(1)+(2)+(3)-(4)]
DOCKED: USER    Estimated Inhibition Constant, Ki   =    3.02 nM (nanomolar)  [Temperature = 298.15 K]
DOCKED: USER    
DOCKED: USER    (1) Final Intermolecular Energy     =  -13.41 kcal/mol
DOCKED: USER        vdW + Hbond + desolv Energy     =  -13.41 kcal/mol
DOCKED: USER        Electrostatic Energy            =   +0.00 kcal/mol
DOCKED: USER    (2) Final Total Internal Energy     =   -0.80 kcal/mol
DOCKED: USER    (3) Torsional Free Energy           =   +1.79 kcal/mol
DOCKED: USER    (4) Unbound System's Energy  [=(2)] =   -0.80 kcal/mol
DOCKED: USER    
DOCKED: USER    
DOCKED: USER    NEWDPF move ligand.dum.pdbqt
DOCKED: USER    NEWDPF about -0.023000 0.069000 -0.054000
DOCKED: USER    NEWDPF tran0 38.598910 14.497103 123.342690
DOCKED: USER    NEWDPF quaternion0 -0.310973 0.464856 -0.649795 -0.514753
DOCKED: USER    NEWDPF axisangle0 -0.362719 0.542208 -0.757922 -118.038059
DOCKED: USER    NEWDPF quat0 -0.362719 0.542208 -0.757922 -118.038059
DOCKED: USER    NEWDPF dihe0 -8.48 179.70 11.29 176.92 31.90 166.39 
DOCKED: USER  keepresnum = 1 
DOCKED: USER  
DOCKED: REMARK  Name = 
DOCKED: REMARK  6 active torsions:
DOCKED: REMARK  status: ('A' for Active; 'I' for Inactive)
DOCKED: REMARK    1  A    between atoms: C_2  and  C_5
DOCKED: REMARK    2  A    between atoms: C_5  and  C_6
DOCKED: REMARK    3  A    between atoms: C_6  and  C_7
DOCKED: REMARK    4  A    between atoms: C_7  and  C_8
DOCKED: REMARK    5  A    between atoms: C_8  and  C_9
DOCKED: REMARK    6  A    between atoms: C_9  and  N_10
DOCKED: REMARK                            x       y       z     vdW  Elec       q    Type
DOCKED: REMARK                         _______ _______ _______ _____ _____    ______ ____
DOCKED: USER                              x       y       z     vdW  Elec       q    Type
DOCKED: USER                           _______ _______ _______ _____ _____    ______ ____
DOCKED: ROOT
DOCKED: ATOM      1  N   UNL     1      38.957  15.060 122.709 -0.37 -0.00    +0.000 N 
DOCKED: ATOM      2  C   UNL     1      38.036  16.065 123.174 -0.30 -0.00    +0.000 C 
DOCKED: ATOM      3  C   UNL     1      38.536  17.404 123.564 -0.20 -0.00    +0.000 A 
DOCKED: ATOM      4  C   UNL     1      37.644  18.404 123.989 -0.16 -0.00    +0.000 A 
DOCKED: ATOM      5  C   UNL     1      38.115  19.665 124.357 -0.09 -0.00    +0.000 A 
DOCKED: ATOM      6  C   UNL     1      39.479  19.949 124.308 -0.07 -0.00    +0.000 A 
DOCKED: ATOM      7  C   UNL     1      40.390  18.969 123.888 -0.14 -0.00    +0.000 A 
DOCKED: ATOM      8  C   UNL     1      41.761  19.254 123.840 -0.14 -0.00    +0.000 A 
DOCKED: ATOM      9  C   UNL     1      42.667  18.278 123.426 -0.03 -0.00    +0.000 A 
DOCKED: ATOM     10  C   UNL     1      42.216  17.010 123.054 -0.35 -0.00    +0.000 A 
DOCKED: ATOM     11  C   UNL     1      40.845  16.700 123.091 -0.30 -0.00    +0.000 A 
DOCKED: ATOM     12  C   UNL     1      39.921  17.683 123.511 -0.21 -0.00    +0.000 A 
DOCKED: ATOM     13  O   UNL     1      36.803  15.807 123.251 -0.37 -0.00    +0.000 OA
DOCKED: ATOM     14  C   UNL     1      40.367  15.355 122.697 -0.41 -0.00    +0.000 C 
DOCKED: ATOM     15  O   UNL     1      41.196  14.468 122.352 -1.10 -0.00    +0.000 OA
DOCKED: ATOM     16  CM  UNL     1      39.430  16.343 123.113 +0.00 -0.00    +0.000 AC
DOCKED: ATOM     17  CM  UNL     1      39.014  18.679 123.936 +0.00 -0.00    +0.000 AC
DOCKED: ATOM     18  CM  UNL     1      41.300  17.982 123.468 +0.00 -0.00    +0.000 AC
DOCKED: ENDROOT
DOCKED: BRANCH   1  16
DOCKED: ATOM     19  C   UNL     1      38.476  13.717 122.355 -0.37 -0.00    +0.000 C 
DOCKED: BRANCH  16  17
DOCKED: ATOM     20  C   UNL     1      37.837  13.734 120.962 -0.42 -0.00    +0.000 C 
DOCKED: BRANCH  17  18
DOCKED: ATOM     21  C   UNL     1      36.701  12.711 120.863 -0.42 -0.00    +0.000 C 
DOCKED: BRANCH  18  19
DOCKED: ATOM     22  C   UNL     1      36.568  11.909 122.167 -0.60 -0.00    +0.000 C 
DOCKED: BRANCH  19  20
DOCKED: ATOM     23  C   UNL     1      35.699  10.656 121.993 -0.47 -0.00    +0.000 C 
DOCKED: BRANCH  20  22
DOCKED: ATOM     24  O   UNL     1      37.044   8.913 121.063 -2.70 -0.00    +0.000 OA
DOCKED: ATOM     25  C   UNL     1      36.509   9.397 122.097 -0.69 -0.00    +0.000 C 
DOCKED: ATOM     26  N   UNL     1      36.705   8.764 123.364 -0.62 -0.00    +0.000 N 
DOCKED: ATOM     27  O   UNL     1      37.449   7.638 123.459 -2.53 -0.00    +0.000 OA
DOCKED: ATOM     28  H   UNL     1      36.296   9.150 124.172 -0.34 -0.00    +0.000 HD
DOCKED: ENDBRANCH  20  22
DOCKED: ENDBRANCH  19  20
DOCKED: ENDBRANCH  18  19
DOCKED: ENDBRANCH  17  18
DOCKED: ENDBRANCH  16  17
DOCKED: ENDBRANCH   1  16
DOCKED: TORSDOF 6DOCKED: TER
DOCKED: ENDMDL
________________________________________________________________________________


	BEGINNING GENETIC ALGORITHM DOCKING 35 of 100
Run: 35 Seed: 660888085 1032449993 [ Run 35 of 100 GA/GALS ]
Beginning LAMARCKIAN GENETIC ALGORITHM (LGA), with a maximum of 2500000 energy evaluations.

Final-Value: -14.296


	FINAL GENETIC ALGORITHM DOCKED STATE
	_______________________________________________


Detailed state:  trans 39.112 14.921 123.861 quatxyzw 0.419395 -0.488332 0.691315 0.328212 center -0.023 0.069 -0.054 ntor 6 -114.8257 -103.6604 122.4011 113.3412 34.9350 158.5685
State:	 39.112  14.921 123.861   0.444 -0.517  0.732 141.679   -114.83 -103.66  122.40  113.34   34.94  158.57

DOCKED: MODEL       35
DOCKED: USER    Run = 35
DOCKED: USER    DPF = ligand_dock.biased.dpf
DOCKED: USER  
DOCKED: USER    Estimated Free Energy of Binding    =  -11.75 kcal/mol  [=(1)+(2)+(3)-(4)]
DOCKED: USER    Estimated Inhibition Constant, Ki   =    2.43 nM (nanomolar)  [Temperature = 298.15 K]
DOCKED: USER    
DOCKED: USER    (1) Final Intermolecular Energy     =  -13.54 kcal/mol
DOCKED: USER        vdW + Hbond + desolv Energy     =  -13.54 kcal/mol
DOCKED: USER        Electrostatic Energy            =   +0.00 kcal/mol
DOCKED: USER    (2) Final Total Internal Energy     =   -0.75 kcal/mol
DOCKED: USER    (3) Torsional Free Energy           =   +1.79 kcal/mol
DOCKED: USER    (4) Unbound System's Energy  [=(2)] =   -0.75 kcal/mol
DOCKED: USER    
DOCKED: USER    
DOCKED: USER    NEWDPF move ligand.dum.pdbqt
DOCKED: USER    NEWDPF about -0.023000 0.069000 -0.054000
DOCKED: USER    NEWDPF tran0 39.111678 14.921371 123.861272
DOCKED: USER    NEWDPF quaternion0 0.419395 -0.488332 0.691315 0.328212
DOCKED: USER    NEWDPF axisangle0 0.443991 -0.516970 0.731857 141.679428
DOCKED: USER    NEWDPF quat0 0.443991 -0.516970 0.731857 141.679428
DOCKED: USER    NEWDPF dihe0 -114.83 -103.66 122.40 113.34 34.94 158.57 
DOCKED: USER  keepresnum = 1 
DOCKED: USER  
DOCKED: REMARK  Name = 
DOCKED: REMARK  6 active torsions:
DOCKED: REMARK  status: ('A' for Active; 'I' for Inactive)
DOCKED: REMARK    1  A    between atoms: C_2  and  C_5
DOCKED: REMARK    2  A    between atoms: C_5  and  C_6
DOCKED: REMARK    3  A    between atoms: C_6  and  C_7
DOCKED: REMARK    4  A    between atoms: C_7  and  C_8
DOCKED: REMARK    5  A    between atoms: C_8  and  C_9
DOCKED: REMARK    6  A    between atoms: C_9  and  N_10
DOCKED: REMARK                            x       y       z     vdW  Elec       q    Type
DOCKED: REMARK                         _______ _______ _______ _____ _____    ______ ____
DOCKED: USER                              x       y       z     vdW  Elec       q    Type
DOCKED: USER                           _______ _______ _______ _____ _____    ______ ____
DOCKED: ROOT
DOCKED: ATOM      1  N   UNL     1      39.325  15.249 123.029 -0.29 -0.00    +0.000 N 
DOCKED: ATOM      2  C   UNL     1      38.779  16.511 123.454 -0.23 -0.00    +0.000 C 
DOCKED: ATOM      3  C   UNL     1      39.583  17.748 123.324 -0.19 -0.00    +0.000 A 
DOCKED: ATOM      4  C   UNL     1      39.049  18.991 123.707 -0.10 -0.00    +0.000 A 
DOCKED: ATOM      5  C   UNL     1      39.807  20.157 123.585 -0.05 -0.00    +0.000 A 
DOCKED: ATOM      6  C   UNL     1      41.106  20.103 123.081 -0.06 -0.00    +0.000 A 
DOCKED: ATOM      7  C   UNL     1      41.662  18.875 122.693 -0.12 -0.00    +0.000 A 
DOCKED: ATOM      8  C   UNL     1      42.968  18.820 122.189 -0.12 -0.00    +0.000 A 
DOCKED: ATOM      9  C   UNL     1      43.523  17.599 121.806 -0.20 -0.00    +0.000 A 
DOCKED: ATOM     10  C   UNL     1      42.781  16.422 121.920 -0.32 -0.00    +0.000 A 
DOCKED: ATOM     11  C   UNL     1      41.467  16.451 122.422 -0.32 -0.00    +0.000 A 
DOCKED: ATOM     12  C   UNL     1      40.899  17.684 122.812 -0.20 -0.00    +0.000 A 
DOCKED: ATOM     13  O   UNL     1      37.615  16.565 123.940 -0.31 -0.00    +0.000 OA
DOCKED: ATOM     14  C   UNL     1      40.681  15.202 122.543 -0.47 -0.00    +0.000 C 
DOCKED: ATOM     15  O   UNL     1      41.201  14.097 122.223 -1.03 +0.00    +0.000 OA
DOCKED: ATOM     16  CM  UNL     1      40.101  16.441 122.933 +0.00 -0.00    +0.000 AC
DOCKED: ATOM     17  CM  UNL     1      40.351  18.927 123.200 +0.00 -0.00    +0.000 AC
DOCKED: ATOM     18  CM  UNL     1      42.217  17.642 122.307 +0.00 -0.00    +0.000 AC
DOCKED: ENDROOT
DOCKED: BRANCH   1  16
DOCKED: ATOM     19  C   UNL     1      38.550  14.010 123.187 -0.29 -0.00    +0.000 C 
DOCKED: BRANCH  16  17
DOCKED: ATOM     20  C   UNL     1      37.379  13.989 122.200 -0.46 -0.00    +0.000 C 
DOCKED: BRANCH  17  18
DOCKED: ATOM     21  C   UNL     1      36.153  13.302 122.812 -0.41 -0.00    +0.000 C 
DOCKED: BRANCH  18  19
DOCKED: ATOM     22  C   UNL     1      36.421  11.809 123.050 -0.68 -0.00    +0.000 C 
DOCKED: BRANCH  19  20
DOCKED: ATOM     23  C   UNL     1      36.892  11.092 121.777 -0.55 -0.00    +0.000 C 
DOCKED: BRANCH  20  22
DOCKED: ATOM     24  O   UNL     1      37.061   8.850 120.967 -2.71 -0.00    +0.000 OA
DOCKED: ATOM     25  C   UNL     1      36.972   9.606 121.972 -0.62 -0.00    +0.000 C 
DOCKED: ATOM     26  N   UNL     1      36.981   9.048 123.288 -0.62 -0.00    +0.000 N 
DOCKED: ATOM     27  O   UNL     1      37.071   7.709 123.464 -2.69 -0.00    +0.000 OA
DOCKED: ATOM     28  H   UNL     1      36.923   9.641 124.071 -0.51 -0.00    +0.000 HD
DOCKED: ENDBRANCH  20  22
DOCKED: ENDBRANCH  19  20
DOCKED: ENDBRANCH  18  19
DOCKED: ENDBRANCH  17  18
DOCKED: ENDBRANCH  16  17
DOCKED: ENDBRANCH   1  16
DOCKED: TORSDOF 6DOCKED: TER
DOCKED: ENDMDL
________________________________________________________________________________


	BEGINNING GENETIC ALGORITHM DOCKING 36 of 100
Run: 36 Seed: 119474770 111768947 [ Run 36 of 100 GA/GALS ]
Beginning LAMARCKIAN GENETIC ALGORITHM (LGA), with a maximum of 2500000 energy evaluations.

Final-Value: -14.984


	FINAL GENETIC ALGORITHM DOCKED STATE
	_______________________________________________


Detailed state:  trans 37.524 15.229 122.000 quatxyzw 0.708203 -0.180615 -0.527831 -0.432690 center -0.023 0.069 -0.054 ntor 6 -2.2833 177.9793 -30.1804 -177.1835 65.3801 -2.3306
State:	 37.524  15.229 122.000   0.786 -0.200 -0.585 -128.723     -2.28  177.98  -30.18 -177.18   65.38   -2.33

DOCKED: MODEL       36
DOCKED: USER    Run = 36
DOCKED: USER    DPF = ligand_dock.biased.dpf
DOCKED: USER  
DOCKED: USER    Estimated Free Energy of Binding    =  -12.30 kcal/mol  [=(1)+(2)+(3)-(4)]
DOCKED: USER    Estimated Inhibition Constant, Ki   =  971.67 pM (picomolar)  [Temperature = 298.15 K]
DOCKED: USER    
DOCKED: USER    (1) Final Intermolecular Energy     =  -14.08 kcal/mol
DOCKED: USER        vdW + Hbond + desolv Energy     =  -14.08 kcal/mol
DOCKED: USER        Electrostatic Energy            =   +0.00 kcal/mol
DOCKED: USER    (2) Final Total Internal Energy     =   -0.90 kcal/mol
DOCKED: USER    (3) Torsional Free Energy           =   +1.79 kcal/mol
DOCKED: USER    (4) Unbound System's Energy  [=(2)] =   -0.90 kcal/mol
DOCKED: USER    
DOCKED: USER    
DOCKED: USER    NEWDPF move ligand.dum.pdbqt
DOCKED: USER    NEWDPF about -0.023000 0.069000 -0.054000
DOCKED: USER    NEWDPF tran0 37.523838 15.228682 122.000292
DOCKED: USER    NEWDPF quaternion0 0.708203 -0.180615 -0.527831 -0.432690
DOCKED: USER    NEWDPF axisangle0 0.785546 -0.200340 -0.585476 -128.723231
DOCKED: USER    NEWDPF quat0 0.785546 -0.200340 -0.585476 -128.723231
DOCKED: USER    NEWDPF dihe0 -2.28 177.98 -30.18 -177.18 65.38 -2.33 
DOCKED: USER  keepresnum = 1 
DOCKED: USER  
DOCKED: REMARK  Name = 
DOCKED: REMARK  6 active torsions:
DOCKED: REMARK  status: ('A' for Active; 'I' for Inactive)
DOCKED: REMARK    1  A    between atoms: C_2  and  C_5
DOCKED: REMARK    2  A    between atoms: C_5  and  C_6
DOCKED: REMARK    3  A    between atoms: C_6  and  C_7
DOCKED: REMARK    4  A    between atoms: C_7  and  C_8
DOCKED: REMARK    5  A    between atoms: C_8  and  C_9
DOCKED: REMARK    6  A    between atoms: C_9  and  N_10
DOCKED: REMARK                            x       y       z     vdW  Elec       q    Type
DOCKED: REMARK                         _______ _______ _______ _____ _____    ______ ____
DOCKED: USER                              x       y       z     vdW  Elec       q    Type
DOCKED: USER                           _______ _______ _______ _____ _____    ______ ____
DOCKED: ROOT
DOCKED: ATOM      1  N   UNL     1      37.515  15.292 122.918 -0.35 -0.00    +0.000 N 
DOCKED: ATOM      2  C   UNL     1      37.905  16.669 122.764 -0.24 -0.00    +0.000 C 
DOCKED: ATOM      3  C   UNL     1      37.126  17.739 123.429 -0.19 -0.00    +0.000 A 
DOCKED: ATOM      4  C   UNL     1      37.515  19.085 123.312 -0.11 -0.00    +0.000 A 
DOCKED: ATOM      5  C   UNL     1      36.781  20.093 123.939 -0.13 -0.00    +0.000 A 
DOCKED: ATOM      6  C   UNL     1      35.650  19.777 124.690 -0.17 -0.00    +0.000 A 
DOCKED: ATOM      7  C   UNL     1      35.240  18.442 124.821 -0.25 -0.00    +0.000 A 
DOCKED: ATOM      8  C   UNL     1      34.101  18.125 125.574 -0.32 -0.00    +0.000 A 
DOCKED: ATOM      9  C   UNL     1      33.691  16.798 125.702 -0.32 -0.00    +0.000 A 
DOCKED: ATOM     10  C   UNL     1      34.413  15.775 125.083 -0.43 -0.00    +0.000 A 
DOCKED: ATOM     11  C   UNL     1      35.559  16.067 124.323 -0.37 -0.00    +0.000 A 
DOCKED: ATOM     12  C   UNL     1      35.980  17.410 124.189 -0.27 -0.00    +0.000 A 
DOCKED: ATOM     13  O   UNL     1      38.910  16.967 122.061 -0.17 -0.00    +0.000 OA
DOCKED: ATOM     14  C   UNL     1      36.324  14.982 123.667 -0.47 -0.00    +0.000 C 
DOCKED: ATOM     15  O   UNL     1      35.929  13.787 123.762 -0.62 -0.00    +0.000 OA
DOCKED: ATOM     16  CM  UNL     1      36.756  16.331 123.531 +0.00 -0.00    +0.000 AC
DOCKED: ATOM     17  CM  UNL     1      36.382  18.758 124.064 -0.03 -0.00    +0.000 AC
DOCKED: ATOM     18  CM  UNL     1      34.830  17.103 124.949 -0.36 -0.00    +0.000 AC
DOCKED: ENDROOT
DOCKED: BRANCH   1  16
DOCKED: ATOM     19  C   UNL     1      38.259  14.226 122.232 -0.45 -0.00    +0.000 C 
DOCKED: BRANCH  16  17
DOCKED: ATOM     20  C   UNL     1      37.656  13.965 120.848 -0.39 -0.00    +0.000 C 
DOCKED: BRANCH  17  18
DOCKED: ATOM     21  C   UNL     1      37.051  12.560 120.765 -0.51 -0.00    +0.000 C 
DOCKED: BRANCH  18  19
DOCKED: ATOM     22  C   UNL     1      37.151  11.838 122.117 -0.54 -0.00    +0.000 C 
DOCKED: BRANCH  19  20
DOCKED: ATOM     23  C   UNL     1      36.046  10.787 122.299 -0.65 -0.00    +0.000 C 
DOCKED: BRANCH  20  22
DOCKED: ATOM     24  O   UNL     1      36.786   8.846 121.119 -2.63 -0.00    +0.000 OA
DOCKED: ATOM     25  C   UNL     1      36.591   9.390 122.238 -0.71 -0.00    +0.000 C 
DOCKED: ATOM     26  N   UNL     1      36.919   8.688 123.440 -0.63 -0.00    +0.000 N 
DOCKED: ATOM     27  O   UNL     1      37.426   7.435 123.385 -2.35 -0.00    +0.000 OA
DOCKED: ATOM     28  H   UNL     1      36.776   9.120 124.313 -0.41 -0.00    +0.000 HD
DOCKED: ENDBRANCH  20  22
DOCKED: ENDBRANCH  19  20
DOCKED: ENDBRANCH  18  19
DOCKED: ENDBRANCH  17  18
DOCKED: ENDBRANCH  16  17
DOCKED: ENDBRANCH   1  16
DOCKED: TORSDOF 6DOCKED: TER
DOCKED: ENDMDL
________________________________________________________________________________


	BEGINNING GENETIC ALGORITHM DOCKING 37 of 100
Run: 37 Seed: 1508282196 22202954 [ Run 37 of 100 GA/GALS ]
Beginning LAMARCKIAN GENETIC ALGORITHM (LGA), with a maximum of 2500000 energy evaluations.

Final-Value: -15.296


	FINAL GENETIC ALGORITHM DOCKED STATE
	_______________________________________________


Detailed state:  trans 37.285 15.307 122.081 quatxyzw -0.240562 0.728913 0.640784 0.014522 center -0.023 0.069 -0.054 ntor 6 -158.9694 172.1070 -45.7743 120.9307 90.2467 175.7944
State:	 37.285  15.307 122.081  -0.241  0.729  0.641 178.336   -158.97  172.11  -45.77  120.93   90.25  175.79

DOCKED: MODEL       37
DOCKED: USER    Run = 37
DOCKED: USER    DPF = ligand_dock.biased.dpf
DOCKED: USER  
DOCKED: USER    Estimated Free Energy of Binding    =  -12.52 kcal/mol  [=(1)+(2)+(3)-(4)]
DOCKED: USER    Estimated Inhibition Constant, Ki   =  665.28 pM (picomolar)  [Temperature = 298.15 K]
DOCKED: USER    
DOCKED: USER    (1) Final Intermolecular Energy     =  -14.31 kcal/mol
DOCKED: USER        vdW + Hbond + desolv Energy     =  -14.31 kcal/mol
DOCKED: USER        Electrostatic Energy            =   +0.00 kcal/mol
DOCKED: USER    (2) Final Total Internal Energy     =   -0.99 kcal/mol
DOCKED: USER    (3) Torsional Free Energy           =   +1.79 kcal/mol
DOCKED: USER    (4) Unbound System's Energy  [=(2)] =   -0.99 kcal/mol
DOCKED: USER    
DOCKED: USER    
DOCKED: USER    NEWDPF move ligand.dum.pdbqt
DOCKED: USER    NEWDPF about -0.023000 0.069000 -0.054000
DOCKED: USER    NEWDPF tran0 37.284835 15.306760 122.080961
DOCKED: USER    NEWDPF quaternion0 -0.240562 0.728913 0.640784 0.014522
DOCKED: USER    NEWDPF axisangle0 -0.240588 0.728990 0.640852 178.335805
DOCKED: USER    NEWDPF quat0 -0.240588 0.728990 0.640852 178.335805
DOCKED: USER    NEWDPF dihe0 -158.97 172.11 -45.77 120.93 90.25 175.79 
DOCKED: USER  keepresnum = 1 
DOCKED: USER  
DOCKED: REMARK  Name = 
DOCKED: REMARK  6 active torsions:
DOCKED: REMARK  status: ('A' for Active; 'I' for Inactive)
DOCKED: REMARK    1  A    between atoms: C_2  and  C_5
DOCKED: REMARK    2  A    between atoms: C_5  and  C_6
DOCKED: REMARK    3  A    between atoms: C_6  and  C_7
DOCKED: REMARK    4  A    between atoms: C_7  and  C_8
DOCKED: REMARK    5  A    between atoms: C_8  and  C_9
DOCKED: REMARK    6  A    between atoms: C_9  and  N_10
DOCKED: REMARK                            x       y       z     vdW  Elec       q    Type
DOCKED: REMARK                         _______ _______ _______ _____ _____    ______ ____
DOCKED: USER                              x       y       z     vdW  Elec       q    Type
DOCKED: USER                           _______ _______ _______ _____ _____    ______ ____
DOCKED: ROOT
DOCKED: ATOM      1  N   UNL     1      37.601  15.494 122.924 -0.33 -0.00    +0.000 N 
DOCKED: ATOM      2  C   UNL     1      38.834  14.860 122.533 -0.41 -0.00    +0.000 C 
DOCKED: ATOM      3  C   UNL     1      40.121  15.574 122.705 -0.33 -0.00    +0.000 A 
DOCKED: ATOM      4  C   UNL     1      41.333  14.954 122.356 -0.47 -0.00    +0.000 A 
DOCKED: ATOM      5  C   UNL     1      42.546  15.626 122.517 -0.39 -0.00    +0.000 A 
DOCKED: ATOM      6  C   UNL     1      42.569  16.924 123.025 -0.37 -0.00    +0.000 A 
DOCKED: ATOM      7  C   UNL     1      41.373  17.565 123.380 -0.28 -0.00    +0.000 A 
DOCKED: ATOM      8  C   UNL     1      41.396  18.870 123.889 -0.18 -0.00    +0.000 A 
DOCKED: ATOM      9  C   UNL     1      40.207  19.509 124.238 -0.11 -0.00    +0.000 A 
DOCKED: ATOM     10  C   UNL     1      38.984  18.853 124.086 -0.13 -0.00    +0.000 A 
DOCKED: ATOM     11  C   UNL     1      38.934  17.543 123.578 -0.20 -0.00    +0.000 A 
DOCKED: ATOM     12  C   UNL     1      40.135  16.889 123.221 -0.24 -0.00    +0.000 A 
DOCKED: ATOM     13  O   UNL     1      38.819  13.697 122.043 -0.62 -0.00    +0.000 OA
DOCKED: ATOM     14  C   UNL     1      37.636  16.848 123.415 -0.26 -0.00    +0.000 C 
DOCKED: ATOM     15  O   UNL     1      36.562  17.444 123.705 -0.26 -0.00    +0.000 OA
DOCKED: ATOM     16  CM  UNL     1      38.843  16.182 123.059 +0.00 -0.00    +0.000 AC
DOCKED: ATOM     17  CM  UNL     1      41.347  16.255 122.867 +0.00 -0.00    +0.000 AC
DOCKED: ATOM     18  CM  UNL     1      40.172  18.205 123.732 +0.00 -0.00    +0.000 AC
DOCKED: ENDROOT
DOCKED: BRANCH   1  16
DOCKED: ATOM     19  C   UNL     1      36.316  14.809 122.725 -0.38 -0.00    +0.000 C 
DOCKED: BRANCH  16  17
DOCKED: ATOM     20  C   UNL     1      35.986  13.940 123.942 -0.53 -0.00    +0.000 C 
DOCKED: BRANCH  17  18
DOCKED: ATOM     21  C   UNL     1      36.551  12.525 123.780 -0.64 -0.00    +0.000 C 
DOCKED: BRANCH  18  19
DOCKED: ATOM     22  C   UNL     1      35.989  11.849 122.521 -0.57 -0.00    +0.000 C 
DOCKED: BRANCH  19  20
DOCKED: ATOM     23  C   UNL     1      37.067  11.087 121.738 -0.53 -0.00    +0.000 C 
DOCKED: BRANCH  20  22
DOCKED: ATOM     24  O   UNL     1      36.783   8.843 120.966 -2.64 -0.00    +0.000 OA
DOCKED: ATOM     25  C   UNL     1      36.968   9.604 121.953 -0.62 -0.00    +0.000 C 
DOCKED: ATOM     26  N   UNL     1      37.115   9.052 123.263 -0.61 -0.00    +0.000 N 
DOCKED: ATOM     27  O   UNL     1      37.043   7.714 123.454 -2.68 -0.00    +0.000 OA
DOCKED: ATOM     28  H   UNL     1      37.271   9.647 124.031 -0.53 -0.00    +0.000 HD
DOCKED: ENDBRANCH  20  22
DOCKED: ENDBRANCH  19  20
DOCKED: ENDBRANCH  18  19
DOCKED: ENDBRANCH  17  18
DOCKED: ENDBRANCH  16  17
DOCKED: ENDBRANCH   1  16
DOCKED: TORSDOF 6DOCKED: TER
DOCKED: ENDMDL
________________________________________________________________________________


	BEGINNING GENETIC ALGORITHM DOCKING 38 of 100
Run: 38 Seed: 67340638 884921170 [ Run 38 of 100 GA/GALS ]
Beginning LAMARCKIAN GENETIC ALGORITHM (LGA), with a maximum of 2500000 energy evaluations.

Final-Value: -13.576


	FINAL GENETIC ALGORITHM DOCKED STATE
	_______________________________________________


Detailed state:  trans 38.637 14.596 121.746 quatxyzw 0.519345 -0.579631 -0.610960 -0.145039 center -0.023 0.069 -0.054 ntor 6 146.0553 -77.6037 177.5423 -61.9163 -61.0868 -150.0450
State:	 38.637  14.596 121.746   0.525 -0.586 -0.617 -163.321    146.06  -77.60  177.54  -61.92  -61.09 -150.04

DOCKED: MODEL       38
DOCKED: USER    Run = 38
DOCKED: USER    DPF = ligand_dock.biased.dpf
DOCKED: USER  
DOCKED: USER    Estimated Free Energy of Binding    =  -11.06 kcal/mol  [=(1)+(2)+(3)-(4)]
DOCKED: USER    Estimated Inhibition Constant, Ki   =    7.88 nM (nanomolar)  [Temperature = 298.15 K]
DOCKED: USER    
DOCKED: USER    (1) Final Intermolecular Energy     =  -12.85 kcal/mol
DOCKED: USER        vdW + Hbond + desolv Energy     =  -12.85 kcal/mol
DOCKED: USER        Electrostatic Energy            =   +0.00 kcal/mol
DOCKED: USER    (2) Final Total Internal Energy     =   -0.73 kcal/mol
DOCKED: USER    (3) Torsional Free Energy           =   +1.79 kcal/mol
DOCKED: USER    (4) Unbound System's Energy  [=(2)] =   -0.73 kcal/mol
DOCKED: USER    
DOCKED: USER    
DOCKED: USER    NEWDPF move ligand.dum.pdbqt
DOCKED: USER    NEWDPF about -0.023000 0.069000 -0.054000
DOCKED: USER    NEWDPF tran0 38.637074 14.595812 121.746144
DOCKED: USER    NEWDPF quaternion0 0.519345 -0.579631 -0.610960 -0.145039
DOCKED: USER    NEWDPF axisangle0 0.524896 -0.585826 -0.617489 -163.320929
DOCKED: USER    NEWDPF quat0 0.524896 -0.585826 -0.617489 -163.320929
DOCKED: USER    NEWDPF dihe0 146.06 -77.60 177.54 -61.92 -61.09 -150.04 
DOCKED: USER  keepresnum = 1 
DOCKED: USER  
DOCKED: REMARK  Name = 
DOCKED: REMARK  6 active torsions:
DOCKED: REMARK  status: ('A' for Active; 'I' for Inactive)
DOCKED: REMARK    1  A    between atoms: C_2  and  C_5
DOCKED: REMARK    2  A    between atoms: C_5  and  C_6
DOCKED: REMARK    3  A    between atoms: C_6  and  C_7
DOCKED: REMARK    4  A    between atoms: C_7  and  C_8
DOCKED: REMARK    5  A    between atoms: C_8  and  C_9
DOCKED: REMARK    6  A    between atoms: C_9  and  N_10
DOCKED: REMARK                            x       y       z     vdW  Elec       q    Type
DOCKED: REMARK                         _______ _______ _______ _____ _____    ______ ____
DOCKED: USER                              x       y       z     vdW  Elec       q    Type
DOCKED: USER                           _______ _______ _______ _____ _____    ______ ____
DOCKED: ROOT
DOCKED: ATOM      1  N   UNL     1      38.652  14.811 122.640 -0.39 -0.00    +0.000 N 
DOCKED: ATOM      2  C   UNL     1      40.052  15.108 122.480 -0.42 -0.00    +0.000 C 
DOCKED: ATOM      3  C   UNL     1      40.586  16.417 122.923 -0.29 -0.00    +0.000 A 
DOCKED: ATOM      4  C   UNL     1      41.956  16.708 122.801 -0.35 -0.00    +0.000 A 
DOCKED: ATOM      5  C   UNL     1      42.460  17.941 123.218 -0.22 -0.00    +0.000 A 
DOCKED: ATOM      6  C   UNL     1      41.609  18.902 123.760 -0.17 -0.00    +0.000 A 
DOCKED: ATOM      7  C   UNL     1      40.238  18.637 123.892 -0.17 -0.00    +0.000 A 
DOCKED: ATOM      8  C   UNL     1      39.381  19.605 124.435 -0.09 -0.00    +0.000 A 
DOCKED: ATOM      9  C   UNL     1      38.017  19.343 124.563 -0.11 -0.00    +0.000 A 
DOCKED: ATOM     10  C   UNL     1      37.494  18.115 124.153 -0.18 -0.00    +0.000 A 
DOCKED: ATOM     11  C   UNL     1      38.333  17.128 123.605 -0.21 -0.00    +0.000 A 
DOCKED: ATOM     12  C   UNL     1      39.716  17.386 123.472 -0.22 -0.00    +0.000 A 
DOCKED: ATOM     13  O   UNL     1      40.824  14.256 121.962 -1.05 +0.00    +0.000 OA
DOCKED: ATOM     14  C   UNL     1      37.778  15.826 123.170 -0.33 -0.00    +0.000 C 
DOCKED: ATOM     15  O   UNL     1      36.538  15.609 123.260 -0.40 -0.00    +0.000 OA
DOCKED: ATOM     16  CM  UNL     1      39.172  16.078 123.037 +0.00 -0.00    +0.000 AC
DOCKED: ATOM     17  CM  UNL     1      41.095  17.665 123.344 +0.00 -0.00    +0.000 AC
DOCKED: ATOM     18  CM  UNL     1      38.863  18.369 124.020 +0.00 -0.00    +0.000 AC
DOCKED: ENDROOT
DOCKED: BRANCH   1  16
DOCKED: ATOM     19  C   UNL     1      38.105  13.530 122.171 -0.44 -0.00    +0.000 C 
DOCKED: BRANCH  16  17
DOCKED: ATOM     20  C   UNL     1      37.436  12.784 123.330 -0.58 -0.00    +0.000 C 
DOCKED: BRANCH  17  18
DOCKED: ATOM     21  C   UNL     1      35.945  12.560 123.055 -0.57 -0.00    +0.000 C 
DOCKED: BRANCH  18  19
DOCKED: ATOM     22  C   UNL     1      35.615  11.061 123.003 -0.64 -0.00    +0.000 C 
DOCKED: BRANCH  19  20
DOCKED: ATOM     23  C   UNL     1      36.850  10.184 123.254 -0.55 -0.00    +0.000 C 
DOCKED: BRANCH  20  22
DOCKED: ATOM     24  O   UNL     1      36.853   8.953 121.205 -2.65 -0.00    +0.000 OA
DOCKED: ATOM     25  C   UNL     1      36.797   8.909 122.464 -0.73 -0.00    +0.000 C 
DOCKED: ATOM     26  N   UNL     1      36.718   7.647 123.131 -0.76 -0.00    +0.000 N 
DOCKED: ATOM     27  O   UNL     1      36.688   6.497 122.419 -1.20 -0.00    +0.000 OA
DOCKED: ATOM     28  H   UNL     1      36.686   7.615 124.114 -0.12 -0.00    +0.000 HD
DOCKED: ENDBRANCH  20  22
DOCKED: ENDBRANCH  19  20
DOCKED: ENDBRANCH  18  19
DOCKED: ENDBRANCH  17  18
DOCKED: ENDBRANCH  16  17
DOCKED: ENDBRANCH   1  16
DOCKED: TORSDOF 6DOCKED: TER
DOCKED: ENDMDL
________________________________________________________________________________


	BEGINNING GENETIC ALGORITHM DOCKING 39 of 100
Run: 39 Seed: 1106306567 813911048 [ Run 39 of 100 GA/GALS ]
Beginning LAMARCKIAN GENETIC ALGORITHM (LGA), with a maximum of 2500000 energy evaluations.

Final-Value: -14.797


	FINAL GENETIC ALGORITHM DOCKED STATE
	_______________________________________________


Detailed state:  trans 34.851 15.822 123.217 quatxyzw -0.486190 0.221442 0.697221 0.477980 center -0.023 0.069 -0.054 ntor 6 -128.6981 -175.0021 -73.3408 -126.1235 -39.5233 144.8527
State:	 34.851  15.822 123.217  -0.554  0.252  0.794 122.893   -128.70 -175.00  -73.34 -126.12  -39.52  144.85

DOCKED: MODEL       39
DOCKED: USER    Run = 39
DOCKED: USER    DPF = ligand_dock.biased.dpf
DOCKED: USER  
DOCKED: USER    Estimated Free Energy of Binding    =  -12.35 kcal/mol  [=(1)+(2)+(3)-(4)]
DOCKED: USER    Estimated Inhibition Constant, Ki   =  882.03 pM (picomolar)  [Temperature = 298.15 K]
DOCKED: USER    
DOCKED: USER    (1) Final Intermolecular Energy     =  -14.14 kcal/mol
DOCKED: USER        vdW + Hbond + desolv Energy     =  -14.14 kcal/mol
DOCKED: USER        Electrostatic Energy            =   +0.00 kcal/mol
DOCKED: USER    (2) Final Total Internal Energy     =   -0.65 kcal/mol
DOCKED: USER    (3) Torsional Free Energy           =   +1.79 kcal/mol
DOCKED: USER    (4) Unbound System's Energy  [=(2)] =   -0.65 kcal/mol
DOCKED: USER    
DOCKED: USER    
DOCKED: USER    NEWDPF move ligand.dum.pdbqt
DOCKED: USER    NEWDPF about -0.023000 0.069000 -0.054000
DOCKED: USER    NEWDPF tran0 34.850945 15.821654 123.216701
DOCKED: USER    NEWDPF quaternion0 -0.486190 0.221442 0.697221 0.477980
DOCKED: USER    NEWDPF axisangle0 -0.553514 0.252106 0.793766 122.892915
DOCKED: USER    NEWDPF quat0 -0.553514 0.252106 0.793766 122.892915
DOCKED: USER    NEWDPF dihe0 -128.70 -175.00 -73.34 -126.12 -39.52 144.85 
DOCKED: USER  keepresnum = 1 
DOCKED: USER  
DOCKED: REMARK  Name = 
DOCKED: REMARK  6 active torsions:
DOCKED: REMARK  status: ('A' for Active; 'I' for Inactive)
DOCKED: REMARK    1  A    between atoms: C_2  and  C_5
DOCKED: REMARK    2  A    between atoms: C_5  and  C_6
DOCKED: REMARK    3  A    between atoms: C_6  and  C_7
DOCKED: REMARK    4  A    between atoms: C_7  and  C_8
DOCKED: REMARK    5  A    between atoms: C_8  and  C_9
DOCKED: REMARK    6  A    between atoms: C_9  and  N_10
DOCKED: REMARK                            x       y       z     vdW  Elec       q    Type
DOCKED: REMARK                         _______ _______ _______ _____ _____    ______ ____
DOCKED: USER                              x       y       z     vdW  Elec       q    Type
DOCKED: USER                           _______ _______ _______ _____ _____    ______ ____
DOCKED: ROOT
DOCKED: ATOM      1  N   UNL     1      35.280  16.044 123.999 -0.44 -0.00    +0.000 N 
DOCKED: ATOM      2  C   UNL     1      35.786  17.207 123.317 -0.32 -0.00    +0.000 C 
DOCKED: ATOM      3  C   UNL     1      35.604  18.552 123.911 -0.23 -0.00    +0.000 A 
DOCKED: ATOM      4  C   UNL     1      36.120  19.692 123.270 -0.16 -0.00    +0.000 A 
DOCKED: ATOM      5  C   UNL     1      35.949  20.959 123.829 -0.14 -0.00    +0.000 A 
DOCKED: ATOM      6  C   UNL     1      35.260  21.110 125.032 -0.14 -0.00    +0.000 A 
DOCKED: ATOM      7  C   UNL     1      34.735  19.989 125.691 -0.17 -0.00    +0.000 A 
DOCKED: ATOM      8  C   UNL     1      34.041  20.141 126.899 -0.14 -0.00    +0.000 A 
DOCKED: ATOM      9  C   UNL     1      33.515  19.027 127.552 -0.17 -0.00    +0.000 A 
DOCKED: ATOM     10  C   UNL     1      33.677  17.751 127.009 -0.30 -0.00    +0.000 A 
DOCKED: ATOM     11  C   UNL     1      34.370  17.571 125.799 -0.34 -0.00    +0.000 A 
DOCKED: ATOM     12  C   UNL     1      34.905  18.696 125.131 -0.25 -0.00    +0.000 A 
DOCKED: ATOM     13  O   UNL     1      36.383  17.082 122.212 -0.23 -0.00    +0.000 OA
DOCKED: ATOM     14  C   UNL     1      34.541  16.218 125.223 -0.42 -0.00    +0.000 C 
DOCKED: ATOM     15  O   UNL     1      34.036  15.218 125.805 -0.58 -0.00    +0.000 OA
DOCKED: ATOM     16  CM  UNL     1      35.087  17.345 124.548 -0.35 -0.00    +0.000 AC
DOCKED: ATOM     17  CM  UNL     1      35.429  19.833 124.477 -0.02 -0.00    +0.000 AC
DOCKED: ATOM     18  CM  UNL     1      34.207  18.863 126.347 -0.05 -0.00    +0.000 AC
DOCKED: ENDROOT
DOCKED: BRANCH   1  16
DOCKED: ATOM     19  C   UNL     1      35.424  14.709 123.401 -0.43 -0.00    +0.000 C 
DOCKED: BRANCH  16  17
DOCKED: ATOM     20  C   UNL     1      36.901  14.405 123.132 -0.49 -0.00    +0.000 C 
DOCKED: BRANCH  17  18
DOCKED: ATOM     21  C   UNL     1      37.234  12.946 123.460 -0.59 -0.00    +0.000 C 
DOCKED: BRANCH  18  19
DOCKED: ATOM     22  C   UNL     1      36.294  11.987 122.714 -0.64 -0.00    +0.000 C 
DOCKED: BRANCH  19  20
DOCKED: ATOM     23  C   UNL     1      37.016  11.211 121.604 -0.54 -0.00    +0.000 C 
DOCKED: BRANCH  20  22
DOCKED: ATOM     24  O   UNL     1      37.056   8.926 120.906 -2.72 -0.00    +0.000 OA
DOCKED: ATOM     25  C   UNL     1      37.027   9.734 121.872 -0.58 -0.00    +0.000 C 
DOCKED: ATOM     26  N   UNL     1      37.038   9.243 123.215 -0.62 -0.00    +0.000 N 
DOCKED: ATOM     27  O   UNL     1      37.064   7.912 123.457 -2.62 -0.00    +0.000 OA
DOCKED: ATOM     28  H   UNL     1      37.027   9.877 123.968 -0.46 -0.00    +0.000 HD
DOCKED: ENDBRANCH  20  22
DOCKED: ENDBRANCH  19  20
DOCKED: ENDBRANCH  18  19
DOCKED: ENDBRANCH  17  18
DOCKED: ENDBRANCH  16  17
DOCKED: ENDBRANCH   1  16
DOCKED: TORSDOF 6DOCKED: TER
DOCKED: ENDMDL
________________________________________________________________________________


	BEGINNING GENETIC ALGORITHM DOCKING 40 of 100
Run: 40 Seed: 1409386319 107169837 [ Run 40 of 100 GA/GALS ]
Beginning LAMARCKIAN GENETIC ALGORITHM (LGA), with a maximum of 2500000 energy evaluations.

Final-Value: -14.729


	FINAL GENETIC ALGORITHM DOCKED STATE
	_______________________________________________


Detailed state:  trans 36.785 16.012 122.048 quatxyzw -0.706620 0.291620 0.632579 0.124457 center -0.023 0.069 -0.054 ntor 6 -89.8795 -136.5834 144.6301 -39.0358 -125.0876 179.0550
State:	 36.785  16.012 122.048  -0.712  0.294  0.638 165.701    -89.88 -136.58  144.63  -39.04 -125.09  179.05

DOCKED: MODEL       40
DOCKED: USER    Run = 40
DOCKED: USER    DPF = ligand_dock.biased.dpf
DOCKED: USER  
DOCKED: USER    Estimated Free Energy of Binding    =  -12.12 kcal/mol  [=(1)+(2)+(3)-(4)]
DOCKED: USER    Estimated Inhibition Constant, Ki   =    1.30 nM (nanomolar)  [Temperature = 298.15 K]
DOCKED: USER    
DOCKED: USER    (1) Final Intermolecular Energy     =  -13.91 kcal/mol
DOCKED: USER        vdW + Hbond + desolv Energy     =  -13.91 kcal/mol
DOCKED: USER        Electrostatic Energy            =   +0.00 kcal/mol
DOCKED: USER    (2) Final Total Internal Energy     =   -0.82 kcal/mol
DOCKED: USER    (3) Torsional Free Energy           =   +1.79 kcal/mol
DOCKED: USER    (4) Unbound System's Energy  [=(2)] =   -0.82 kcal/mol
DOCKED: USER    
DOCKED: USER    
DOCKED: USER    NEWDPF move ligand.dum.pdbqt
DOCKED: USER    NEWDPF about -0.023000 0.069000 -0.054000
DOCKED: USER    NEWDPF tran0 36.785097 16.011674 122.047695
DOCKED: USER    NEWDPF quaternion0 -0.706620 0.291620 0.632579 0.124457
DOCKED: USER    NEWDPF axisangle0 -0.712157 0.293905 0.637535 165.701197
DOCKED: USER    NEWDPF quat0 -0.712157 0.293905 0.637535 165.701197
DOCKED: USER    NEWDPF dihe0 -89.88 -136.58 144.63 -39.04 -125.09 179.05 
DOCKED: USER  keepresnum = 1 
DOCKED: USER  
DOCKED: REMARK  Name = 
DOCKED: REMARK  6 active torsions:
DOCKED: REMARK  status: ('A' for Active; 'I' for Inactive)
DOCKED: REMARK    1  A    between atoms: C_2  and  C_5
DOCKED: REMARK    2  A    between atoms: C_5  and  C_6
DOCKED: REMARK    3  A    between atoms: C_6  and  C_7
DOCKED: REMARK    4  A    between atoms: C_7  and  C_8
DOCKED: REMARK    5  A    between atoms: C_8  and  C_9
DOCKED: REMARK    6  A    between atoms: C_9  and  N_10
DOCKED: REMARK                            x       y       z     vdW  Elec       q    Type
DOCKED: REMARK                         _______ _______ _______ _____ _____    ______ ____
DOCKED: USER                              x       y       z     vdW  Elec       q    Type
DOCKED: USER                           _______ _______ _______ _____ _____    ______ ____
DOCKED: ROOT
DOCKED: ATOM      1  N   UNL     1      36.668  15.773 122.928 -0.32 -0.00    +0.000 N 
DOCKED: ATOM      2  C   UNL     1      37.747  16.671 123.249 -0.27 -0.00    +0.000 C 
DOCKED: ATOM      3  C   UNL     1      37.560  17.713 124.285 -0.16 -0.00    +0.000 A 
DOCKED: ATOM      4  C   UNL     1      38.616  18.576 124.630 -0.17 -0.00    +0.000 A 
DOCKED: ATOM      5  C   UNL     1      38.440  19.558 125.605 -0.12 -0.00    +0.000 A 
DOCKED: ATOM      6  C   UNL     1      37.212  19.698 126.250 -0.11 -0.00    +0.000 A 
DOCKED: ATOM      7  C   UNL     1      36.143  18.851 125.924 -0.16 -0.00    +0.000 A 
DOCKED: ATOM      8  C   UNL     1      34.908  18.993 126.571 -0.18 -0.00    +0.000 A 
DOCKED: ATOM      9  C   UNL     1      33.843  18.153 126.244 -0.31 -0.00    +0.000 A 
DOCKED: ATOM     10  C   UNL     1      33.999  17.163 125.272 -0.37 -0.00    +0.000 A 
DOCKED: ATOM     11  C   UNL     1      35.229  17.000 124.609 -0.35 -0.00    +0.000 A 
DOCKED: ATOM     12  C   UNL     1      36.312  17.848 124.934 -0.19 -0.00    +0.000 A 
DOCKED: ATOM     13  O   UNL     1      38.852  16.572 122.648 -0.24 -0.00    +0.000 OA
DOCKED: ATOM     14  C   UNL     1      35.394  15.951 123.577 -0.47 -0.00    +0.000 C 
DOCKED: ATOM     15  O   UNL     1      34.417  15.215 123.266 -0.48 -0.00    +0.000 OA
DOCKED: ATOM     16  CM  UNL     1      36.490  16.798 123.903 -0.02 -0.00    +0.000 AC
DOCKED: ATOM     17  CM  UNL     1      37.381  18.708 125.272 -0.00 -0.00    +0.000 AC
DOCKED: ATOM     18  CM  UNL     1      35.072  18.002 125.593 -0.36 -0.00    +0.000 AC
DOCKED: ENDROOT
DOCKED: BRANCH   1  16
DOCKED: ATOM     19  C   UNL     1      36.831  14.759 121.877 -0.28 -0.00    +0.000 C 
DOCKED: BRANCH  16  17
DOCKED: ATOM     20  C   UNL     1      37.340  13.447 122.482 -0.52 -0.00    +0.000 C 
DOCKED: BRANCH  17  18
DOCKED: ATOM     21  C   UNL     1      36.425  12.969 123.614 -0.62 -0.00    +0.000 C 
DOCKED: BRANCH  18  19
DOCKED: ATOM     22  C   UNL     1      36.263  11.442 123.583 -0.69 -0.00    +0.000 C 
DOCKED: BRANCH  19  20
DOCKED: ATOM     23  C   UNL     1      36.321  10.880 122.156 -0.64 -0.00    +0.000 C 
DOCKED: BRANCH  20  22
DOCKED: ATOM     24  O   UNL     1      37.045   8.894 121.041 -2.70 -0.00    +0.000 OA
DOCKED: ATOM     25  C   UNL     1      36.766   9.447 122.139 -0.69 -0.00    +0.000 C 
DOCKED: ATOM     26  N   UNL     1      36.907   8.718 123.361 -0.64 -0.00    +0.000 N 
DOCKED: ATOM     27  O   UNL     1      37.325   7.432 123.347 -2.36 -0.00    +0.000 OA
DOCKED: ATOM     28  H   UNL     1      36.700   9.156 124.218 -0.47 -0.00    +0.000 HD
DOCKED: ENDBRANCH  20  22
DOCKED: ENDBRANCH  19  20
DOCKED: ENDBRANCH  18  19
DOCKED: ENDBRANCH  17  18
DOCKED: ENDBRANCH  16  17
DOCKED: ENDBRANCH   1  16
DOCKED: TORSDOF 6DOCKED: TER
DOCKED: ENDMDL
________________________________________________________________________________


	BEGINNING GENETIC ALGORITHM DOCKING 41 of 100
Run: 41 Seed: 778922128 379148141 [ Run 41 of 100 GA/GALS ]
Beginning LAMARCKIAN GENETIC ALGORITHM (LGA), with a maximum of 2500000 energy evaluations.

Final-Value: -14.581


	FINAL GENETIC ALGORITHM DOCKED STATE
	_______________________________________________


Detailed state:  trans 38.370 14.816 121.372 quatxyzw -0.606214 0.557829 0.564881 0.047337 center -0.023 0.069 -0.054 ntor 6 -61.0657 -175.4643 116.8126 -33.4258 -101.8343 177.6638
State:	 38.370  14.816 121.372  -0.607  0.558  0.566 174.574    -61.07 -175.46  116.81  -33.43 -101.83  177.66

DOCKED: MODEL       41
DOCKED: USER    Run = 41
DOCKED: USER    DPF = ligand_dock.biased.dpf
DOCKED: USER  
DOCKED: USER    Estimated Free Energy of Binding    =  -11.90 kcal/mol  [=(1)+(2)+(3)-(4)]
DOCKED: USER    Estimated Inhibition Constant, Ki   =    1.90 nM (nanomolar)  [Temperature = 298.15 K]
DOCKED: USER    
DOCKED: USER    (1) Final Intermolecular Energy     =  -13.69 kcal/mol
DOCKED: USER        vdW + Hbond + desolv Energy     =  -13.69 kcal/mol
DOCKED: USER        Electrostatic Energy            =   +0.00 kcal/mol
DOCKED: USER    (2) Final Total Internal Energy     =   -0.89 kcal/mol
DOCKED: USER    (3) Torsional Free Energy           =   +1.79 kcal/mol
DOCKED: USER    (4) Unbound System's Energy  [=(2)] =   -0.89 kcal/mol
DOCKED: USER    
DOCKED: USER    
DOCKED: USER    NEWDPF move ligand.dum.pdbqt
DOCKED: USER    NEWDPF about -0.023000 0.069000 -0.054000
DOCKED: USER    NEWDPF tran0 38.370027 14.815679 121.372360
DOCKED: USER    NEWDPF quaternion0 -0.606214 0.557829 0.564881 0.047337
DOCKED: USER    NEWDPF axisangle0 -0.606894 0.558455 0.565515 174.573517
DOCKED: USER    NEWDPF quat0 -0.606894 0.558455 0.565515 174.573517
DOCKED: USER    NEWDPF dihe0 -61.07 -175.46 116.81 -33.43 -101.83 177.66 
DOCKED: USER  keepresnum = 1 
DOCKED: USER  
DOCKED: REMARK  Name = 
DOCKED: REMARK  6 active torsions:
DOCKED: REMARK  status: ('A' for Active; 'I' for Inactive)
DOCKED: REMARK    1  A    between atoms: C_2  and  C_5
DOCKED: REMARK    2  A    between atoms: C_5  and  C_6
DOCKED: REMARK    3  A    between atoms: C_6  and  C_7
DOCKED: REMARK    4  A    between atoms: C_7  and  C_8
DOCKED: REMARK    5  A    between atoms: C_8  and  C_9
DOCKED: REMARK    6  A    between atoms: C_9  and  N_10
DOCKED: REMARK                            x       y       z     vdW  Elec       q    Type
DOCKED: REMARK                         _______ _______ _______ _____ _____    ______ ____
DOCKED: USER                              x       y       z     vdW  Elec       q    Type
DOCKED: USER                           _______ _______ _______ _____ _____    ______ ____
DOCKED: ROOT
DOCKED: ATOM      1  N   UNL     1      38.148  14.939 122.256 -0.33 -0.00    +0.000 N 
DOCKED: ATOM      2  C   UNL     1      39.532  15.257 122.494 -0.38 -0.00    +0.000 C 
DOCKED: ATOM      3  C   UNL     1      39.895  16.516 123.185 -0.19 -0.00    +0.000 A 
DOCKED: ATOM      4  C   UNL     1      41.240  16.824 123.451 -0.32 -0.00    +0.000 A 
DOCKED: ATOM      5  C   UNL     1      41.583  18.010 124.101 -0.26 -0.00    +0.000 A 
DOCKED: ATOM      6  C   UNL     1      40.591  18.908 124.495 -0.19 -0.00    +0.000 A 
DOCKED: ATOM      7  C   UNL     1      39.242  18.626 124.240 -0.16 -0.00    +0.000 A 
DOCKED: ATOM      8  C   UNL     1      38.245  19.530 124.633 -0.10 -0.00    +0.000 A 
DOCKED: ATOM      9  C   UNL     1      36.903  19.251 124.377 -0.14 -0.00    +0.000 A 
DOCKED: ATOM     10  C   UNL     1      36.540  18.069 123.729 -0.20 -0.00    +0.000 A 
DOCKED: ATOM     11  C   UNL     1      37.521  17.145 123.325 -0.21 -0.00    +0.000 A 
DOCKED: ATOM     12  C   UNL     1      38.883  17.421 123.580 -0.21 -0.00    +0.000 A 
DOCKED: ATOM     13  O   UNL     1      40.437  14.465 122.114 -1.07 -0.00    +0.000 OA
DOCKED: ATOM     14  C   UNL     1      37.136  15.892 122.636 -0.32 -0.00    +0.000 C 
DOCKED: ATOM     15  O   UNL     1      35.922  15.661 122.381 -0.33 -0.00    +0.000 OA
DOCKED: ATOM     16  CM  UNL     1      38.509  16.162 122.895 +0.00 -0.00    +0.000 AC
DOCKED: ATOM     17  CM  UNL     1      40.239  17.718 123.842 +0.00 -0.00    +0.000 AC
DOCKED: ATOM     18  CM  UNL     1      37.889  18.341 123.981 +0.00 -0.00    +0.000 AC
DOCKED: ENDROOT
DOCKED: BRANCH   1  16
DOCKED: ATOM     19  C   UNL     1      37.779  13.710 121.540 -0.45 -0.00    +0.000 C 
DOCKED: BRANCH  16  17
DOCKED: ATOM     20  C   UNL     1      37.591  12.557 122.530 -0.43 -0.00    +0.000 C 
DOCKED: BRANCH  17  18
DOCKED: ATOM     21  C   UNL     1      36.236  12.653 123.240 -0.64 -0.00    +0.000 C 
DOCKED: BRANCH  18  19
DOCKED: ATOM     22  C   UNL     1      35.676  11.256 123.546 -0.56 -0.00    +0.000 C 
DOCKED: BRANCH  19  20
DOCKED: ATOM     23  C   UNL     1      35.465  10.422 122.275 -0.59 -0.00    +0.000 C 
DOCKED: BRANCH  20  22
DOCKED: ATOM     24  O   UNL     1      36.875   8.843 121.165 -2.65 -0.00    +0.000 OA
DOCKED: ATOM     25  C   UNL     1      36.350   9.209 122.251 -0.71 -0.00    +0.000 C 
DOCKED: ATOM     26  N   UNL     1      36.624   8.490 123.455 -0.65 -0.00    +0.000 N 
DOCKED: ATOM     27  O   UNL     1      37.436   7.407 123.436 -2.36 -0.00    +0.000 OA
DOCKED: ATOM     28  H   UNL     1      36.222   8.784 124.304 -0.25 -0.00    +0.000 HD
DOCKED: ENDBRANCH  20  22
DOCKED: ENDBRANCH  19  20
DOCKED: ENDBRANCH  18  19
DOCKED: ENDBRANCH  17  18
DOCKED: ENDBRANCH  16  17
DOCKED: ENDBRANCH   1  16
DOCKED: TORSDOF 6DOCKED: TER
DOCKED: ENDMDL
________________________________________________________________________________


	BEGINNING GENETIC ALGORITHM DOCKING 42 of 100
Run: 42 Seed: 320119461 34262074 [ Run 42 of 100 GA/GALS ]
Beginning LAMARCKIAN GENETIC ALGORITHM (LGA), with a maximum of 2500000 energy evaluations.

Final-Value: -13.512


	FINAL GENETIC ALGORITHM DOCKED STATE
	_______________________________________________


Detailed state:  trans 36.994 13.736 124.103 quatxyzw -0.506314 0.381768 -0.553522 -0.539919 center -0.023 0.069 -0.054 ntor 6 21.5183 -176.0171 -25.9492 -94.0330 -13.3103 -170.1018
State:	 36.994  13.736 124.103  -0.602  0.454 -0.658 -114.644     21.52 -176.02  -25.95  -94.03  -13.31 -170.10

DOCKED: MODEL       42
DOCKED: USER    Run = 42
DOCKED: USER    DPF = ligand_dock.biased.dpf
DOCKED: USER  
DOCKED: USER    Estimated Free Energy of Binding    =  -11.08 kcal/mol  [=(1)+(2)+(3)-(4)]
DOCKED: USER    Estimated Inhibition Constant, Ki   =    7.49 nM (nanomolar)  [Temperature = 298.15 K]
DOCKED: USER    
DOCKED: USER    (1) Final Intermolecular Energy     =  -12.87 kcal/mol
DOCKED: USER        vdW + Hbond + desolv Energy     =  -12.87 kcal/mol
DOCKED: USER        Electrostatic Energy            =   +0.00 kcal/mol
DOCKED: USER    (2) Final Total Internal Energy     =   -0.64 kcal/mol
DOCKED: USER    (3) Torsional Free Energy           =   +1.79 kcal/mol
DOCKED: USER    (4) Unbound System's Energy  [=(2)] =   -0.64 kcal/mol
DOCKED: USER    
DOCKED: USER    
DOCKED: USER    NEWDPF move ligand.dum.pdbqt
DOCKED: USER    NEWDPF about -0.023000 0.069000 -0.054000
DOCKED: USER    NEWDPF tran0 36.993964 13.735636 124.103433
DOCKED: USER    NEWDPF quaternion0 -0.506314 0.381768 -0.553522 -0.539919
DOCKED: USER    NEWDPF axisangle0 -0.601526 0.453558 -0.657611 -114.643771
DOCKED: USER    NEWDPF quat0 -0.601526 0.453558 -0.657611 -114.643771
DOCKED: USER    NEWDPF dihe0 21.52 -176.02 -25.95 -94.03 -13.31 -170.10 
DOCKED: USER  keepresnum = 1 
DOCKED: USER  
DOCKED: REMARK  Name = 
DOCKED: REMARK  6 active torsions:
DOCKED: REMARK  status: ('A' for Active; 'I' for Inactive)
DOCKED: REMARK    1  A    between atoms: C_2  and  C_5
DOCKED: REMARK    2  A    between atoms: C_5  and  C_6
DOCKED: REMARK    3  A    between atoms: C_6  and  C_7
DOCKED: REMARK    4  A    between atoms: C_7  and  C_8
DOCKED: REMARK    5  A    between atoms: C_8  and  C_9
DOCKED: REMARK    6  A    between atoms: C_9  and  N_10
DOCKED: REMARK                            x       y       z     vdW  Elec       q    Type
DOCKED: REMARK                         _______ _______ _______ _____ _____    ______ ____
DOCKED: USER                              x       y       z     vdW  Elec       q    Type
DOCKED: USER                           _______ _______ _______ _____ _____    ______ ____
DOCKED: ROOT
DOCKED: ATOM      1  N   UNL     1      37.006  14.219 123.321 -0.47 -0.00    +0.000 N 
DOCKED: ATOM      2  C   UNL     1      35.864  14.939 123.822 -0.52 -0.00    +0.000 C 
DOCKED: ATOM      3  C   UNL     1      35.880  16.419 123.862 -0.35 -0.00    +0.000 A 
DOCKED: ATOM      4  C   UNL     1      34.759  17.134 124.320 -0.39 -0.00    +0.000 A 
DOCKED: ATOM      5  C   UNL     1      34.774  18.529 124.358 -0.26 -0.00    +0.000 A 
DOCKED: ATOM      6  C   UNL     1      35.904  19.233 123.943 -0.19 -0.00    +0.000 A 
DOCKED: ATOM      7  C   UNL     1      37.035  18.543 123.483 -0.15 -0.00    +0.000 A 
DOCKED: ATOM      8  C   UNL     1      38.172  19.250 123.067 -0.08 -0.00    +0.000 A 
DOCKED: ATOM      9  C   UNL     1      39.298  18.565 122.613 -0.08 -0.00    +0.000 A 
DOCKED: ATOM     10  C   UNL     1      39.303  17.170 122.567 -0.17 -0.00    +0.000 A 
DOCKED: ATOM     11  C   UNL     1      38.174  16.437 122.977 -0.24 -0.00    +0.000 A 
DOCKED: ATOM     12  C   UNL     1      37.029  17.125 123.439 -0.23 -0.00    +0.000 A 
DOCKED: ATOM     13  O   UNL     1      34.849  14.309 124.229 -0.51 -0.00    +0.000 OA
DOCKED: ATOM     14  C   UNL     1      38.180  14.957 122.929 -0.40 -0.00    +0.000 C 
DOCKED: ATOM     15  O   UNL     1      39.214  14.344 122.545 -0.73 -0.00    +0.000 OA
DOCKED: ATOM     16  CM  UNL     1      37.022  15.643 123.390 +0.00 -0.00    +0.000 AC
DOCKED: ATOM     17  CM  UNL     1      35.897  17.831 123.901 -0.10 -0.00    +0.000 AC
DOCKED: ATOM     18  CM  UNL     1      38.169  17.849 123.024 +0.00 -0.00    +0.000 AC
DOCKED: ENDROOT
DOCKED: BRANCH   1  16
DOCKED: ATOM     19  C   UNL     1      37.015  12.750 123.311 -0.63 -0.00    +0.000 C 
DOCKED: BRANCH  16  17
DOCKED: ATOM     20  C   UNL     1      36.740  12.229 121.897 -0.56 -0.00    +0.000 C 
DOCKED: BRANCH  17  18
DOCKED: ATOM     21  C   UNL     1      37.066  10.735 121.786 -0.51 -0.00    +0.000 C 
DOCKED: BRANCH  18  19
DOCKED: ATOM     22  C   UNL     1      35.866   9.877 122.215 -0.60 -0.00    +0.000 C 
DOCKED: BRANCH  19  20
DOCKED: ATOM     23  C   UNL     1      35.917   8.465 121.617 -0.64 -0.00    +0.000 C 
DOCKED: BRANCH  20  22
DOCKED: ATOM     24  O   UNL     1      37.068   7.448 123.449 -2.50 -0.00    +0.000 OA
DOCKED: ATOM     25  C   UNL     1      36.070   7.415 122.680 -0.77 -0.00    +0.000 C 
DOCKED: ATOM     26  N   UNL     1      35.075   6.402 122.844 -0.68 -0.00    +0.000 N 
DOCKED: ATOM     27  O   UNL     1      35.204   5.466 123.813 -1.08 -0.00    +0.000 OA
DOCKED: ATOM     28  H   UNL     1      34.291   6.385 122.250 -0.03 -0.00    +0.000 HD
DOCKED: ENDBRANCH  20  22
DOCKED: ENDBRANCH  19  20
DOCKED: ENDBRANCH  18  19
DOCKED: ENDBRANCH  17  18
DOCKED: ENDBRANCH  16  17
DOCKED: ENDBRANCH   1  16
DOCKED: TORSDOF 6DOCKED: TER
DOCKED: ENDMDL
________________________________________________________________________________


	BEGINNING GENETIC ALGORITHM DOCKING 43 of 100
Run: 43 Seed: 2145501251 200847375 [ Run 43 of 100 GA/GALS ]
Beginning LAMARCKIAN GENETIC ALGORITHM (LGA), with a maximum of 2500000 energy evaluations.

Final-Value: -15.082


	FINAL GENETIC ALGORITHM DOCKED STATE
	_______________________________________________


Detailed state:  trans 34.478 16.056 123.279 quatxyzw -0.460776 0.243084 0.716382 0.464104 center -0.023 0.069 -0.054 ntor 6 -63.7692 -136.3572 -64.0659 59.3581 48.2621 -166.7568
State:	 34.478  16.056 123.279  -0.520  0.274  0.809 124.696    -63.77 -136.36  -64.07   59.36   48.26 -166.76

DOCKED: MODEL       43
DOCKED: USER    Run = 43
DOCKED: USER    DPF = ligand_dock.biased.dpf
DOCKED: USER  
DOCKED: USER    Estimated Free Energy of Binding    =  -12.65 kcal/mol  [=(1)+(2)+(3)-(4)]
DOCKED: USER    Estimated Inhibition Constant, Ki   =  534.60 pM (picomolar)  [Temperature = 298.15 K]
DOCKED: USER    
DOCKED: USER    (1) Final Intermolecular Energy     =  -14.44 kcal/mol
DOCKED: USER        vdW + Hbond + desolv Energy     =  -14.44 kcal/mol
DOCKED: USER        Electrostatic Energy            =   +0.00 kcal/mol
DOCKED: USER    (2) Final Total Internal Energy     =   -0.64 kcal/mol
DOCKED: USER    (3) Torsional Free Energy           =   +1.79 kcal/mol
DOCKED: USER    (4) Unbound System's Energy  [=(2)] =   -0.64 kcal/mol
DOCKED: USER    
DOCKED: USER    
DOCKED: USER    NEWDPF move ligand.dum.pdbqt
DOCKED: USER    NEWDPF about -0.023000 0.069000 -0.054000
DOCKED: USER    NEWDPF tran0 34.477620 16.056048 123.279393
DOCKED: USER    NEWDPF quaternion0 -0.460776 0.243084 0.716382 0.464104
DOCKED: USER    NEWDPF axisangle0 -0.520192 0.274429 0.808758 124.695558
DOCKED: USER    NEWDPF quat0 -0.520192 0.274429 0.808758 124.695558
DOCKED: USER    NEWDPF dihe0 -63.77 -136.36 -64.07 59.36 48.26 -166.76 
DOCKED: USER  keepresnum = 1 
DOCKED: USER  
DOCKED: REMARK  Name = 
DOCKED: REMARK  6 active torsions:
DOCKED: REMARK  status: ('A' for Active; 'I' for Inactive)
DOCKED: REMARK    1  A    between atoms: C_2  and  C_5
DOCKED: REMARK    2  A    between atoms: C_5  and  C_6
DOCKED: REMARK    3  A    between atoms: C_6  and  C_7
DOCKED: REMARK    4  A    between atoms: C_7  and  C_8
DOCKED: REMARK    5  A    between atoms: C_8  and  C_9
DOCKED: REMARK    6  A    between atoms: C_9  and  N_10
DOCKED: REMARK                            x       y       z     vdW  Elec       q    Type
DOCKED: REMARK                         _______ _______ _______ _____ _____    ______ ____
DOCKED: USER                              x       y       z     vdW  Elec       q    Type
DOCKED: USER                           _______ _______ _______ _____ _____    ______ ____
DOCKED: ROOT
DOCKED: ATOM      1  N   UNL     1      34.943  16.272 124.042 -0.45 -0.00    +0.000 N 
DOCKED: ATOM      2  C   UNL     1      35.509  17.375 123.309 -0.33 -0.00    +0.000 C 
DOCKED: ATOM      3  C   UNL     1      35.438  18.747 123.862 -0.22 -0.00    +0.000 A 
DOCKED: ATOM      4  C   UNL     1      36.014  19.827 123.170 -0.15 -0.00    +0.000 A 
DOCKED: ATOM      5  C   UNL     1      35.946  21.120 123.691 -0.13 -0.00    +0.000 A 
DOCKED: ATOM      6  C   UNL     1      35.305  21.357 124.906 -0.13 -0.00    +0.000 A 
DOCKED: ATOM      7  C   UNL     1      34.721  20.297 125.615 -0.15 -0.00    +0.000 A 
DOCKED: ATOM      8  C   UNL     1      34.075  20.536 126.835 -0.13 -0.00    +0.000 A 
DOCKED: ATOM      9  C   UNL     1      33.491  19.482 127.539 -0.15 -0.00    +0.000 A 
DOCKED: ATOM     10  C   UNL     1      33.549  18.181 127.035 -0.26 -0.00    +0.000 A 
DOCKED: ATOM     11  C   UNL     1      34.193  17.916 125.813 -0.33 -0.00    +0.000 A 
DOCKED: ATOM     12  C   UNL     1      34.785  18.978 125.094 -0.24 -0.00    +0.000 A 
DOCKED: ATOM     13  O   UNL     1      36.065  17.174 122.193 -0.25 -0.00    +0.000 OA
DOCKED: ATOM     14  C   UNL     1      34.253  16.536 125.279 -0.48 -0.00    +0.000 C 
DOCKED: ATOM     15  O   UNL     1      33.696  15.593 125.907 -0.89 -0.00    +0.000 OA
DOCKED: ATOM     16  CM  UNL     1      34.856  17.601 124.552 -0.40 -0.00    +0.000 AC
DOCKED: ATOM     17  CM  UNL     1      35.368  20.055 124.390 -0.00 -0.00    +0.000 AC
DOCKED: ATOM     18  CM  UNL     1      34.136  19.232 126.322 -0.03 -0.00    +0.000 AC
DOCKED: ENDROOT
DOCKED: BRANCH   1  16
DOCKED: ATOM     19  C   UNL     1      34.977  14.912 123.486 -0.43 -0.00    +0.000 C 
DOCKED: BRANCH  16  17
DOCKED: ATOM     20  C   UNL     1      36.028  14.068 124.213 -0.43 -0.00    +0.000 C 
DOCKED: BRANCH  17  18
DOCKED: ATOM     21  C   UNL     1      36.925  13.325 123.218 -0.58 -0.00    +0.000 C 
DOCKED: BRANCH  18  19
DOCKED: ATOM     22  C   UNL     1      36.835  11.805 123.425 -0.69 -0.00    +0.000 C 
DOCKED: BRANCH  19  20
DOCKED: ATOM     23  C   UNL     1      36.308  11.078 122.180 -0.64 -0.00    +0.000 C 
DOCKED: BRANCH  20  22
DOCKED: ATOM     24  O   UNL     1      37.044   9.119 121.026 -2.72 -0.00    +0.000 OA
DOCKED: ATOM     25  C   UNL     1      36.765   9.649 122.135 -0.67 -0.00    +0.000 C 
DOCKED: ATOM     26  N   UNL     1      36.917   8.899 123.343 -0.62 -0.00    +0.000 N 
DOCKED: ATOM     27  O   UNL     1      37.345   7.616 123.303 -2.45 -0.00    +0.000 OA
DOCKED: ATOM     28  H   UNL     1      36.709   9.319 124.209 -0.49 -0.00    +0.000 HD
DOCKED: ENDBRANCH  20  22
DOCKED: ENDBRANCH  19  20
DOCKED: ENDBRANCH  18  19
DOCKED: ENDBRANCH  17  18
DOCKED: ENDBRANCH  16  17
DOCKED: ENDBRANCH   1  16
DOCKED: TORSDOF 6DOCKED: TER
DOCKED: ENDMDL
________________________________________________________________________________


	BEGINNING GENETIC ALGORITHM DOCKING 44 of 100
Run: 44 Seed: 1374212632 1905258383 [ Run 44 of 100 GA/GALS ]
Beginning LAMARCKIAN GENETIC ALGORITHM (LGA), with a maximum of 2500000 energy evaluations.

Final-Value: -14.308


	FINAL GENETIC ALGORITHM DOCKED STATE
	_______________________________________________


Detailed state:  trans 36.977 15.366 123.678 quatxyzw -0.231299 0.639838 -0.656951 -0.324845 center -0.023 0.069 -0.054 ntor 6 -129.9961 -149.3872 -59.7820 72.3943 96.2502 5.0571
State:	 36.977  15.366 123.678  -0.245  0.677 -0.695 -142.088   -130.00 -149.39  -59.78   72.39   96.25    5.06

DOCKED: MODEL       44
DOCKED: USER    Run = 44
DOCKED: USER    DPF = ligand_dock.biased.dpf
DOCKED: USER  
DOCKED: USER    Estimated Free Energy of Binding    =  -11.68 kcal/mol  [=(1)+(2)+(3)-(4)]
DOCKED: USER    Estimated Inhibition Constant, Ki   =    2.73 nM (nanomolar)  [Temperature = 298.15 K]
DOCKED: USER    
DOCKED: USER    (1) Final Intermolecular Energy     =  -13.47 kcal/mol
DOCKED: USER        vdW + Hbond + desolv Energy     =  -13.47 kcal/mol
DOCKED: USER        Electrostatic Energy            =   +0.00 kcal/mol
DOCKED: USER    (2) Final Total Internal Energy     =   -0.84 kcal/mol
DOCKED: USER    (3) Torsional Free Energy           =   +1.79 kcal/mol
DOCKED: USER    (4) Unbound System's Energy  [=(2)] =   -0.84 kcal/mol
DOCKED: USER    
DOCKED: USER    
DOCKED: USER    NEWDPF move ligand.dum.pdbqt
DOCKED: USER    NEWDPF about -0.023000 0.069000 -0.054000
DOCKED: USER    NEWDPF tran0 36.977056 15.365949 123.678304
DOCKED: USER    NEWDPF quaternion0 -0.231299 0.639838 -0.656951 -0.324845
DOCKED: USER    NEWDPF axisangle0 -0.244562 0.676528 -0.694622 -142.087659
DOCKED: USER    NEWDPF quat0 -0.244562 0.676528 -0.694622 -142.087659
DOCKED: USER    NEWDPF dihe0 -130.00 -149.39 -59.78 72.39 96.25 5.06 
DOCKED: USER  keepresnum = 1 
DOCKED: USER  
DOCKED: REMARK  Name = 
DOCKED: REMARK  6 active torsions:
DOCKED: REMARK  status: ('A' for Active; 'I' for Inactive)
DOCKED: REMARK    1  A    between atoms: C_2  and  C_5
DOCKED: REMARK    2  A    between atoms: C_5  and  C_6
DOCKED: REMARK    3  A    between atoms: C_6  and  C_7
DOCKED: REMARK    4  A    between atoms: C_7  and  C_8
DOCKED: REMARK    5  A    between atoms: C_8  and  C_9
DOCKED: REMARK    6  A    between atoms: C_9  and  N_10
DOCKED: REMARK                            x       y       z     vdW  Elec       q    Type
DOCKED: REMARK                         _______ _______ _______ _____ _____    ______ ____
DOCKED: USER                              x       y       z     vdW  Elec       q    Type
DOCKED: USER                           _______ _______ _______ _____ _____    ______ ____
DOCKED: ROOT
DOCKED: ATOM      1  N   UNL     1      37.413  15.870 123.045 -0.30 -0.00    +0.000 N 
DOCKED: ATOM      2  C   UNL     1      37.148  17.021 123.869 -0.25 -0.00    +0.000 C 
DOCKED: ATOM      3  C   UNL     1      38.257  17.919 124.265 -0.18 -0.00    +0.000 A 
DOCKED: ATOM      4  C   UNL     1      38.007  19.063 125.044 -0.14 -0.00    +0.000 A 
DOCKED: ATOM      5  C   UNL     1      39.051  19.909 125.418 -0.10 -0.00    +0.000 A 
DOCKED: ATOM      6  C   UNL     1      40.359  19.630 125.024 -0.13 -0.00    +0.000 A 
DOCKED: ATOM      7  C   UNL     1      40.636  18.494 124.248 -0.22 -0.00    +0.000 A 
DOCKED: ATOM      8  C   UNL     1      41.951  18.212 123.855 -0.18 -0.00    +0.000 A 
DOCKED: ATOM      9  C   UNL     1      42.227  17.082 123.086 -0.35 -0.00    +0.000 A 
DOCKED: ATOM     10  C   UNL     1      41.195  16.223 122.701 -0.36 -0.00    +0.000 A 
DOCKED: ATOM     11  C   UNL     1      39.867  16.485 123.082 -0.24 -0.00    +0.000 A 
DOCKED: ATOM     12  C   UNL     1      39.580  17.628 123.862 -0.22 -0.00    +0.000 A 
DOCKED: ATOM     13  O   UNL     1      35.972  17.264 124.256 -0.31 -0.00    +0.000 OA
DOCKED: ATOM     14  C   UNL     1      38.774  15.574 122.674 -0.35 -0.00    +0.000 C 
DOCKED: ATOM     15  O   UNL     1      39.036  14.536 122.005 -0.58 -0.00    +0.000 OA
DOCKED: ATOM     16  CM  UNL     1      38.477  16.726 123.455 +0.00 -0.00    +0.000 AC
DOCKED: ATOM     17  CM  UNL     1      39.315  18.774 124.644 +0.00 -0.00    +0.000 AC
DOCKED: ATOM     18  CM  UNL     1      40.910  17.354 123.472 +0.00 -0.00    +0.000 AC
DOCKED: ENDROOT
DOCKED: BRANCH   1  16
DOCKED: ATOM     19  C   UNL     1      36.326  14.952 122.676 -0.37 -0.00    +0.000 C 
DOCKED: BRANCH  16  17
DOCKED: ATOM     20  C   UNL     1      36.072  13.951 123.807 -0.56 -0.00    +0.000 C 
DOCKED: BRANCH  17  18
DOCKED: ATOM     21  C   UNL     1      37.039  12.765 123.723 -0.53 -0.00    +0.000 C 
DOCKED: BRANCH  18  19
DOCKED: ATOM     22  C   UNL     1      36.314  11.498 123.246 -0.70 -0.00    +0.000 C 
DOCKED: BRANCH  19  20
DOCKED: ATOM     23  C   UNL     1      36.956  10.899 121.988 -0.56 -0.00    +0.000 C 
DOCKED: BRANCH  20  22
DOCKED: ATOM     24  O   UNL     1      36.889   8.750 120.943 -2.57 -0.00    +0.000 OA
DOCKED: ATOM     25  C   UNL     1      36.955   9.398 122.022 -0.65 -0.00    +0.000 C 
DOCKED: ATOM     26  N   UNL     1      37.062   8.703 123.267 -0.67 -0.00    +0.000 N 
DOCKED: ATOM     27  O   UNL     1      37.079   7.350 123.297 -2.38 -0.00    +0.000 OA
DOCKED: ATOM     28  H   UNL     1      37.126   9.211 124.108 -0.56 -0.00    +0.000 HD
DOCKED: ENDBRANCH  20  22
DOCKED: ENDBRANCH  19  20
DOCKED: ENDBRANCH  18  19
DOCKED: ENDBRANCH  17  18
DOCKED: ENDBRANCH  16  17
DOCKED: ENDBRANCH   1  16
DOCKED: TORSDOF 6DOCKED: TER
DOCKED: ENDMDL
________________________________________________________________________________


	BEGINNING GENETIC ALGORITHM DOCKING 45 of 100
Run: 45 Seed: 1859607367 1583950469 [ Run 45 of 100 GA/GALS ]
Beginning LAMARCKIAN GENETIC ALGORITHM (LGA), with a maximum of 2500000 energy evaluations.

Final-Value: -13.792


	FINAL GENETIC ALGORITHM DOCKED STATE
	_______________________________________________


Detailed state:  trans 37.616 14.752 123.061 quatxyzw -0.285008 0.290026 -0.759809 -0.507293 center -0.023 0.069 -0.054 ntor 6 -151.5253 148.2294 -102.7864 173.8639 -19.9687 -0.9253
State:	 37.616  14.752 123.061  -0.331  0.337 -0.882 -119.033   -151.53  148.23 -102.79  173.86  -19.97   -0.93

DOCKED: MODEL       45
DOCKED: USER    Run = 45
DOCKED: USER    DPF = ligand_dock.biased.dpf
DOCKED: USER  
DOCKED: USER    Estimated Free Energy of Binding    =  -11.26 kcal/mol  [=(1)+(2)+(3)-(4)]
DOCKED: USER    Estimated Inhibition Constant, Ki   =    5.53 nM (nanomolar)  [Temperature = 298.15 K]
DOCKED: USER    
DOCKED: USER    (1) Final Intermolecular Energy     =  -13.05 kcal/mol
DOCKED: USER        vdW + Hbond + desolv Energy     =  -13.05 kcal/mol
DOCKED: USER        Electrostatic Energy            =   +0.00 kcal/mol
DOCKED: USER    (2) Final Total Internal Energy     =   -0.74 kcal/mol
DOCKED: USER    (3) Torsional Free Energy           =   +1.79 kcal/mol
DOCKED: USER    (4) Unbound System's Energy  [=(2)] =   -0.74 kcal/mol
DOCKED: USER    
DOCKED: USER    
DOCKED: USER    NEWDPF move ligand.dum.pdbqt
DOCKED: USER    NEWDPF about -0.023000 0.069000 -0.054000
DOCKED: USER    NEWDPF tran0 37.615713 14.751695 123.061022
DOCKED: USER    NEWDPF quaternion0 -0.285008 0.290026 -0.759809 -0.507293
DOCKED: USER    NEWDPF axisangle0 -0.330722 0.336545 -0.881680 -119.032564
DOCKED: USER    NEWDPF quat0 -0.330722 0.336545 -0.881680 -119.032564
DOCKED: USER    NEWDPF dihe0 -151.53 148.23 -102.79 173.86 -19.97 -0.93 
DOCKED: USER  keepresnum = 1 
DOCKED: USER  
DOCKED: REMARK  Name = 
DOCKED: REMARK  6 active torsions:
DOCKED: REMARK  status: ('A' for Active; 'I' for Inactive)
DOCKED: REMARK    1  A    between atoms: C_2  and  C_5
DOCKED: REMARK    2  A    between atoms: C_5  and  C_6
DOCKED: REMARK    3  A    between atoms: C_6  and  C_7
DOCKED: REMARK    4  A    between atoms: C_7  and  C_8
DOCKED: REMARK    5  A    between atoms: C_8  and  C_9
DOCKED: REMARK    6  A    between atoms: C_9  and  N_10
DOCKED: REMARK                            x       y       z     vdW  Elec       q    Type
DOCKED: REMARK                         _______ _______ _______ _____ _____    ______ ____
DOCKED: USER                              x       y       z     vdW  Elec       q    Type
DOCKED: USER                           _______ _______ _______ _____ _____    ______ ____
DOCKED: ROOT
DOCKED: ATOM      1  N   UNL     1      38.172  15.095 122.414 -0.33 -0.00    +0.000 N 
DOCKED: ATOM      2  C   UNL     1      37.245  16.190 122.289 -0.26 -0.00    +0.000 C 
DOCKED: ATOM      3  C   UNL     1      37.729  17.586 122.387 -0.13 -0.00    +0.000 A 
DOCKED: ATOM      4  C   UNL     1      36.840  18.664 122.236 -0.13 -0.00    +0.000 A 
DOCKED: ATOM      5  C   UNL     1      37.296  19.980 122.329 -0.11 -0.00    +0.000 A 
DOCKED: ATOM      6  C   UNL     1      38.643  20.242 122.575 -0.04 -0.00    +0.000 A 
DOCKED: ATOM      7  C   UNL     1      39.551  19.184 122.731 -0.06 -0.00    +0.000 A 
DOCKED: ATOM      8  C   UNL     1      40.905  19.447 122.981 -0.08 -0.00    +0.000 A 
DOCKED: ATOM      9  C   UNL     1      41.807  18.396 123.140 -0.19 -0.00    +0.000 A 
DOCKED: ATOM     10  C   UNL     1      41.370  17.073 123.049 -0.30 -0.00    +0.000 A 
DOCKED: ATOM     11  C   UNL     1      40.017  16.783 122.798 -0.24 -0.00    +0.000 A 
DOCKED: ATOM     12  C   UNL     1      39.097  17.843 122.637 -0.13 -0.00    +0.000 A 
DOCKED: ATOM     13  O   UNL     1      36.018  15.962 122.096 -0.30 -0.00    +0.000 OA
DOCKED: ATOM     14  C   UNL     1      39.554  15.379 122.703 -0.36 -0.00    +0.000 C 
DOCKED: ATOM     15  O   UNL     1      40.371  14.433 122.878 -0.96 -0.00    +0.000 OA
DOCKED: ATOM     16  CM  UNL     1      38.623  16.442 122.535 +0.00 -0.00    +0.000 AC
DOCKED: ATOM     17  CM  UNL     1      38.193  18.917 122.482 +0.00 -0.00    +0.000 AC
DOCKED: ATOM     18  CM  UNL     1      40.458  18.121 122.890 +0.00 -0.00    +0.000 AC
DOCKED: ENDROOT
DOCKED: BRANCH   1  16
DOCKED: ATOM     19  C   UNL     1      37.695  13.706 122.354 -0.49 -0.00    +0.000 C 
DOCKED: BRANCH  16  17
DOCKED: ATOM     20  C   UNL     1      37.298  13.222 123.752 -0.33 -0.00    +0.000 C 
DOCKED: BRANCH  17  18
DOCKED: ATOM     21  C   UNL     1      36.363  12.011 123.672 -0.70 -0.00    +0.000 C 
DOCKED: BRANCH  18  19
DOCKED: ATOM     22  C   UNL     1      35.971  11.714 122.216 -0.51 -0.00    +0.000 C 
DOCKED: BRANCH  19  20
DOCKED: ATOM     23  C   UNL     1      37.063  10.937 121.467 -0.48 -0.00    +0.000 C 
DOCKED: BRANCH  20  22
DOCKED: ATOM     24  O   UNL     1      36.998   8.625 120.865 -2.48 -0.00    +0.000 OA
DOCKED: ATOM     25  C   UNL     1      37.031   9.473 121.797 -0.61 -0.00    +0.000 C 
DOCKED: ATOM     26  N   UNL     1      37.070   9.036 123.158 -0.66 -0.00    +0.000 N 
DOCKED: ATOM     27  O   UNL     1      37.058   7.716 123.454 -2.69 -0.00    +0.000 OA
DOCKED: ATOM     28  H   UNL     1      37.108   9.700 123.884 -0.47 -0.00    +0.000 HD
DOCKED: ENDBRANCH  20  22
DOCKED: ENDBRANCH  19  20
DOCKED: ENDBRANCH  18  19
DOCKED: ENDBRANCH  17  18
DOCKED: ENDBRANCH  16  17
DOCKED: ENDBRANCH   1  16
DOCKED: TORSDOF 6DOCKED: TER
DOCKED: ENDMDL
________________________________________________________________________________


	BEGINNING GENETIC ALGORITHM DOCKING 46 of 100
Run: 46 Seed: 850125865 1940246900 [ Run 46 of 100 GA/GALS ]
Beginning LAMARCKIAN GENETIC ALGORITHM (LGA), with a maximum of 2500000 energy evaluations.

Final-Value: -13.890


	FINAL GENETIC ALGORITHM DOCKED STATE
	_______________________________________________


Detailed state:  trans 36.760 14.633 122.207 quatxyzw 0.661419 -0.403059 -0.573126 -0.267571 center -0.023 0.069 -0.054 ntor 6 88.4538 -41.7660 8.7379 -104.9216 -60.9088 176.1540
State:	 36.760  14.633 122.207   0.686 -0.418 -0.595 -148.960     88.45  -41.77    8.74 -104.92  -60.91  176.15

DOCKED: MODEL       46
DOCKED: USER    Run = 46
DOCKED: USER    DPF = ligand_dock.biased.dpf
DOCKED: USER  
DOCKED: USER    Estimated Free Energy of Binding    =  -11.41 kcal/mol  [=(1)+(2)+(3)-(4)]
DOCKED: USER    Estimated Inhibition Constant, Ki   =    4.34 nM (nanomolar)  [Temperature = 298.15 K]
DOCKED: USER    
DOCKED: USER    (1) Final Intermolecular Energy     =  -13.20 kcal/mol
DOCKED: USER        vdW + Hbond + desolv Energy     =  -13.20 kcal/mol
DOCKED: USER        Electrostatic Energy            =   +0.00 kcal/mol
DOCKED: USER    (2) Final Total Internal Energy     =   -0.69 kcal/mol
DOCKED: USER    (3) Torsional Free Energy           =   +1.79 kcal/mol
DOCKED: USER    (4) Unbound System's Energy  [=(2)] =   -0.69 kcal/mol
DOCKED: USER    
DOCKED: USER    
DOCKED: USER    NEWDPF move ligand.dum.pdbqt
DOCKED: USER    NEWDPF about -0.023000 0.069000 -0.054000
DOCKED: USER    NEWDPF tran0 36.760147 14.632775 122.206650
DOCKED: USER    NEWDPF quaternion0 0.661419 -0.403059 -0.573126 -0.267571
DOCKED: USER    NEWDPF axisangle0 0.686448 -0.418312 -0.594814 -148.960490
DOCKED: USER    NEWDPF quat0 0.686448 -0.418312 -0.594814 -148.960490
DOCKED: USER    NEWDPF dihe0 88.45 -41.77 8.74 -104.92 -60.91 176.15 
DOCKED: USER  keepresnum = 1 
DOCKED: USER  
DOCKED: REMARK  Name = 
DOCKED: REMARK  6 active torsions:
DOCKED: REMARK  status: ('A' for Active; 'I' for Inactive)
DOCKED: REMARK    1  A    between atoms: C_2  and  C_5
DOCKED: REMARK    2  A    between atoms: C_5  and  C_6
DOCKED: REMARK    3  A    between atoms: C_6  and  C_7
DOCKED: REMARK    4  A    between atoms: C_7  and  C_8
DOCKED: REMARK    5  A    between atoms: C_8  and  C_9
DOCKED: REMARK    6  A    between atoms: C_9  and  N_10
DOCKED: REMARK                            x       y       z     vdW  Elec       q    Type
DOCKED: REMARK                         _______ _______ _______ _____ _____    ______ ____
DOCKED: USER                              x       y       z     vdW  Elec       q    Type
DOCKED: USER                           _______ _______ _______ _____ _____    ______ ____
DOCKED: ROOT
DOCKED: ATOM      1  N   UNL     1      36.670  14.748 123.115 -0.42 -0.00    +0.000 N 
DOCKED: ATOM      2  C   UNL     1      37.741  15.707 123.036 -0.35 -0.00    +0.000 C 
DOCKED: ATOM      3  C   UNL     1      37.563  17.065 123.601 -0.21 -0.00    +0.000 A 
DOCKED: ATOM      4  C   UNL     1      38.612  18.000 123.558 -0.17 -0.00    +0.000 A 
DOCKED: ATOM      5  C   UNL     1      38.445  19.279 124.089 -0.10 -0.00    +0.000 A 
DOCKED: ATOM      6  C   UNL     1      37.232  19.647 124.670 -0.11 -0.00    +0.000 A 
DOCKED: ATOM      7  C   UNL     1      36.170  18.733 124.724 -0.19 -0.00    +0.000 A 
DOCKED: ATOM      8  C   UNL     1      34.949  19.104 125.306 -0.22 -0.00    +0.000 A 
DOCKED: ATOM      9  C   UNL     1      33.891  18.196 125.357 -0.33 -0.00    +0.000 A 
DOCKED: ATOM     10  C   UNL     1      34.040  16.911 124.832 -0.39 -0.00    +0.000 A 
DOCKED: ATOM     11  C   UNL     1      35.254  16.515 124.244 -0.40 -0.00    +0.000 A 
DOCKED: ATOM     12  C   UNL     1      36.330  17.429 124.187 -0.24 -0.00    +0.000 A 
DOCKED: ATOM     13  O   UNL     1      38.832  15.393 122.484 -0.35 -0.00    +0.000 OA
DOCKED: ATOM     14  C   UNL     1      35.410  15.152 123.685 -0.53 -0.00    +0.000 C 
DOCKED: ATOM     15  O   UNL     1      34.438  14.347 123.708 -0.54 -0.00    +0.000 OA
DOCKED: ATOM     16  CM  UNL     1      36.500  16.066 123.630 -0.00 -0.00    +0.000 AC
DOCKED: ATOM     17  CM  UNL     1      37.392  18.359 124.138 -0.00 -0.00    +0.000 AC
DOCKED: ATOM     18  CM  UNL     1      35.105  17.815 124.775 -0.44 -0.00    +0.000 AC
DOCKED: ENDROOT
DOCKED: BRANCH   1  16
DOCKED: ATOM     19  C   UNL     1      36.823  13.410 122.525 -0.52 -0.00    +0.000 C 
DOCKED: BRANCH  16  17
DOCKED: ATOM     20  C   UNL     1      37.438  12.449 123.547 -0.54 -0.00    +0.000 C 
DOCKED: BRANCH  17  18
DOCKED: ATOM     21  C   UNL     1      36.490  11.283 123.849 -0.61 -0.00    +0.000 C 
DOCKED: BRANCH  18  19
DOCKED: ATOM     22  C   UNL     1      36.479  10.271 122.694 -0.69 -0.00    +0.000 C 
DOCKED: BRANCH  19  20
DOCKED: ATOM     23  C   UNL     1      35.339   9.252 122.823 -0.66 -0.00    +0.000 C 
DOCKED: BRANCH  20  22
DOCKED: ATOM     24  O   UNL     1      37.071   7.719 123.424 -2.68 -0.00    +0.000 OA
DOCKED: ATOM     25  C   UNL     1      35.852   7.878 123.144 -0.75 -0.00    +0.000 C 
DOCKED: ATOM     26  N   UNL     1      34.963   6.760 123.166 -0.70 -0.00    +0.000 N 
DOCKED: ATOM     27  O   UNL     1      35.423   5.525 123.472 -1.03 -0.00    +0.000 OA
DOCKED: ATOM     28  H   UNL     1      34.009   6.889 122.958 -0.02 -0.00    +0.000 HD
DOCKED: ENDBRANCH  20  22
DOCKED: ENDBRANCH  19  20
DOCKED: ENDBRANCH  18  19
DOCKED: ENDBRANCH  17  18
DOCKED: ENDBRANCH  16  17
DOCKED: ENDBRANCH   1  16
DOCKED: TORSDOF 6DOCKED: TER
DOCKED: ENDMDL
________________________________________________________________________________


	BEGINNING GENETIC ALGORITHM DOCKING 47 of 100
Run: 47 Seed: 464706917 374022958 [ Run 47 of 100 GA/GALS ]
Beginning LAMARCKIAN GENETIC ALGORITHM (LGA), with a maximum of 2500000 energy evaluations.

Final-Value: -14.240


	FINAL GENETIC ALGORITHM DOCKED STATE
	_______________________________________________


Detailed state:  trans 36.808 13.919 121.610 quatxyzw 0.114809 0.628558 0.311913 0.703167 center -0.023 0.069 -0.054 ntor 6 -179.7442 -160.4367 -88.0361 106.2970 -58.5932 -23.0923
State:	 36.808  13.919 121.610   0.161  0.884  0.439 90.637   -179.74 -160.44  -88.04  106.30  -58.59  -23.09

DOCKED: MODEL       47
DOCKED: USER    Run = 47
DOCKED: USER    DPF = ligand_dock.biased.dpf
DOCKED: USER  
DOCKED: USER    Estimated Free Energy of Binding    =  -11.47 kcal/mol  [=(1)+(2)+(3)-(4)]
DOCKED: USER    Estimated Inhibition Constant, Ki   =    3.94 nM (nanomolar)  [Temperature = 298.15 K]
DOCKED: USER    
DOCKED: USER    (1) Final Intermolecular Energy     =  -13.26 kcal/mol
DOCKED: USER        vdW + Hbond + desolv Energy     =  -13.26 kcal/mol
DOCKED: USER        Electrostatic Energy            =   +0.00 kcal/mol
DOCKED: USER    (2) Final Total Internal Energy     =   -0.98 kcal/mol
DOCKED: USER    (3) Torsional Free Energy           =   +1.79 kcal/mol
DOCKED: USER    (4) Unbound System's Energy  [=(2)] =   -0.98 kcal/mol
DOCKED: USER    
DOCKED: USER    
DOCKED: USER    NEWDPF move ligand.dum.pdbqt
DOCKED: USER    NEWDPF about -0.023000 0.069000 -0.054000
DOCKED: USER    NEWDPF tran0 36.807927 13.919006 121.610246
DOCKED: USER    NEWDPF quaternion0 0.114809 0.628558 0.311913 0.703167
DOCKED: USER    NEWDPF axisangle0 0.161470 0.884017 0.438681 90.636783
DOCKED: USER    NEWDPF quat0 0.161470 0.884017 0.438681 90.636783
DOCKED: USER    NEWDPF dihe0 -179.74 -160.44 -88.04 106.30 -58.59 -23.09 
DOCKED: USER  keepresnum = 1 
DOCKED: USER  
DOCKED: REMARK  Name = 
DOCKED: REMARK  6 active torsions:
DOCKED: REMARK  status: ('A' for Active; 'I' for Inactive)
DOCKED: REMARK    1  A    between atoms: C_2  and  C_5
DOCKED: REMARK    2  A    between atoms: C_5  and  C_6
DOCKED: REMARK    3  A    between atoms: C_6  and  C_7
DOCKED: REMARK    4  A    between atoms: C_7  and  C_8
DOCKED: REMARK    5  A    between atoms: C_8  and  C_9
DOCKED: REMARK    6  A    between atoms: C_9  and  N_10
DOCKED: REMARK                            x       y       z     vdW  Elec       q    Type
DOCKED: REMARK                         _______ _______ _______ _____ _____    ______ ____
DOCKED: USER                              x       y       z     vdW  Elec       q    Type
DOCKED: USER                           _______ _______ _______ _____ _____    ______ ____
DOCKED: ROOT
DOCKED: ATOM      1  N   UNL     1      37.273  14.593 121.192 -0.29 -0.00    +0.000 N 
DOCKED: ATOM      2  C   UNL     1      37.536  13.664 120.124 -0.42 -0.00    +0.000 C 
DOCKED: ATOM      3  C   UNL     1      37.217  14.033 118.726 -0.33 -0.00    +0.000 A 
DOCKED: ATOM      4  C   UNL     1      37.497  13.147 117.671 -0.32 -0.00    +0.000 A 
DOCKED: ATOM      5  C   UNL     1      37.196  13.494 116.353 -0.35 -0.00    +0.000 A 
DOCKED: ATOM      6  C   UNL     1      36.611  14.727 116.066 -0.23 -0.00    +0.000 A 
DOCKED: ATOM      7  C   UNL     1      36.320  15.628 117.100 -0.17 -0.00    +0.000 A 
DOCKED: ATOM      8  C   UNL     1      35.730  16.866 116.812 -0.09 -0.00    +0.000 A 
DOCKED: ATOM      9  C   UNL     1      35.437  17.762 117.841 -0.10 -0.00    +0.000 A 
DOCKED: ATOM     10  C   UNL     1      35.732  17.433 119.165 -0.14 -0.00    +0.000 A 
DOCKED: ATOM     11  C   UNL     1      36.325  16.197 119.481 -0.14 -0.00    +0.000 A 
DOCKED: ATOM     12  C   UNL     1      36.623  15.285 118.443 -0.20 -0.00    +0.000 A 
DOCKED: ATOM     13  O   UNL     1      38.037  12.534 120.378 -0.51 -0.00    +0.000 OA
DOCKED: ATOM     14  C   UNL     1      36.636  15.849 120.886 -0.17 -0.00    +0.000 C 
DOCKED: ATOM     15  O   UNL     1      36.340  16.652 121.814 -0.24 -0.00    +0.000 OA
DOCKED: ATOM     16  CM  UNL     1      36.944  14.928 119.846 +0.00 -0.00    +0.000 AC
DOCKED: ATOM     17  CM  UNL     1      36.911  14.386 117.393 +0.00 -0.00    +0.000 AC
DOCKED: ATOM     18  CM  UNL     1      36.028  16.529 118.140 +0.00 -0.00    +0.000 AC
DOCKED: ENDROOT
DOCKED: BRANCH   1  16
DOCKED: ATOM     19  C   UNL     1      37.552  14.223 122.587 -0.47 -0.00    +0.000 C 
DOCKED: BRANCH  16  17
DOCKED: ATOM     20  C   UNL     1      36.242  14.053 123.362 -0.54 -0.00    +0.000 C 
DOCKED: BRANCH  17  18
DOCKED: ATOM     21  C   UNL     1      36.125  12.641 123.946 -0.57 -0.00    +0.000 C 
DOCKED: BRANCH  18  19
DOCKED: ATOM     22  C   UNL     1      35.823  11.614 122.845 -0.61 -0.00    +0.000 C 
DOCKED: BRANCH  19  20
DOCKED: ATOM     23  C   UNL     1      37.094  10.935 122.317 -0.52 -0.00    +0.000 C 
DOCKED: BRANCH  20  22
DOCKED: ATOM     24  O   UNL     1      36.686   8.871 121.184 -2.61 -0.00    +0.000 OA
DOCKED: ATOM     25  C   UNL     1      36.952   9.441 122.276 -0.65 -0.00    +0.000 C 
DOCKED: ATOM     26  N   UNL     1      37.149   8.663 123.459 -0.63 -0.00    +0.000 N 
DOCKED: ATOM     27  O   UNL     1      37.038   7.315 123.417 -2.37 -0.00    +0.000 OA
DOCKED: ATOM     28  H   UNL     1      37.369   9.110 124.308 -0.61 -0.00    +0.000 HD
DOCKED: ENDBRANCH  20  22
DOCKED: ENDBRANCH  19  20
DOCKED: ENDBRANCH  18  19
DOCKED: ENDBRANCH  17  18
DOCKED: ENDBRANCH  16  17
DOCKED: ENDBRANCH   1  16
DOCKED: TORSDOF 6DOCKED: TER
DOCKED: ENDMDL
________________________________________________________________________________


	BEGINNING GENETIC ALGORITHM DOCKING 48 of 100
Run: 48 Seed: 1139772098 1072863539 [ Run 48 of 100 GA/GALS ]
Beginning LAMARCKIAN GENETIC ALGORITHM (LGA), with a maximum of 2500000 energy evaluations.

Final-Value: -13.928


	FINAL GENETIC ALGORITHM DOCKED STATE
	_______________________________________________


Detailed state:  trans 37.787 15.547 122.933 quatxyzw -0.840974 0.116383 -0.436147 -0.298317 center -0.023 0.069 -0.054 ntor 6 -89.8696 -175.3003 154.7454 -14.4683 97.5519 171.8145
State:	 37.787  15.547 122.933  -0.881  0.122 -0.457 -145.287    -89.87 -175.30  154.75  -14.47   97.55  171.81

DOCKED: MODEL       48
DOCKED: USER    Run = 48
DOCKED: USER    DPF = ligand_dock.biased.dpf
DOCKED: USER  
DOCKED: USER    Estimated Free Energy of Binding    =  -11.18 kcal/mol  [=(1)+(2)+(3)-(4)]
DOCKED: USER    Estimated Inhibition Constant, Ki   =    6.34 nM (nanomolar)  [Temperature = 298.15 K]
DOCKED: USER    
DOCKED: USER    (1) Final Intermolecular Energy     =  -12.97 kcal/mol
DOCKED: USER        vdW + Hbond + desolv Energy     =  -12.97 kcal/mol
DOCKED: USER        Electrostatic Energy            =   +0.00 kcal/mol
DOCKED: USER    (2) Final Total Internal Energy     =   -0.95 kcal/mol
DOCKED: USER    (3) Torsional Free Energy           =   +1.79 kcal/mol
DOCKED: USER    (4) Unbound System's Energy  [=(2)] =   -0.95 kcal/mol
DOCKED: USER    
DOCKED: USER    
DOCKED: USER    NEWDPF move ligand.dum.pdbqt
DOCKED: USER    NEWDPF about -0.023000 0.069000 -0.054000
DOCKED: USER    NEWDPF tran0 37.787326 15.547084 122.933084
DOCKED: USER    NEWDPF quaternion0 -0.840974 0.116383 -0.436147 -0.298317
DOCKED: USER    NEWDPF axisangle0 -0.881093 0.121936 -0.456954 -145.286892
DOCKED: USER    NEWDPF quat0 -0.881093 0.121936 -0.456954 -145.286892
DOCKED: USER    NEWDPF dihe0 -89.87 -175.30 154.75 -14.47 97.55 171.81 
DOCKED: USER  keepresnum = 1 
DOCKED: USER  
DOCKED: REMARK  Name = 
DOCKED: REMARK  6 active torsions:
DOCKED: REMARK  status: ('A' for Active; 'I' for Inactive)
DOCKED: REMARK    1  A    between atoms: C_2  and  C_5
DOCKED: REMARK    2  A    between atoms: C_5  and  C_6
DOCKED: REMARK    3  A    between atoms: C_6  and  C_7
DOCKED: REMARK    4  A    between atoms: C_7  and  C_8
DOCKED: REMARK    5  A    between atoms: C_8  and  C_9
DOCKED: REMARK    6  A    between atoms: C_9  and  N_10
DOCKED: REMARK                            x       y       z     vdW  Elec       q    Type
DOCKED: REMARK                         _______ _______ _______ _____ _____    ______ ____
DOCKED: USER                              x       y       z     vdW  Elec       q    Type
DOCKED: USER                           _______ _______ _______ _____ _____    ______ ____
DOCKED: ROOT
DOCKED: ATOM      1  N   UNL     1      37.417  15.228 122.154 -0.29 -0.00    +0.000 N 
DOCKED: ATOM      2  C   UNL     1      36.182  15.846 122.561 -0.32 -0.00    +0.000 C 
DOCKED: ATOM      3  C   UNL     1      35.475  16.766 121.640 -0.16 -0.00    +0.000 A 
DOCKED: ATOM      4  C   UNL     1      34.253  17.352 122.014 -0.31 -0.00    +0.000 A 
DOCKED: ATOM      5  C   UNL     1      33.587  18.219 121.147 -0.28 -0.00    +0.000 A 
DOCKED: ATOM      6  C   UNL     1      34.127  18.516 119.896 -0.27 -0.00    +0.000 A 
DOCKED: ATOM      7  C   UNL     1      35.346  17.945 119.500 -0.17 -0.00    +0.000 A 
DOCKED: ATOM      8  C   UNL     1      35.890  18.246 118.244 -0.09 -0.00    +0.000 A 
DOCKED: ATOM      9  C   UNL     1      37.103  17.682 117.851 -0.05 -0.00    +0.000 A 
DOCKED: ATOM     10  C   UNL     1      37.784  16.811 118.704 -0.09 -0.00    +0.000 A 
DOCKED: ATOM     11  C   UNL     1      37.259  16.493 119.969 -0.14 -0.00    +0.000 A 
DOCKED: ATOM     12  C   UNL     1      36.030  17.062 120.375 -0.16 -0.00    +0.000 A 
DOCKED: ATOM     13  O   UNL     1      35.702  15.607 123.704 -0.49 -0.00    +0.000 OA
DOCKED: ATOM     14  C   UNL     1      37.982  15.571 120.874 -0.24 -0.00    +0.000 C 
DOCKED: ATOM     15  O   UNL     1      39.094  15.088 120.523 -0.27 -0.00    +0.000 OA
DOCKED: ATOM     16  CM  UNL     1      36.743  16.136 121.286 +0.00 -0.00    +0.000 AC
DOCKED: ATOM     17  CM  UNL     1      34.803  17.643 120.762 +0.00 -0.00    +0.000 AC
DOCKED: ATOM     18  CM  UNL     1      36.569  17.373 119.107 +0.00 -0.00    +0.000 AC
DOCKED: ENDROOT
DOCKED: BRANCH   1  16
DOCKED: ATOM     19  C   UNL     1      38.145  14.342 123.074 -0.45 -0.00    +0.000 C 
DOCKED: BRANCH  16  17
DOCKED: ATOM     20  C   UNL     1      37.578  12.921 123.000 -0.54 -0.00    +0.000 C 
DOCKED: BRANCH  17  18
DOCKED: ATOM     21  C   UNL     1      36.329  12.778 123.877 -0.61 -0.00    +0.000 C 
DOCKED: BRANCH  18  19
DOCKED: ATOM     22  C   UNL     1      35.566  11.489 123.541 -0.53 -0.00    +0.000 C 
DOCKED: BRANCH  19  20
DOCKED: ATOM     23  C   UNL     1      35.888  10.973 122.131 -0.57 -0.00    +0.000 C 
DOCKED: BRANCH  20  22
DOCKED: ATOM     24  O   UNL     1      37.064   9.157 121.114 -2.73 -0.00    +0.000 OA
DOCKED: ATOM     25  C   UNL     1      36.566   9.634 122.170 -0.68 -0.00    +0.000 C 
DOCKED: ATOM     26  N   UNL     1      36.679   8.915 123.400 -0.59 -0.00    +0.000 N 
DOCKED: ATOM     27  O   UNL     1      37.305   7.716 123.438 -2.63 -0.00    +0.000 OA
DOCKED: ATOM     28  H   UNL     1      36.300   9.295 124.225 -0.33 -0.00    +0.000 HD
DOCKED: ENDBRANCH  20  22
DOCKED: ENDBRANCH  19  20
DOCKED: ENDBRANCH  18  19
DOCKED: ENDBRANCH  17  18
DOCKED: ENDBRANCH  16  17
DOCKED: ENDBRANCH   1  16
DOCKED: TORSDOF 6DOCKED: TER
DOCKED: ENDMDL
________________________________________________________________________________


	BEGINNING GENETIC ALGORITHM DOCKING 49 of 100
Run: 49 Seed: 1908813661 1696846520 [ Run 49 of 100 GA/GALS ]
Beginning LAMARCKIAN GENETIC ALGORITHM (LGA), with a maximum of 2500000 energy evaluations.

Final-Value: -14.514


	FINAL GENETIC ALGORITHM DOCKED STATE
	_______________________________________________


Detailed state:  trans 37.688 15.307 122.281 quatxyzw -0.793525 0.203274 -0.546319 0.174739 center -0.023 0.069 -0.054 ntor 6 -127.7898 173.8850 -85.4244 64.8844 -72.7841 -178.9551
State:	 37.688  15.307 122.281  -0.806  0.206 -0.555 159.873   -127.79  173.89  -85.42   64.88  -72.78 -178.96

DOCKED: MODEL       49
DOCKED: USER    Run = 49
DOCKED: USER    DPF = ligand_dock.biased.dpf
DOCKED: USER  
DOCKED: USER    Estimated Free Energy of Binding    =  -11.68 kcal/mol  [=(1)+(2)+(3)-(4)]
DOCKED: USER    Estimated Inhibition Constant, Ki   =    2.74 nM (nanomolar)  [Temperature = 298.15 K]
DOCKED: USER    
DOCKED: USER    (1) Final Intermolecular Energy     =  -13.47 kcal/mol
DOCKED: USER        vdW + Hbond + desolv Energy     =  -13.47 kcal/mol
DOCKED: USER        Electrostatic Energy            =   +0.00 kcal/mol
DOCKED: USER    (2) Final Total Internal Energy     =   -1.04 kcal/mol
DOCKED: USER    (3) Torsional Free Energy           =   +1.79 kcal/mol
DOCKED: USER    (4) Unbound System's Energy  [=(2)] =   -1.04 kcal/mol
DOCKED: USER    
DOCKED: USER    
DOCKED: USER    NEWDPF move ligand.dum.pdbqt
DOCKED: USER    NEWDPF about -0.023000 0.069000 -0.054000
DOCKED: USER    NEWDPF tran0 37.688431 15.307173 122.281319
DOCKED: USER    NEWDPF quaternion0 -0.793525 0.203274 -0.546319 0.174739
DOCKED: USER    NEWDPF axisangle0 -0.805924 0.206450 -0.554856 159.873108
DOCKED: USER    NEWDPF quat0 -0.805924 0.206450 -0.554856 159.873108
DOCKED: USER    NEWDPF dihe0 -127.79 173.89 -85.42 64.88 -72.78 -178.96 
DOCKED: USER  keepresnum = 1 
DOCKED: USER  
DOCKED: REMARK  Name = 
DOCKED: REMARK  6 active torsions:
DOCKED: REMARK  status: ('A' for Active; 'I' for Inactive)
DOCKED: REMARK    1  A    between atoms: C_2  and  C_5
DOCKED: REMARK    2  A    between atoms: C_5  and  C_6
DOCKED: REMARK    3  A    between atoms: C_6  and  C_7
DOCKED: REMARK    4  A    between atoms: C_7  and  C_8
DOCKED: REMARK    5  A    between atoms: C_8  and  C_9
DOCKED: REMARK    6  A    between atoms: C_9  and  N_10
DOCKED: REMARK                            x       y       z     vdW  Elec       q    Type
DOCKED: REMARK                         _______ _______ _______ _____ _____    ______ ____
DOCKED: USER                              x       y       z     vdW  Elec       q    Type
DOCKED: USER                           _______ _______ _______ _____ _____    ______ ____
DOCKED: ROOT
DOCKED: ATOM      1  N   UNL     1      37.075  14.826 121.793 -0.30 -0.00    +0.000 N 
DOCKED: ATOM      2  C   UNL     1      36.521  16.085 121.367 -0.20 -0.00    +0.000 C 
DOCKED: ATOM      3  C   UNL     1      36.335  16.362 119.924 -0.14 -0.00    +0.000 A 
DOCKED: ATOM      4  C   UNL     1      35.766  17.574 119.496 -0.15 -0.00    +0.000 A 
DOCKED: ATOM      5  C   UNL     1      35.591  17.836 118.137 -0.10 -0.00    +0.000 A 
DOCKED: ATOM      6  C   UNL     1      35.980  16.896 117.183 -0.10 -0.00    +0.000 A 
DOCKED: ATOM      7  C   UNL     1      36.550  15.679 117.584 -0.17 -0.00    +0.000 A 
DOCKED: ATOM      8  C   UNL     1      36.943  14.734 116.626 -0.24 -0.00    +0.000 A 
DOCKED: ATOM      9  C   UNL     1      37.514  13.526 117.023 -0.36 -0.00    +0.000 A 
DOCKED: ATOM     10  C   UNL     1      37.697  13.245 118.379 -0.26 -0.00    +0.000 A 
DOCKED: ATOM     11  C   UNL     1      37.310  14.176 119.360 -0.31 -0.00    +0.000 A 
DOCKED: ATOM     12  C   UNL     1      36.732  15.403 118.964 -0.20 -0.00    +0.000 A 
DOCKED: ATOM     13  O   UNL     1      36.195  16.954 122.222 -0.25 -0.00    +0.000 OA
DOCKED: ATOM     14  C   UNL     1      37.505  13.878 120.797 -0.40 -0.00    +0.000 C 
DOCKED: ATOM     15  O   UNL     1      38.050  12.795 121.148 -0.49 -0.00    +0.000 OA
DOCKED: ATOM     16  CM  UNL     1      36.917  15.114 120.406 +0.00 -0.00    +0.000 AC
DOCKED: ATOM     17  CM  UNL     1      36.159  16.625 118.548 +0.00 -0.00    +0.000 AC
DOCKED: ATOM     18  CM  UNL     1      37.124  14.460 117.989 +0.00 -0.00    +0.000 AC
DOCKED: ENDROOT
DOCKED: BRANCH   1  16
DOCKED: ATOM     19  C   UNL     1      37.298  14.556 123.221 -0.46 -0.00    +0.000 C 
DOCKED: BRANCH  16  17
DOCKED: ATOM     20  C   UNL     1      36.087  13.831 123.817 -0.56 -0.00    +0.000 C 
DOCKED: BRANCH  17  18
DOCKED: ATOM     21  C   UNL     1      36.406  12.357 124.092 -0.54 -0.00    +0.000 C 
DOCKED: BRANCH  18  19
DOCKED: ATOM     22  C   UNL     1      35.557  11.436 123.202 -0.59 -0.00    +0.000 C 
DOCKED: BRANCH  19  20
DOCKED: ATOM     23  C   UNL     1      36.321  10.967 121.956 -0.60 -0.00    +0.000 C 
DOCKED: BRANCH  20  22
DOCKED: ATOM     24  O   UNL     1      36.895   8.839 121.033 -2.66 -0.00    +0.000 OA
DOCKED: ATOM     25  C   UNL     1      36.753   9.534 122.074 -0.68 -0.00    +0.000 C 
DOCKED: ATOM     26  N   UNL     1      37.035   8.967 123.356 -0.62 -0.00    +0.000 N 
DOCKED: ATOM     27  O   UNL     1      37.441   7.681 123.461 -2.57 -0.00    +0.000 OA
DOCKED: ATOM     28  H   UNL     1      36.934   9.516 124.167 -0.54 -0.00    +0.000 HD
DOCKED: ENDBRANCH  20  22
DOCKED: ENDBRANCH  19  20
DOCKED: ENDBRANCH  18  19
DOCKED: ENDBRANCH  17  18
DOCKED: ENDBRANCH  16  17
DOCKED: ENDBRANCH   1  16
DOCKED: TORSDOF 6DOCKED: TER
DOCKED: ENDMDL
________________________________________________________________________________


	BEGINNING GENETIC ALGORITHM DOCKING 50 of 100
Run: 50 Seed: 1582397154 1706355407 [ Run 50 of 100 GA/GALS ]
Beginning LAMARCKIAN GENETIC ALGORITHM (LGA), with a maximum of 2500000 energy evaluations.

Final-Value: -13.274


	FINAL GENETIC ALGORITHM DOCKED STATE
	_______________________________________________


Detailed state:  trans 37.581 15.055 122.977 quatxyzw -0.185162 0.653956 -0.680522 -0.273764 center -0.023 0.069 -0.054 ntor 6 -170.3668 141.3693 -66.0137 -1.3178 82.6730 3.2034
State:	 37.581  15.055 122.977  -0.193  0.680 -0.708 -148.223   -170.37  141.37  -66.01   -1.32   82.67    3.20

DOCKED: MODEL       50
DOCKED: USER    Run = 50
DOCKED: USER    DPF = ligand_dock.biased.dpf
DOCKED: USER  
DOCKED: USER    Estimated Free Energy of Binding    =  -10.64 kcal/mol  [=(1)+(2)+(3)-(4)]
DOCKED: USER    Estimated Inhibition Constant, Ki   =   15.94 nM (nanomolar)  [Temperature = 298.15 K]
DOCKED: USER    
DOCKED: USER    (1) Final Intermolecular Energy     =  -12.43 kcal/mol
DOCKED: USER        vdW + Hbond + desolv Energy     =  -12.43 kcal/mol
DOCKED: USER        Electrostatic Energy            =   +0.00 kcal/mol
DOCKED: USER    (2) Final Total Internal Energy     =   -0.85 kcal/mol
DOCKED: USER    (3) Torsional Free Energy           =   +1.79 kcal/mol
DOCKED: USER    (4) Unbound System's Energy  [=(2)] =   -0.85 kcal/mol
DOCKED: USER    
DOCKED: USER    
DOCKED: USER    NEWDPF move ligand.dum.pdbqt
DOCKED: USER    NEWDPF about -0.023000 0.069000 -0.054000
DOCKED: USER    NEWDPF tran0 37.581304 15.055381 122.977362
DOCKED: USER    NEWDPF quaternion0 -0.185162 0.653956 -0.680522 -0.273764
DOCKED: USER    NEWDPF axisangle0 -0.192517 0.679931 -0.707553 -148.223257
DOCKED: USER    NEWDPF quat0 -0.192517 0.679931 -0.707553 -148.223257
DOCKED: USER    NEWDPF dihe0 -170.37 141.37 -66.01 -1.32 82.67 3.20 
DOCKED: USER  keepresnum = 1 
DOCKED: USER  
DOCKED: REMARK  Name = 
DOCKED: REMARK  6 active torsions:
DOCKED: REMARK  status: ('A' for Active; 'I' for Inactive)
DOCKED: REMARK    1  A    between atoms: C_2  and  C_5
DOCKED: REMARK    2  A    between atoms: C_5  and  C_6
DOCKED: REMARK    3  A    between atoms: C_6  and  C_7
DOCKED: REMARK    4  A    between atoms: C_7  and  C_8
DOCKED: REMARK    5  A    between atoms: C_8  and  C_9
DOCKED: REMARK    6  A    between atoms: C_9  and  N_10
DOCKED: REMARK                            x       y       z     vdW  Elec       q    Type
DOCKED: REMARK                         _______ _______ _______ _____ _____    ______ ____
DOCKED: USER                              x       y       z     vdW  Elec       q    Type
DOCKED: USER                           _______ _______ _______ _____ _____    ______ ____
DOCKED: ROOT
DOCKED: ATOM      1  N   UNL     1      38.085  15.486 122.340 -0.28 -0.00    +0.000 N 
DOCKED: ATOM      2  C   UNL     1      37.995  16.668 123.158 -0.26 -0.00    +0.000 C 
DOCKED: ATOM      3  C   UNL     1      39.226  17.395 123.547 -0.21 -0.00    +0.000 A 
DOCKED: ATOM      4  C   UNL     1      39.150  18.567 124.320 -0.17 -0.00    +0.000 A 
DOCKED: ATOM      5  C   UNL     1      40.309  19.251 124.687 -0.16 -0.00    +0.000 A 
DOCKED: ATOM      6  C   UNL     1      41.560  18.780 124.291 -0.19 -0.00    +0.000 A 
DOCKED: ATOM      7  C   UNL     1      41.663  17.612 123.521 -0.30 -0.00    +0.000 A 
DOCKED: ATOM      8  C   UNL     1      42.921  17.137 123.125 -0.33 -0.00    +0.000 A 
DOCKED: ATOM      9  C   UNL     1      43.025  15.975 122.362 -0.33 -0.00    +0.000 A 
DOCKED: ATOM     10  C   UNL     1      41.876  15.276 121.984 -0.40 -0.00    +0.000 A 
DOCKED: ATOM     11  C   UNL     1      40.603  15.732 122.368 -0.36 -0.00    +0.000 A 
DOCKED: ATOM     12  C   UNL     1      40.491  16.910 123.142 -0.26 -0.00    +0.000 A 
DOCKED: ATOM     13  O   UNL     1      36.869  17.084 123.547 -0.27 -0.00    +0.000 OA
DOCKED: ATOM     14  C   UNL     1      39.385  14.990 121.968 -0.39 -0.00    +0.000 C 
DOCKED: ATOM     15  O   UNL     1      39.489  13.922 121.303 -0.76 -0.00    +0.000 OA
DOCKED: ATOM     16  CM  UNL     1      39.265  16.178 122.743 +0.00 -0.00    +0.000 AC
DOCKED: ATOM     17  CM  UNL     1      40.400  18.086 123.918 +0.00 -0.00    +0.000 AC
DOCKED: ATOM     18  CM  UNL     1      41.764  16.440 122.750 +0.00 -0.00    +0.000 AC
DOCKED: ENDROOT
DOCKED: BRANCH   1  16
DOCKED: ATOM     19  C   UNL     1      36.873  14.737 121.979 -0.32 -0.00    +0.000 C 
DOCKED: BRANCH  16  17
DOCKED: ATOM     20  C   UNL     1      36.504  13.757 123.097 -0.55 -0.00    +0.000 C 
DOCKED: BRANCH  17  18
DOCKED: ATOM     21  C   UNL     1      37.025  12.349 122.791 -0.62 -0.00    +0.000 C 
DOCKED: BRANCH  18  19
DOCKED: ATOM     22  C   UNL     1      36.674  11.375 123.927 -0.59 -0.00    +0.000 C 
DOCKED: BRANCH  19  20
DOCKED: ATOM     23  C   UNL     1      35.743  10.247 123.460 -0.45 -0.00    +0.000 C 
DOCKED: BRANCH  20  22
DOCKED: ATOM     24  O   UNL     1      36.701   8.098 123.044 -2.17 -0.00    +0.000 OA
DOCKED: ATOM     25  C   UNL     1      36.464   9.252 122.597 -0.73 -0.00    +0.000 C 
DOCKED: ATOM     26  N   UNL     1      36.851   9.595 121.265 -0.35 -0.00    +0.000 N 
DOCKED: ATOM     27  O   UNL     1      37.485   8.692 120.482 -1.98 -0.00    +0.000 OA
DOCKED: ATOM     28  H   UNL     1      36.654  10.494 120.914 -0.01 +0.00    +0.000 HD
DOCKED: ENDBRANCH  20  22
DOCKED: ENDBRANCH  19  20
DOCKED: ENDBRANCH  18  19
DOCKED: ENDBRANCH  17  18
DOCKED: ENDBRANCH  16  17
DOCKED: ENDBRANCH   1  16
DOCKED: TORSDOF 6DOCKED: TER
DOCKED: ENDMDL
________________________________________________________________________________


	BEGINNING GENETIC ALGORITHM DOCKING 51 of 100
Run: 51 Seed: 1225051286 1153816937 [ Run 51 of 100 GA/GALS ]
Beginning LAMARCKIAN GENETIC ALGORITHM (LGA), with a maximum of 2500000 energy evaluations.

Final-Value: -12.471


	FINAL GENETIC ALGORITHM DOCKED STATE
	_______________________________________________


Detailed state:  trans 32.324 18.139 127.650 quatxyzw 0.281913 0.777758 0.470890 0.306400 center -0.023 0.069 -0.054 ntor 6 -180.0000 168.1020 179.3808 -71.6889 19.1780 20.1975
State:	 32.324  18.139 127.650   0.296  0.817  0.495 144.315   -180.00  168.10  179.38  -71.69   19.18   20.20

DOCKED: MODEL       51
DOCKED: USER    Run = 51
DOCKED: USER    DPF = ligand_dock.biased.dpf
DOCKED: USER  
DOCKED: USER    Estimated Free Energy of Binding    =   -9.55 kcal/mol  [=(1)+(2)+(3)-(4)]
DOCKED: USER    Estimated Inhibition Constant, Ki   =   99.91 nM (nanomolar)  [Temperature = 298.15 K]
DOCKED: USER    
DOCKED: USER    (1) Final Intermolecular Energy     =  -11.34 kcal/mol
DOCKED: USER        vdW + Hbond + desolv Energy     =  -11.34 kcal/mol
DOCKED: USER        Electrostatic Energy            =   +0.00 kcal/mol
DOCKED: USER    (2) Final Total Internal Energy     =   -1.13 kcal/mol
DOCKED: USER    (3) Torsional Free Energy           =   +1.79 kcal/mol
DOCKED: USER    (4) Unbound System's Energy  [=(2)] =   -1.13 kcal/mol
DOCKED: USER    
DOCKED: USER    
DOCKED: USER    NEWDPF move ligand.dum.pdbqt
DOCKED: USER    NEWDPF about -0.023000 0.069000 -0.054000
DOCKED: USER    NEWDPF tran0 32.323610 18.139380 127.649866
DOCKED: USER    NEWDPF quaternion0 0.281913 0.777758 0.470890 0.306400
DOCKED: USER    NEWDPF axisangle0 0.296157 0.817056 0.494683 144.315232
DOCKED: USER    NEWDPF quat0 0.296157 0.817056 0.494683 144.315232
DOCKED: USER    NEWDPF dihe0 -180.00 168.10 179.38 -71.69 19.18 20.20 
DOCKED: USER  keepresnum = 1 
DOCKED: USER  
DOCKED: REMARK  Name = 
DOCKED: REMARK  6 active torsions:
DOCKED: REMARK  status: ('A' for Active; 'I' for Inactive)
DOCKED: REMARK    1  A    between atoms: C_2  and  C_5
DOCKED: REMARK    2  A    between atoms: C_5  and  C_6
DOCKED: REMARK    3  A    between atoms: C_6  and  C_7
DOCKED: REMARK    4  A    between atoms: C_7  and  C_8
DOCKED: REMARK    5  A    between atoms: C_8  and  C_9
DOCKED: REMARK    6  A    between atoms: C_9  and  N_10
DOCKED: REMARK                            x       y       z     vdW  Elec       q    Type
DOCKED: REMARK                         _______ _______ _______ _____ _____    ______ ____
DOCKED: USER                              x       y       z     vdW  Elec       q    Type
DOCKED: USER                           _______ _______ _______ _____ _____    ______ ____
DOCKED: ROOT
DOCKED: ATOM      1  N   UNL     1      33.236  18.256 127.633 -0.23 -0.00    +0.000 N 
DOCKED: ATOM      2  C   UNL     1      33.322  16.983 126.965 -0.43 -0.00    +0.000 C 
DOCKED: ATOM      3  C   UNL     1      34.065  16.865 125.689 -0.40 -0.00    +0.000 A 
DOCKED: ATOM      4  C   UNL     1      34.183  15.622 125.043 -0.44 -0.00    +0.000 A 
DOCKED: ATOM      5  C   UNL     1      34.882  15.511 123.840 -0.51 -0.00    +0.000 A 
DOCKED: ATOM      6  C   UNL     1      35.473  16.634 123.263 -0.34 -0.00    +0.000 A 
DOCKED: ATOM      7  C   UNL     1      35.369  17.886 123.887 -0.28 -0.00    +0.000 A 
DOCKED: ATOM      8  C   UNL     1      35.961  19.015 123.305 -0.20 -0.00    +0.000 A 
DOCKED: ATOM      9  C   UNL     1      35.855  20.261 123.924 -0.13 -0.00    +0.000 A 
DOCKED: ATOM     10  C   UNL     1      35.160  20.392 125.127 -0.14 -0.00    +0.000 A 
DOCKED: ATOM     11  C   UNL     1      34.558  19.274 125.732 -0.22 -0.00    +0.000 A 
DOCKED: ATOM     12  C   UNL     1      34.661  18.009 125.110 -0.32 -0.00    +0.000 A 
DOCKED: ATOM     13  O   UNL     1      32.764  15.967 127.465 -1.17 -0.00    +0.000 OA
DOCKED: ATOM     14  C   UNL     1      33.820  19.415 127.008 -0.20 -0.00    +0.000 C 
DOCKED: ATOM     15  O   UNL     1      33.703  20.551 127.545 -0.12 -0.00    +0.000 OA
DOCKED: ATOM     16  CM  UNL     1      33.925  18.137 126.390 -0.07 -0.00    +0.000 AC
DOCKED: ATOM     17  CM  UNL     1      34.772  16.754 124.472 -0.19 -0.00    +0.000 AC
DOCKED: ATOM     18  CM  UNL     1      35.261  19.140 124.514 -0.10 -0.00    +0.000 AC
DOCKED: ENDROOT
DOCKED: BRANCH   1  16
DOCKED: ATOM     19  C   UNL     1      32.471  18.391 128.881 -0.20 -0.00    +0.000 C 
DOCKED: BRANCH  16  17
DOCKED: ATOM     20  C   UNL     1      30.976  18.195 128.609 -0.35 -0.00    +0.000 C 
DOCKED: BRANCH  17  18
DOCKED: ATOM     21  C   UNL     1      30.127  18.779 129.743 -0.33 -0.00    +0.000 C 
DOCKED: BRANCH  18  19
DOCKED: ATOM     22  C   UNL     1      29.402  20.054 129.286 -0.33 -0.00    +0.000 C 
DOCKED: BRANCH  19  20
DOCKED: ATOM     23  C   UNL     1      29.664  20.374 127.807 -0.37 -0.00    +0.000 C 
DOCKED: BRANCH  20  22
DOCKED: ATOM     24  O   UNL     1      27.674  20.765 126.543 -0.58 -0.00    +0.000 OA
DOCKED: ATOM     25  C   UNL     1      28.530  19.926 126.931 -0.57 -0.00    +0.000 C 
DOCKED: ATOM     26  N   UNL     1      28.436  18.563 126.510 -0.68 -0.00    +0.000 N 
DOCKED: ATOM     27  O   UNL     1      27.423  18.163 125.707 -1.94 -0.00    +0.000 OA
DOCKED: ATOM     28  H   UNL     1      29.112  17.911 126.806 -0.50 -0.00    +0.000 HD
DOCKED: ENDBRANCH  20  22
DOCKED: ENDBRANCH  19  20
DOCKED: ENDBRANCH  18  19
DOCKED: ENDBRANCH  17  18
DOCKED: ENDBRANCH  16  17
DOCKED: ENDBRANCH   1  16
DOCKED: TORSDOF 6DOCKED: TER
DOCKED: ENDMDL
________________________________________________________________________________


	BEGINNING GENETIC ALGORITHM DOCKING 52 of 100
Run: 52 Seed: 184268045 11408173 [ Run 52 of 100 GA/GALS ]
Beginning LAMARCKIAN GENETIC ALGORITHM (LGA), with a maximum of 2500000 energy evaluations.

Final-Value: -14.831


	FINAL GENETIC ALGORITHM DOCKED STATE
	_______________________________________________


Detailed state:  trans 37.531 14.790 124.064 quatxyzw 0.415843 -0.335579 0.376215 0.756918 center -0.023 0.069 -0.054 ntor 6 42.5034 -63.2877 129.6126 -55.0013 -16.7852 154.1984
State:	 37.531  14.790 124.064   0.636 -0.514  0.576 81.614     42.50  -63.29  129.61  -55.00  -16.79  154.20

DOCKED: MODEL       52
DOCKED: USER    Run = 52
DOCKED: USER    DPF = ligand_dock.biased.dpf
DOCKED: USER  
DOCKED: USER    Estimated Free Energy of Binding    =  -12.29 kcal/mol  [=(1)+(2)+(3)-(4)]
DOCKED: USER    Estimated Inhibition Constant, Ki   =  985.41 pM (picomolar)  [Temperature = 298.15 K]
DOCKED: USER    
DOCKED: USER    (1) Final Intermolecular Energy     =  -14.08 kcal/mol
DOCKED: USER        vdW + Hbond + desolv Energy     =  -14.08 kcal/mol
DOCKED: USER        Electrostatic Energy            =   +0.00 kcal/mol
DOCKED: USER    (2) Final Total Internal Energy     =   -0.75 kcal/mol
DOCKED: USER    (3) Torsional Free Energy           =   +1.79 kcal/mol
DOCKED: USER    (4) Unbound System's Energy  [=(2)] =   -0.75 kcal/mol
DOCKED: USER    
DOCKED: USER    
DOCKED: USER    NEWDPF move ligand.dum.pdbqt
DOCKED: USER    NEWDPF about -0.023000 0.069000 -0.054000
DOCKED: USER    NEWDPF tran0 37.530527 14.789603 124.063995
DOCKED: USER    NEWDPF quaternion0 0.415843 -0.335579 0.376215 0.756918
DOCKED: USER    NEWDPF axisangle0 0.636321 -0.513502 0.575683 81.613587
DOCKED: USER    NEWDPF quat0 0.636321 -0.513502 0.575683 81.613587
DOCKED: USER    NEWDPF dihe0 42.50 -63.29 129.61 -55.00 -16.79 154.20 
DOCKED: USER  keepresnum = 1 
DOCKED: USER  
DOCKED: REMARK  Name = 
DOCKED: REMARK  6 active torsions:
DOCKED: REMARK  status: ('A' for Active; 'I' for Inactive)
DOCKED: REMARK    1  A    between atoms: C_2  and  C_5
DOCKED: REMARK    2  A    between atoms: C_5  and  C_6
DOCKED: REMARK    3  A    between atoms: C_6  and  C_7
DOCKED: REMARK    4  A    between atoms: C_7  and  C_8
DOCKED: REMARK    5  A    between atoms: C_8  and  C_9
DOCKED: REMARK    6  A    between atoms: C_9  and  N_10
DOCKED: REMARK                            x       y       z     vdW  Elec       q    Type
DOCKED: REMARK                         _______ _______ _______ _____ _____    ______ ____
DOCKED: USER                              x       y       z     vdW  Elec       q    Type
DOCKED: USER                           _______ _______ _______ _____ _____    ______ ____
DOCKED: ROOT
DOCKED: ATOM      1  N   UNL     1      37.377  15.520 123.527 -0.35 -0.00    +0.000 N 
DOCKED: ATOM      2  C   UNL     1      36.016  15.499 123.996 -0.43 -0.00    +0.000 C 
DOCKED: ATOM      3  C   UNL     1      35.408  16.726 124.563 -0.34 -0.00    +0.000 A 
DOCKED: ATOM      4  C   UNL     1      34.071  16.727 124.996 -0.42 -0.00    +0.000 A 
DOCKED: ATOM      5  C   UNL     1      33.498  17.882 125.531 -0.25 -0.00    +0.000 A 
DOCKED: ATOM      6  C   UNL     1      34.249  19.052 125.643 -0.25 -0.00    +0.000 A 
DOCKED: ATOM      7  C   UNL     1      35.585  19.077 125.219 -0.20 -0.00    +0.000 A 
DOCKED: ATOM      8  C   UNL     1      36.340  20.252 125.334 -0.12 -0.00    +0.000 A 
DOCKED: ATOM      9  C   UNL     1      37.670  20.277 124.916 -0.08 -0.00    +0.000 A 
DOCKED: ATOM     10  C   UNL     1      38.261  19.131 124.378 -0.12 -0.00    +0.000 A 
DOCKED: ATOM     11  C   UNL     1      37.524  17.940 124.251 -0.18 -0.00    +0.000 A 
DOCKED: ATOM     12  C   UNL     1      36.176  17.908 124.674 -0.22 -0.00    +0.000 A 
DOCKED: ATOM     13  O   UNL     1      35.339  14.436 123.927 -0.63 -0.00    +0.000 OA
DOCKED: ATOM     14  C   UNL     1      38.151  16.725 123.681 -0.24 -0.00    +0.000 C 
DOCKED: ATOM     15  O   UNL     1      39.364  16.747 123.334 -0.29 -0.00    +0.000 OA
DOCKED: ATOM     16  CM  UNL     1      36.791  16.687 124.100 -0.01 -0.00    +0.000 AC
DOCKED: ATOM     17  CM  UNL     1      34.831  17.895 125.104 -0.47 -0.00    +0.000 AC
DOCKED: ATOM     18  CM  UNL     1      36.926  19.098 124.796 -0.00 -0.00    +0.000 AC
DOCKED: ENDROOT
DOCKED: BRANCH   1  16
DOCKED: ATOM     19  C   UNL     1      38.000  14.300 122.997 -0.47 -0.00    +0.000 C 
DOCKED: BRANCH  16  17
DOCKED: ATOM     20  C   UNL     1      37.320  13.884 121.689 -0.42 -0.00    +0.000 C 
DOCKED: BRANCH  17  18
DOCKED: ATOM     21  C   UNL     1      38.187  12.890 120.907 -0.42 -0.00    +0.000 C 
DOCKED: BRANCH  18  19
DOCKED: ATOM     22  C   UNL     1      37.401  11.610 120.585 -0.46 -0.00    +0.000 C 
DOCKED: BRANCH  19  20
DOCKED: ATOM     23  C   UNL     1      36.654  11.063 121.809 -0.58 -0.00    +0.000 C 
DOCKED: BRANCH  20  22
DOCKED: ATOM     24  O   UNL     1      36.950   8.842 120.977 -2.68 -0.00    +0.000 OA
DOCKED: ATOM     25  C   UNL     1      36.883   9.590 121.989 -0.64 -0.00    +0.000 C 
DOCKED: ATOM     26  N   UNL     1      37.056   9.040 123.297 -0.62 -0.00    +0.000 N 
DOCKED: ATOM     27  O   UNL     1      37.279   7.715 123.458 -2.64 -0.00    +0.000 OA
DOCKED: ATOM     28  H   UNL     1      37.014   9.628 124.085 -0.54 -0.00    +0.000 HD
DOCKED: ENDBRANCH  20  22
DOCKED: ENDBRANCH  19  20
DOCKED: ENDBRANCH  18  19
DOCKED: ENDBRANCH  17  18
DOCKED: ENDBRANCH  16  17
DOCKED: ENDBRANCH   1  16
DOCKED: TORSDOF 6DOCKED: TER
DOCKED: ENDMDL
________________________________________________________________________________


	BEGINNING GENETIC ALGORITHM DOCKING 53 of 100
Run: 53 Seed: 1455577881 2146257150 [ Run 53 of 100 GA/GALS ]
Beginning LAMARCKIAN GENETIC ALGORITHM (LGA), with a maximum of 2500000 energy evaluations.

Final-Value: -14.260


	FINAL GENETIC ALGORITHM DOCKED STATE
	_______________________________________________


Detailed state:  trans 36.956 15.114 123.127 quatxyzw 0.227076 -0.468060 0.352267 0.777987 center -0.023 0.069 -0.054 ntor 6 -71.2783 -128.9491 -171.5182 20.0334 113.1660 46.6333
State:	 36.956  15.114 123.127   0.361 -0.745  0.561 77.847    -71.28 -128.95 -171.52   20.03  113.17   46.63

DOCKED: MODEL       53
DOCKED: USER    Run = 53
DOCKED: USER    DPF = ligand_dock.biased.dpf
DOCKED: USER  
DOCKED: USER    Estimated Free Energy of Binding    =  -11.83 kcal/mol  [=(1)+(2)+(3)-(4)]
DOCKED: USER    Estimated Inhibition Constant, Ki   =    2.15 nM (nanomolar)  [Temperature = 298.15 K]
DOCKED: USER    
DOCKED: USER    (1) Final Intermolecular Energy     =  -13.62 kcal/mol
DOCKED: USER        vdW + Hbond + desolv Energy     =  -13.62 kcal/mol
DOCKED: USER        Electrostatic Energy            =   +0.00 kcal/mol
DOCKED: USER    (2) Final Total Internal Energy     =   -0.64 kcal/mol
DOCKED: USER    (3) Torsional Free Energy           =   +1.79 kcal/mol
DOCKED: USER    (4) Unbound System's Energy  [=(2)] =   -0.64 kcal/mol
DOCKED: USER    
DOCKED: USER    
DOCKED: USER    NEWDPF move ligand.dum.pdbqt
DOCKED: USER    NEWDPF about -0.023000 0.069000 -0.054000
DOCKED: USER    NEWDPF tran0 36.955899 15.114374 123.126640
DOCKED: USER    NEWDPF quaternion0 0.227076 -0.468060 0.352267 0.777987
DOCKED: USER    NEWDPF axisangle0 0.361425 -0.744986 0.560685 77.846714
DOCKED: USER    NEWDPF quat0 0.361425 -0.744986 0.560685 77.846714
DOCKED: USER    NEWDPF dihe0 -71.28 -128.95 -171.52 20.03 113.17 46.63 
DOCKED: USER  keepresnum = 1 
DOCKED: USER  
DOCKED: REMARK  Name = 
DOCKED: REMARK  6 active torsions:
DOCKED: REMARK  status: ('A' for Active; 'I' for Inactive)
DOCKED: REMARK    1  A    between atoms: C_2  and  C_5
DOCKED: REMARK    2  A    between atoms: C_5  and  C_6
DOCKED: REMARK    3  A    between atoms: C_6  and  C_7
DOCKED: REMARK    4  A    between atoms: C_7  and  C_8
DOCKED: REMARK    5  A    between atoms: C_8  and  C_9
DOCKED: REMARK    6  A    between atoms: C_9  and  N_10
DOCKED: REMARK                            x       y       z     vdW  Elec       q    Type
DOCKED: REMARK                         _______ _______ _______ _____ _____    ______ ____
DOCKED: USER                              x       y       z     vdW  Elec       q    Type
DOCKED: USER                           _______ _______ _______ _____ _____    ______ ____
DOCKED: ROOT
DOCKED: ATOM      1  N   UNL     1      36.933  16.016 122.947 -0.29 -0.00    +0.000 N 
DOCKED: ATOM      2  C   UNL     1      35.606  16.030 123.504 -0.44 -0.00    +0.000 C 
DOCKED: ATOM      3  C   UNL     1      35.260  16.994 124.574 -0.35 -0.00    +0.000 A 
DOCKED: ATOM      4  C   UNL     1      33.959  17.038 125.104 -0.35 -0.00    +0.000 A 
DOCKED: ATOM      5  C   UNL     1      33.634  17.946 126.112 -0.32 -0.00    +0.000 A 
DOCKED: ATOM      6  C   UNL     1      34.598  18.823 126.608 -0.20 -0.00    +0.000 A 
DOCKED: ATOM      7  C   UNL     1      35.904  18.798 126.097 -0.17 -0.00    +0.000 A 
DOCKED: ATOM      8  C   UNL     1      36.874  19.677 126.598 -0.11 -0.00    +0.000 A 
DOCKED: ATOM      9  C   UNL     1      38.174  19.650 126.093 -0.12 -0.00    +0.000 A 
DOCKED: ATOM     10  C   UNL     1      38.518  18.750 125.083 -0.16 -0.00    +0.000 A 
DOCKED: ATOM     11  C   UNL     1      37.563  17.858 124.563 -0.15 -0.00    +0.000 A 
DOCKED: ATOM     12  C   UNL     1      36.244  17.879 125.071 -0.17 -0.00    +0.000 A 
DOCKED: ATOM     13  O   UNL     1      34.735  15.219 123.082 -0.41 -0.00    +0.000 OA
DOCKED: ATOM     14  C   UNL     1      37.929  16.902 123.493 -0.26 -0.00    +0.000 C 
DOCKED: ATOM     15  O   UNL     1      39.115  16.864 123.063 -0.25 -0.00    +0.000 OA
DOCKED: ATOM     16  CM  UNL     1      36.598  16.921 123.996 -0.02 -0.00    +0.000 AC
DOCKED: ATOM     17  CM  UNL     1      34.933  17.913 125.594 -0.38 -0.00    +0.000 AC
DOCKED: ATOM     18  CM  UNL     1      37.213  18.769 125.584 -0.00 -0.00    +0.000 AC
DOCKED: ENDROOT
DOCKED: BRANCH   1  16
DOCKED: ATOM     19  C   UNL     1      37.296  15.039 121.911 -0.34 -0.00    +0.000 C 
DOCKED: BRANCH  16  17
DOCKED: ATOM     20  C   UNL     1      36.695  13.669 122.241 -0.43 -0.00    +0.000 C 
DOCKED: BRANCH  17  18
DOCKED: ATOM     21  C   UNL     1      37.335  13.075 123.501 -0.54 -0.00    +0.000 C 
DOCKED: BRANCH  18  19
DOCKED: ATOM     22  C   UNL     1      37.129  11.554 123.556 -0.63 -0.00    +0.000 C 
DOCKED: BRANCH  19  20
DOCKED: ATOM     23  C   UNL     1      36.605  10.989 122.228 -0.64 -0.00    +0.000 C 
DOCKED: BRANCH  20  22
DOCKED: ATOM     24  O   UNL     1      36.949   8.963 121.008 -2.68 -0.00    +0.000 OA
DOCKED: ATOM     25  C   UNL     1      36.803   9.504 122.137 -0.67 -0.00    +0.000 C 
DOCKED: ATOM     26  N   UNL     1      36.861   8.708 123.323 -0.65 -0.00    +0.000 N 
DOCKED: ATOM     27  O   UNL     1      37.058   7.371 123.242 -2.38 -0.00    +0.000 OA
DOCKED: ATOM     28  H   UNL     1      36.759   9.134 124.205 -0.50 -0.00    +0.000 HD
DOCKED: ENDBRANCH  20  22
DOCKED: ENDBRANCH  19  20
DOCKED: ENDBRANCH  18  19
DOCKED: ENDBRANCH  17  18
DOCKED: ENDBRANCH  16  17
DOCKED: ENDBRANCH   1  16
DOCKED: TORSDOF 6DOCKED: TER
DOCKED: ENDMDL
________________________________________________________________________________


	BEGINNING GENETIC ALGORITHM DOCKING 54 of 100
Run: 54 Seed: 2027330813 279750411 [ Run 54 of 100 GA/GALS ]
Beginning LAMARCKIAN GENETIC ALGORITHM (LGA), with a maximum of 2500000 energy evaluations.

Final-Value: -14.952


	FINAL GENETIC ALGORITHM DOCKED STATE
	_______________________________________________


Detailed state:  trans 37.364 14.818 122.366 quatxyzw -0.719788 0.378527 0.510317 0.279640 center -0.023 0.069 -0.054 ntor 6 -143.9847 148.3650 -138.2558 -140.3148 -90.7281 -163.6942
State:	 37.364  14.818 122.366  -0.750  0.394  0.532 147.523   -143.98  148.36 -138.26 -140.31  -90.73 -163.69

DOCKED: MODEL       54
DOCKED: USER    Run = 54
DOCKED: USER    DPF = ligand_dock.biased.dpf
DOCKED: USER  
DOCKED: USER    Estimated Free Energy of Binding    =  -12.44 kcal/mol  [=(1)+(2)+(3)-(4)]
DOCKED: USER    Estimated Inhibition Constant, Ki   =  756.17 pM (picomolar)  [Temperature = 298.15 K]
DOCKED: USER    
DOCKED: USER    (1) Final Intermolecular Energy     =  -14.23 kcal/mol
DOCKED: USER        vdW + Hbond + desolv Energy     =  -14.23 kcal/mol
DOCKED: USER        Electrostatic Energy            =   +0.00 kcal/mol
DOCKED: USER    (2) Final Total Internal Energy     =   -0.72 kcal/mol
DOCKED: USER    (3) Torsional Free Energy           =   +1.79 kcal/mol
DOCKED: USER    (4) Unbound System's Energy  [=(2)] =   -0.72 kcal/mol
DOCKED: USER    
DOCKED: USER    
DOCKED: USER    NEWDPF move ligand.dum.pdbqt
DOCKED: USER    NEWDPF about -0.023000 0.069000 -0.054000
DOCKED: USER    NEWDPF tran0 37.364404 14.817890 122.366209
DOCKED: USER    NEWDPF quaternion0 -0.719788 0.378527 0.510317 0.279640
DOCKED: USER    NEWDPF axisangle0 -0.749697 0.394256 0.531523 147.522561
DOCKED: USER    NEWDPF quat0 -0.749697 0.394256 0.531523 147.522561
DOCKED: USER    NEWDPF dihe0 -143.98 148.36 -138.26 -140.31 -90.73 -163.69 
DOCKED: USER  keepresnum = 1 
DOCKED: USER  
DOCKED: REMARK  Name = 
DOCKED: REMARK  6 active torsions:
DOCKED: REMARK  status: ('A' for Active; 'I' for Inactive)
DOCKED: REMARK    1  A    between atoms: C_2  and  C_5
DOCKED: REMARK    2  A    between atoms: C_5  and  C_6
DOCKED: REMARK    3  A    between atoms: C_6  and  C_7
DOCKED: REMARK    4  A    between atoms: C_7  and  C_8
DOCKED: REMARK    5  A    between atoms: C_8  and  C_9
DOCKED: REMARK    6  A    between atoms: C_9  and  N_10
DOCKED: REMARK                            x       y       z     vdW  Elec       q    Type
DOCKED: REMARK                         _______ _______ _______ _____ _____    ______ ____
DOCKED: USER                              x       y       z     vdW  Elec       q    Type
DOCKED: USER                           _______ _______ _______ _____ _____    ______ ____
DOCKED: ROOT
DOCKED: ATOM      1  N   UNL     1      37.146  14.920 123.254 -0.40 -0.00    +0.000 N 
DOCKED: ATOM      2  C   UNL     1      38.089  16.007 123.296 -0.29 -0.00    +0.000 C 
DOCKED: ATOM      3  C   UNL     1      37.671  17.331 123.813 -0.20 -0.00    +0.000 A 
DOCKED: ATOM      4  C   UNL     1      38.591  18.391 123.888 -0.15 -0.00    +0.000 A 
DOCKED: ATOM      5  C   UNL     1      38.198  19.639 124.375 -0.09 -0.00    +0.000 A 
DOCKED: ATOM      6  C   UNL     1      36.884  19.849 124.792 -0.12 -0.00    +0.000 A 
DOCKED: ATOM      7  C   UNL     1      35.947  18.808 124.726 -0.20 -0.00    +0.000 A 
DOCKED: ATOM      8  C   UNL     1      34.626  19.020 125.144 -0.23 -0.00    +0.000 A 
DOCKED: ATOM      9  C   UNL     1      33.693  17.986 125.075 -0.33 -0.00    +0.000 A 
DOCKED: ATOM     10  C   UNL     1      34.067  16.731 124.592 -0.41 -0.00    +0.000 A 
DOCKED: ATOM     11  C   UNL     1      35.387  16.492 124.168 -0.39 -0.00    +0.000 A 
DOCKED: ATOM     12  C   UNL     1      36.337  17.536 124.234 -0.24 -0.00    +0.000 A 
DOCKED: ATOM     13  O   UNL     1      39.272  15.834 122.891 -0.33 -0.00    +0.000 OA
DOCKED: ATOM     14  C   UNL     1      35.783  15.161 123.655 -0.50 -0.00    +0.000 C 
DOCKED: ATOM     15  O   UNL     1      34.925  14.239 123.567 -0.57 -0.00    +0.000 OA
DOCKED: ATOM     16  CM  UNL     1      36.747  16.206 123.723 +0.00 -0.00    +0.000 AC
DOCKED: ATOM     17  CM  UNL     1      37.271  18.593 124.305 -0.00 -0.00    +0.000 AC
DOCKED: ATOM     18  CM  UNL     1      35.009  17.762 124.657 -0.42 -0.00    +0.000 AC
DOCKED: ENDROOT
DOCKED: BRANCH   1  16
DOCKED: ATOM     19  C   UNL     1      37.540  13.613 122.709 -0.52 -0.00    +0.000 C 
DOCKED: BRANCH  16  17
DOCKED: ATOM     20  C   UNL     1      37.657  12.583 123.837 -0.20 -0.00    +0.000 C 
DOCKED: BRANCH  17  18
DOCKED: ATOM     21  C   UNL     1      36.318  11.882 124.086 -0.64 -0.00    +0.000 C 
DOCKED: BRANCH  18  19
DOCKED: ATOM     22  C   UNL     1      35.601  11.580 122.762 -0.52 -0.00    +0.000 C 
DOCKED: BRANCH  19  20
DOCKED: ATOM     23  C   UNL     1      36.549  10.992 121.708 -0.49 -0.00    +0.000 C 
DOCKED: BRANCH  20  22
DOCKED: ATOM     24  O   UNL     1      36.764   8.735 120.952 -2.53 -0.00    +0.000 OA
DOCKED: ATOM     25  C   UNL     1      36.791   9.527 121.931 -0.65 -0.00    +0.000 C 
DOCKED: ATOM     26  N   UNL     1      37.084   9.034 123.241 -0.63 -0.00    +0.000 N 
DOCKED: ATOM     27  O   UNL     1      37.319   7.716 123.439 -2.62 -0.00    +0.000 OA
DOCKED: ATOM     28  H   UNL     1      37.116   9.657 124.003 -0.52 -0.00    +0.000 HD
DOCKED: ENDBRANCH  20  22
DOCKED: ENDBRANCH  19  20
DOCKED: ENDBRANCH  18  19
DOCKED: ENDBRANCH  17  18
DOCKED: ENDBRANCH  16  17
DOCKED: ENDBRANCH   1  16
DOCKED: TORSDOF 6DOCKED: TER
DOCKED: ENDMDL
________________________________________________________________________________


	BEGINNING GENETIC ALGORITHM DOCKING 55 of 100
Run: 55 Seed: 267171017 683348274 [ Run 55 of 100 GA/GALS ]
Beginning LAMARCKIAN GENETIC ALGORITHM (LGA), with a maximum of 2500000 energy evaluations.

Final-Value: -13.904


	FINAL GENETIC ALGORITHM DOCKED STATE
	_______________________________________________


Detailed state:  trans 38.389 15.908 121.406 quatxyzw -0.314658 -0.270760 -0.903562 -0.106087 center -0.023 0.069 -0.054 ntor 6 -134.3397 -144.6293 177.0772 -45.1585 4.0273 -163.7700
State:	 38.389  15.908 121.406  -0.316 -0.272 -0.909 -167.820   -134.34 -144.63  177.08  -45.16    4.03 -163.77

DOCKED: MODEL       55
DOCKED: USER    Run = 55
DOCKED: USER    DPF = ligand_dock.biased.dpf
DOCKED: USER  
DOCKED: USER    Estimated Free Energy of Binding    =  -11.33 kcal/mol  [=(1)+(2)+(3)-(4)]
DOCKED: USER    Estimated Inhibition Constant, Ki   =    4.95 nM (nanomolar)  [Temperature = 298.15 K]
DOCKED: USER    
DOCKED: USER    (1) Final Intermolecular Energy     =  -13.12 kcal/mol
DOCKED: USER        vdW + Hbond + desolv Energy     =  -13.12 kcal/mol
DOCKED: USER        Electrostatic Energy            =   +0.00 kcal/mol
DOCKED: USER    (2) Final Total Internal Energy     =   -0.78 kcal/mol
DOCKED: USER    (3) Torsional Free Energy           =   +1.79 kcal/mol
DOCKED: USER    (4) Unbound System's Energy  [=(2)] =   -0.78 kcal/mol
DOCKED: USER    
DOCKED: USER    
DOCKED: USER    NEWDPF move ligand.dum.pdbqt
DOCKED: USER    NEWDPF about -0.023000 0.069000 -0.054000
DOCKED: USER    NEWDPF tran0 38.389493 15.908183 121.406335
DOCKED: USER    NEWDPF quaternion0 -0.314658 -0.270760 -0.903562 -0.106087
DOCKED: USER    NEWDPF axisangle0 -0.316443 -0.272297 -0.908690 -167.820369
DOCKED: USER    NEWDPF quat0 -0.316443 -0.272297 -0.908690 -167.820369
DOCKED: USER    NEWDPF dihe0 -134.34 -144.63 177.08 -45.16 4.03 -163.77 
DOCKED: USER  keepresnum = 1 
DOCKED: USER  
DOCKED: REMARK  Name = 
DOCKED: REMARK  6 active torsions:
DOCKED: REMARK  status: ('A' for Active; 'I' for Inactive)
DOCKED: REMARK    1  A    between atoms: C_2  and  C_5
DOCKED: REMARK    2  A    between atoms: C_5  and  C_6
DOCKED: REMARK    3  A    between atoms: C_6  and  C_7
DOCKED: REMARK    4  A    between atoms: C_7  and  C_8
DOCKED: REMARK    5  A    between atoms: C_8  and  C_9
DOCKED: REMARK    6  A    between atoms: C_9  and  N_10
DOCKED: REMARK                            x       y       z     vdW  Elec       q    Type
DOCKED: REMARK                         _______ _______ _______ _____ _____    ______ ____
DOCKED: USER                              x       y       z     vdW  Elec       q    Type
DOCKED: USER                           _______ _______ _______ _____ _____    ______ ____
DOCKED: ROOT
DOCKED: ATOM      1  N   UNL     1      39.062  15.294 121.279 -0.25 -0.00    +0.000 N 
DOCKED: ATOM      2  C   UNL     1      38.873  15.475 119.863 -0.20 -0.00    +0.000 C 
DOCKED: ATOM      3  C   UNL     1      40.029  15.805 118.998 -0.09 -0.00    +0.000 A 
DOCKED: ATOM      4  C   UNL     1      39.863  15.953 117.609 -0.14 -0.00    +0.000 A 
DOCKED: ATOM      5  C   UNL     1      40.952  16.264 116.794 -0.18 -0.00    +0.000 A 
DOCKED: ATOM      6  C   UNL     1      42.221  16.433 117.347 -0.18 -0.00    +0.000 A 
DOCKED: ATOM      7  C   UNL     1      42.412  16.291 118.729 -0.16 -0.00    +0.000 A 
DOCKED: ATOM      8  C   UNL     1      43.687  16.463 119.286 -0.16 -0.00    +0.000 A 
DOCKED: ATOM      9  C   UNL     1      43.878  16.326 120.660 -0.22 -0.00    +0.000 A 
DOCKED: ATOM     10  C   UNL     1      42.801  16.014 121.493 -0.30 -0.00    +0.000 A 
DOCKED: ATOM     11  C   UNL     1      41.513  15.836 120.959 -0.19 -0.00    +0.000 A 
DOCKED: ATOM     12  C   UNL     1      41.312  15.974 119.567 -0.11 -0.00    +0.000 A 
DOCKED: ATOM     13  O   UNL     1      37.723  15.355 119.358 -0.21 -0.00    +0.000 OA
DOCKED: ATOM     14  C   UNL     1      40.371  15.506 121.842 -0.36 -0.00    +0.000 C 
DOCKED: ATOM     15  O   UNL     1      40.546  15.413 123.089 -0.52 -0.00    +0.000 OA
DOCKED: ATOM     16  CM  UNL     1      40.163  15.639 120.441 +0.00 -0.00    +0.000 AC
DOCKED: ATOM     17  CM  UNL     1      41.132  16.120 118.174 +0.00 -0.00    +0.000 AC
DOCKED: ATOM     18  CM  UNL     1      42.601  16.151 120.116 +0.00 -0.00    +0.000 AC
DOCKED: ENDROOT
DOCKED: BRANCH   1  16
DOCKED: ATOM     19  C   UNL     1      37.916  15.003 122.152 -0.37 -0.00    +0.000 C 
DOCKED: BRANCH  16  17
DOCKED: ATOM     20  C   UNL     1      37.975  13.550 122.635 -0.47 -0.00    +0.000 C 
DOCKED: BRANCH  17  18
DOCKED: ATOM     21  C   UNL     1      36.739  13.195 123.468 -0.61 -0.00    +0.000 C 
DOCKED: BRANCH  18  19
DOCKED: ATOM     22  C   UNL     1      36.175  11.826 123.058 -0.68 -0.00    +0.000 C 
DOCKED: BRANCH  19  20
DOCKED: ATOM     23  C   UNL     1      36.992  11.173 121.935 -0.56 -0.00    +0.000 C 
DOCKED: BRANCH  20  22
DOCKED: ATOM     24  O   UNL     1      37.026   8.965 121.021 -2.70 -0.00    +0.000 OA
DOCKED: ATOM     25  C   UNL     1      37.017   9.677 122.061 -0.60 -0.00    +0.000 C 
DOCKED: ATOM     26  N   UNL     1      37.063   9.060 123.350 -0.61 -0.00    +0.000 N 
DOCKED: ATOM     27  O   UNL     1      37.102   7.712 123.463 -2.68 -0.00    +0.000 OA
DOCKED: ATOM     28  H   UNL     1      37.068   9.619 124.160 -0.57 -0.00    +0.000 HD
DOCKED: ENDBRANCH  20  22
DOCKED: ENDBRANCH  19  20
DOCKED: ENDBRANCH  18  19
DOCKED: ENDBRANCH  17  18
DOCKED: ENDBRANCH  16  17
DOCKED: ENDBRANCH   1  16
DOCKED: TORSDOF 6DOCKED: TER
DOCKED: ENDMDL
________________________________________________________________________________


	BEGINNING GENETIC ALGORITHM DOCKING 56 of 100
Run: 56 Seed: 1140486529 485209876 [ Run 56 of 100 GA/GALS ]
Beginning LAMARCKIAN GENETIC ALGORITHM (LGA), with a maximum of 2500000 energy evaluations.

Final-Value: -13.513


	FINAL GENETIC ALGORITHM DOCKED STATE
	_______________________________________________


Detailed state:  trans 37.322 13.858 123.952 quatxyzw -0.539026 0.219048 -0.600558 -0.548451 center -0.023 0.069 -0.054 ntor 6 56.9042 132.0764 -55.1703 -68.5122 11.8061 161.0326
State:	 37.322  13.858 123.952  -0.645  0.262 -0.718 -113.478     56.90  132.08  -55.17  -68.51   11.81  161.03

DOCKED: MODEL       56
DOCKED: USER    Run = 56
DOCKED: USER    DPF = ligand_dock.biased.dpf
DOCKED: USER  
DOCKED: USER    Estimated Free Energy of Binding    =  -11.15 kcal/mol  [=(1)+(2)+(3)-(4)]
DOCKED: USER    Estimated Inhibition Constant, Ki   =    6.73 nM (nanomolar)  [Temperature = 298.15 K]
DOCKED: USER    
DOCKED: USER    (1) Final Intermolecular Energy     =  -12.94 kcal/mol
DOCKED: USER        vdW + Hbond + desolv Energy     =  -12.94 kcal/mol
DOCKED: USER        Electrostatic Energy            =   +0.00 kcal/mol
DOCKED: USER    (2) Final Total Internal Energy     =   -0.57 kcal/mol
DOCKED: USER    (3) Torsional Free Energy           =   +1.79 kcal/mol
DOCKED: USER    (4) Unbound System's Energy  [=(2)] =   -0.57 kcal/mol
DOCKED: USER    
DOCKED: USER    
DOCKED: USER    NEWDPF move ligand.dum.pdbqt
DOCKED: USER    NEWDPF about -0.023000 0.069000 -0.054000
DOCKED: USER    NEWDPF tran0 37.322179 13.858338 123.952103
DOCKED: USER    NEWDPF quaternion0 -0.539026 0.219048 -0.600558 -0.548451
DOCKED: USER    NEWDPF axisangle0 -0.644627 0.261962 -0.718215 -113.478319
DOCKED: USER    NEWDPF quat0 -0.644627 0.261962 -0.718215 -113.478319
DOCKED: USER    NEWDPF dihe0 56.90 132.08 -55.17 -68.51 11.81 161.03 
DOCKED: USER  keepresnum = 1 
DOCKED: USER  
DOCKED: REMARK  Name = 
DOCKED: REMARK  6 active torsions:
DOCKED: REMARK  status: ('A' for Active; 'I' for Inactive)
DOCKED: REMARK    1  A    between atoms: C_2  and  C_5
DOCKED: REMARK    2  A    between atoms: C_5  and  C_6
DOCKED: REMARK    3  A    between atoms: C_6  and  C_7
DOCKED: REMARK    4  A    between atoms: C_7  and  C_8
DOCKED: REMARK    5  A    between atoms: C_8  and  C_9
DOCKED: REMARK    6  A    between atoms: C_9  and  N_10
DOCKED: REMARK                            x       y       z     vdW  Elec       q    Type
DOCKED: REMARK                         _______ _______ _______ _____ _____    ______ ____
DOCKED: USER                              x       y       z     vdW  Elec       q    Type
DOCKED: USER                           _______ _______ _______ _____ _____    ______ ____
DOCKED: ROOT
DOCKED: ATOM      1  N   UNL     1      37.438  14.149 123.087 -0.46 -0.00    +0.000 N 
DOCKED: ATOM      2  C   UNL     1      36.137  14.758 123.184 -0.46 -0.00    +0.000 C 
DOCKED: ATOM      3  C   UNL     1      35.962  16.190 122.850 -0.31 -0.00    +0.000 A 
DOCKED: ATOM      4  C   UNL     1      34.692  16.789 122.910 -0.37 -0.00    +0.000 A 
DOCKED: ATOM      5  C   UNL     1      34.527  18.138 122.596 -0.25 -0.00    +0.000 A 
DOCKED: ATOM      6  C   UNL     1      35.623  18.912 122.217 -0.20 -0.00    +0.000 A 
DOCKED: ATOM      7  C   UNL     1      36.902  18.339 122.150 -0.13 -0.00    +0.000 A 
DOCKED: ATOM      8  C   UNL     1      38.004  19.117 121.771 -0.07 -0.00    +0.000 A 
DOCKED: ATOM      9  C   UNL     1      39.276  18.548 121.708 -0.05 -0.00    +0.000 A 
DOCKED: ATOM     10  C   UNL     1      39.461  17.200 122.018 -0.14 -0.00    +0.000 A 
DOCKED: ATOM     11  C   UNL     1      38.371  16.398 122.399 -0.21 -0.00    +0.000 A 
DOCKED: ATOM     12  C   UNL     1      37.079  16.967 122.467 -0.19 -0.00    +0.000 A 
DOCKED: ATOM     13  O   UNL     1      35.144  14.073 123.556 -0.59 -0.00    +0.000 OA
DOCKED: ATOM     14  C   UNL     1      38.568  14.968 122.729 -0.40 -0.00    +0.000 C 
DOCKED: ATOM     15  O   UNL     1      39.727  14.468 122.698 -0.91 -0.00    +0.000 OA
DOCKED: ATOM     16  CM  UNL     1      37.264  15.533 122.794 +0.00 -0.00    +0.000 AC
DOCKED: ATOM     17  CM  UNL     1      35.797  17.556 122.531 +0.00 -0.00    +0.000 AC
DOCKED: ATOM     18  CM  UNL     1      38.183  17.762 122.085 +0.00 -0.00    +0.000 AC
DOCKED: ENDROOT
DOCKED: BRANCH   1  16
DOCKED: ATOM     19  C   UNL     1      37.629  12.738 123.452 -0.48 -0.00    +0.000 C 
DOCKED: BRANCH  16  17
DOCKED: ATOM     20  C   UNL     1      37.030  11.828 122.375 -0.60 -0.00    +0.000 C 
DOCKED: BRANCH  17  18
DOCKED: ATOM     21  C   UNL     1      36.955  10.375 122.859 -0.61 -0.00    +0.000 C 
DOCKED: BRANCH  18  19
DOCKED: ATOM     22  C   UNL     1      35.495   9.936 123.053 -0.62 -0.00    +0.000 C 
DOCKED: BRANCH  19  20
DOCKED: ATOM     23  C   UNL     1      35.179   8.627 122.318 -0.67 -0.00    +0.000 C 
DOCKED: BRANCH  20  22
DOCKED: ATOM     24  O   UNL     1      37.066   7.702 123.456 -2.69 -0.00    +0.000 OA
DOCKED: ATOM     25  C   UNL     1      35.981   7.477 122.857 -0.77 -0.00    +0.000 C 
DOCKED: ATOM     26  N   UNL     1      35.504   6.136 122.722 -0.66 -0.00    +0.000 N 
DOCKED: ATOM     27  O   UNL     1      36.218   5.102 123.223 -1.06 -0.00    +0.000 OA
DOCKED: ATOM     28  H   UNL     1      34.650   5.964 122.264 -0.04 -0.00    +0.000 HD
DOCKED: ENDBRANCH  20  22
DOCKED: ENDBRANCH  19  20
DOCKED: ENDBRANCH  18  19
DOCKED: ENDBRANCH  17  18
DOCKED: ENDBRANCH  16  17
DOCKED: ENDBRANCH   1  16
DOCKED: TORSDOF 6DOCKED: TER
DOCKED: ENDMDL
________________________________________________________________________________


	BEGINNING GENETIC ALGORITHM DOCKING 57 of 100
Run: 57 Seed: 903314230 57339134 [ Run 57 of 100 GA/GALS ]
Beginning LAMARCKIAN GENETIC ALGORITHM (LGA), with a maximum of 2500000 energy evaluations.

Final-Value: -13.174


	FINAL GENETIC ALGORITHM DOCKED STATE
	_______________________________________________


Detailed state:  trans 38.243 15.353 119.154 quatxyzw 0.958885 -0.129533 0.194759 -0.160715 center -0.023 0.069 -0.054 ntor 6 78.3113 -14.2696 77.6335 49.1352 -106.0268 174.7060
State:	 38.243  15.353 119.154   0.972 -0.131  0.197 -161.503     78.31  -14.27   77.63   49.14 -106.03  174.71

DOCKED: MODEL       57
DOCKED: USER    Run = 57
DOCKED: USER    DPF = ligand_dock.biased.dpf
DOCKED: USER  
DOCKED: USER    Estimated Free Energy of Binding    =  -10.45 kcal/mol  [=(1)+(2)+(3)-(4)]
DOCKED: USER    Estimated Inhibition Constant, Ki   =   22.04 nM (nanomolar)  [Temperature = 298.15 K]
DOCKED: USER    
DOCKED: USER    (1) Final Intermolecular Energy     =  -12.24 kcal/mol
DOCKED: USER        vdW + Hbond + desolv Energy     =  -12.24 kcal/mol
DOCKED: USER        Electrostatic Energy            =   +0.00 kcal/mol
DOCKED: USER    (2) Final Total Internal Energy     =   -0.94 kcal/mol
DOCKED: USER    (3) Torsional Free Energy           =   +1.79 kcal/mol
DOCKED: USER    (4) Unbound System's Energy  [=(2)] =   -0.94 kcal/mol
DOCKED: USER    
DOCKED: USER    
DOCKED: USER    NEWDPF move ligand.dum.pdbqt
DOCKED: USER    NEWDPF about -0.023000 0.069000 -0.054000
DOCKED: USER    NEWDPF tran0 38.243162 15.352996 119.153988
DOCKED: USER    NEWDPF quaternion0 0.958885 -0.129533 0.194759 -0.160715
DOCKED: USER    NEWDPF axisangle0 0.971514 -0.131239 0.197324 -161.503228
DOCKED: USER    NEWDPF quat0 0.971514 -0.131239 0.197324 -161.503228
DOCKED: USER    NEWDPF dihe0 78.31 -14.27 77.63 49.14 -106.03 174.71 
DOCKED: USER  keepresnum = 1 
DOCKED: USER  
DOCKED: REMARK  Name = 
DOCKED: REMARK  6 active torsions:
DOCKED: REMARK  status: ('A' for Active; 'I' for Inactive)
DOCKED: REMARK    1  A    between atoms: C_2  and  C_5
DOCKED: REMARK    2  A    between atoms: C_5  and  C_6
DOCKED: REMARK    3  A    between atoms: C_6  and  C_7
DOCKED: REMARK    4  A    between atoms: C_7  and  C_8
DOCKED: REMARK    5  A    between atoms: C_8  and  C_9
DOCKED: REMARK    6  A    between atoms: C_9  and  N_10
DOCKED: REMARK                            x       y       z     vdW  Elec       q    Type
DOCKED: REMARK                         _______ _______ _______ _____ _____    ______ ____
DOCKED: USER                              x       y       z     vdW  Elec       q    Type
DOCKED: USER                           _______ _______ _______ _____ _____    ______ ____
DOCKED: ROOT
DOCKED: ATOM      1  N   UNL     1      37.472  14.852 119.160 -0.23 -0.00    +0.000 N 
DOCKED: ATOM      2  C   UNL     1      36.758  16.068 119.447 -0.18 -0.00    +0.000 C 
DOCKED: ATOM      3  C   UNL     1      35.604  16.466 118.607 -0.09 -0.00    +0.000 A 
DOCKED: ATOM      4  C   UNL     1      34.879  17.635 118.896 -0.13 -0.00    +0.000 A 
DOCKED: ATOM      5  C   UNL     1      33.792  18.010 118.105 -0.16 -0.00    +0.000 A 
DOCKED: ATOM      6  C   UNL     1      33.412  17.228 117.015 -0.13 -0.00    +0.000 A 
DOCKED: ATOM      7  C   UNL     1      34.119  16.058 116.705 -0.16 -0.00    +0.000 A 
DOCKED: ATOM      8  C   UNL     1      33.738  15.272 115.609 -0.19 -0.00    +0.000 A 
DOCKED: ATOM      9  C   UNL     1      34.443  14.110 115.298 -0.26 -0.00    +0.000 A 
DOCKED: ATOM     10  C   UNL     1      35.533  13.718 116.078 -0.20 -0.00    +0.000 A 
DOCKED: ATOM     11  C   UNL     1      35.935  14.487 117.184 -0.30 -0.00    +0.000 A 
DOCKED: ATOM     12  C   UNL     1      35.225  15.667 117.504 -0.16 -0.00    +0.000 A 
DOCKED: ATOM     13  O   UNL     1      37.115  16.799 120.413 -0.16 -0.00    +0.000 OA
DOCKED: ATOM     14  C   UNL     1      37.091  14.071 118.010 -0.37 -0.00    +0.000 C 
DOCKED: ATOM     15  O   UNL     1      37.742  13.035 117.704 -0.47 -0.00    +0.000 OA
DOCKED: ATOM     16  CM  UNL     1      36.378  15.258 118.341 +0.00 -0.00    +0.000 AC
DOCKED: ATOM     17  CM  UNL     1      34.505  16.844 117.806 +0.00 -0.00    +0.000 AC
DOCKED: ATOM     18  CM  UNL     1      34.832  14.885 116.396 +0.00 -0.00    +0.000 AC
DOCKED: ENDROOT
DOCKED: BRANCH   1  16
DOCKED: ATOM     19  C   UNL     1      38.641  14.467 119.964 -0.23 -0.00    +0.000 C 
DOCKED: BRANCH  16  17
DOCKED: ATOM     20  C   UNL     1      38.197  13.670 121.195 -0.42 -0.00    +0.000 C 
DOCKED: BRANCH  17  18
DOCKED: ATOM     21  C   UNL     1      37.767  12.251 120.809 -0.47 -0.00    +0.000 C 
DOCKED: BRANCH  18  19
DOCKED: ATOM     22  C   UNL     1      36.401  11.904 121.422 -0.46 -0.00    +0.000 C 
DOCKED: BRANCH  19  20
DOCKED: ATOM     23  C   UNL     1      36.533  11.063 122.699 -0.68 -0.00    +0.000 C 
DOCKED: BRANCH  20  22
DOCKED: ATOM     24  O   UNL     1      36.691   9.216 121.191 -2.63 -0.00    +0.000 OA
DOCKED: ATOM     25  C   UNL     1      36.707   9.604 122.390 -0.71 -0.00    +0.000 C 
DOCKED: ATOM     26  N   UNL     1      36.922   8.662 123.443 -0.64 -0.00    +0.000 N 
DOCKED: ATOM     27  O   UNL     1      37.096   7.350 123.163 -2.34 -0.00    +0.000 OA
DOCKED: ATOM     28  H   UNL     1      36.945   8.970 124.378 -0.47 -0.00    +0.000 HD
DOCKED: ENDBRANCH  20  22
DOCKED: ENDBRANCH  19  20
DOCKED: ENDBRANCH  18  19
DOCKED: ENDBRANCH  17  18
DOCKED: ENDBRANCH  16  17
DOCKED: ENDBRANCH   1  16
DOCKED: TORSDOF 6DOCKED: TER
DOCKED: ENDMDL
________________________________________________________________________________


	BEGINNING GENETIC ALGORITHM DOCKING 58 of 100
Run: 58 Seed: 653860078 68459200 [ Run 58 of 100 GA/GALS ]
Beginning LAMARCKIAN GENETIC ALGORITHM (LGA), with a maximum of 2500000 energy evaluations.

Final-Value: -14.059


	FINAL GENETIC ALGORITHM DOCKED STATE
	_______________________________________________


Detailed state:  trans 38.772 15.930 122.185 quatxyzw 0.399660 0.259983 0.870414 0.122719 center -0.023 0.069 -0.054 ntor 6 -72.5357 163.4926 -106.6872 -23.5472 -66.9351 133.7166
State:	 38.772  15.930 122.185   0.403  0.262  0.877 165.902    -72.54  163.49 -106.69  -23.55  -66.94  133.72

DOCKED: MODEL       58
DOCKED: USER    Run = 58
DOCKED: USER    DPF = ligand_dock.biased.dpf
DOCKED: USER  
DOCKED: USER    Estimated Free Energy of Binding    =  -11.63 kcal/mol  [=(1)+(2)+(3)-(4)]
DOCKED: USER    Estimated Inhibition Constant, Ki   =    2.97 nM (nanomolar)  [Temperature = 298.15 K]
DOCKED: USER    
DOCKED: USER    (1) Final Intermolecular Energy     =  -13.42 kcal/mol
DOCKED: USER        vdW + Hbond + desolv Energy     =  -13.42 kcal/mol
DOCKED: USER        Electrostatic Energy            =   +0.00 kcal/mol
DOCKED: USER    (2) Final Total Internal Energy     =   -0.64 kcal/mol
DOCKED: USER    (3) Torsional Free Energy           =   +1.79 kcal/mol
DOCKED: USER    (4) Unbound System's Energy  [=(2)] =   -0.64 kcal/mol
DOCKED: USER    
DOCKED: USER    
DOCKED: USER    NEWDPF move ligand.dum.pdbqt
DOCKED: USER    NEWDPF about -0.023000 0.069000 -0.054000
DOCKED: USER    NEWDPF tran0 38.772074 15.929571 122.184768
DOCKED: USER    NEWDPF quaternion0 0.399660 0.259983 0.870414 0.122719
DOCKED: USER    NEWDPF axisangle0 0.402704 0.261963 0.877043 165.901938
DOCKED: USER    NEWDPF quat0 0.402704 0.261963 0.877043 165.901938
DOCKED: USER    NEWDPF dihe0 -72.54 163.49 -106.69 -23.55 -66.94 133.72 
DOCKED: USER  keepresnum = 1 
DOCKED: USER  
DOCKED: REMARK  Name = 
DOCKED: REMARK  6 active torsions:
DOCKED: REMARK  status: ('A' for Active; 'I' for Inactive)
DOCKED: REMARK    1  A    between atoms: C_2  and  C_5
DOCKED: REMARK    2  A    between atoms: C_5  and  C_6
DOCKED: REMARK    3  A    between atoms: C_6  and  C_7
DOCKED: REMARK    4  A    between atoms: C_7  and  C_8
DOCKED: REMARK    5  A    between atoms: C_8  and  C_9
DOCKED: REMARK    6  A    between atoms: C_9  and  N_10
DOCKED: REMARK                            x       y       z     vdW  Elec       q    Type
DOCKED: REMARK                         _______ _______ _______ _____ _____    ______ ____
DOCKED: USER                              x       y       z     vdW  Elec       q    Type
DOCKED: USER                           _______ _______ _______ _____ _____    ______ ____
DOCKED: ROOT
DOCKED: ATOM      1  N   UNL     1      39.400  15.304 121.940 -0.31 -0.00    +0.000 N 
DOCKED: ATOM      2  C   UNL     1      38.955  15.482 120.582 -0.23 -0.00    +0.000 C 
DOCKED: ATOM      3  C   UNL     1      39.936  15.788 119.515 -0.12 -0.00    +0.000 A 
DOCKED: ATOM      4  C   UNL     1      39.519  15.933 118.180 -0.13 -0.00    +0.000 A 
DOCKED: ATOM      5  C   UNL     1      40.442  16.223 117.175 -0.15 -0.00    +0.000 A 
DOCKED: ATOM      6  C   UNL     1      41.794  16.374 117.483 -0.17 -0.00    +0.000 A 
DOCKED: ATOM      7  C   UNL     1      42.236  16.235 118.807 -0.15 -0.00    +0.000 A 
DOCKED: ATOM      8  C   UNL     1      43.594  16.389 119.117 -0.17 -0.00    +0.000 A 
DOCKED: ATOM      9  C   UNL     1      44.033  16.255 120.434 -0.21 -0.00    +0.000 A 
DOCKED: ATOM     10  C   UNL     1      43.125  15.965 121.453 -0.29 -0.00    +0.000 A 
DOCKED: ATOM     11  C   UNL     1      41.757  15.805 121.168 -0.23 -0.00    +0.000 A 
DOCKED: ATOM     12  C   UNL     1      41.304  15.940 119.836 -0.09 -0.00    +0.000 A 
DOCKED: ATOM     13  O   UNL     1      37.730  15.378 120.299 -0.23 -0.00    +0.000 OA
DOCKED: ATOM     14  C   UNL     1      40.794  15.497 122.250 -0.43 -0.00    +0.000 C 
DOCKED: ATOM     15  O   UNL     1      41.195  15.408 123.443 -0.85 +0.00    +0.000 OA
DOCKED: ATOM     16  CM  UNL     1      40.332  15.627 120.910 +0.00 -0.00    +0.000 AC
DOCKED: ATOM     17  CM  UNL     1      40.872  16.082 118.499 +0.00 -0.00    +0.000 AC
DOCKED: ATOM     18  CM  UNL     1      42.675  16.098 120.136 +0.00 -0.00    +0.000 AC
DOCKED: ENDROOT
DOCKED: BRANCH   1  16
DOCKED: ATOM     19  C   UNL     1      38.431  15.035 123.012 -0.35 -0.00    +0.000 C 
DOCKED: BRANCH  16  17
DOCKED: ATOM     20  C   UNL     1      37.440  13.954 122.570 -0.49 -0.00    +0.000 C 
DOCKED: BRANCH  17  18
DOCKED: ATOM     21  C   UNL     1      37.619  12.672 123.390 -0.47 -0.00    +0.000 C 
DOCKED: BRANCH  18  19
DOCKED: ATOM     22  C   UNL     1      36.333  11.831 123.383 -0.70 -0.00    +0.000 C 
DOCKED: BRANCH  19  20
DOCKED: ATOM     23  C   UNL     1      36.137  11.079 122.059 -0.60 -0.00    +0.000 C 
DOCKED: BRANCH  20  22
DOCKED: ATOM     24  O   UNL     1      37.066   9.107 121.079 -2.73 -0.00    +0.000 OA
DOCKED: ATOM     25  C   UNL     1      36.670   9.677 122.130 -0.68 -0.00    +0.000 C 
DOCKED: ATOM     26  N   UNL     1      36.761   9.001 123.387 -0.58 -0.00    +0.000 N 
DOCKED: ATOM     27  O   UNL     1      37.257   7.744 123.453 -2.64 -0.00    +0.000 OA
DOCKED: ATOM     28  H   UNL     1      36.462   9.453 124.209 -0.40 -0.00    +0.000 HD
DOCKED: ENDBRANCH  20  22
DOCKED: ENDBRANCH  19  20
DOCKED: ENDBRANCH  18  19
DOCKED: ENDBRANCH  17  18
DOCKED: ENDBRANCH  16  17
DOCKED: ENDBRANCH   1  16
DOCKED: TORSDOF 6DOCKED: TER
DOCKED: ENDMDL
________________________________________________________________________________


	BEGINNING GENETIC ALGORITHM DOCKING 59 of 100
Run: 59 Seed: 415917685 1075886348 [ Run 59 of 100 GA/GALS ]
Beginning LAMARCKIAN GENETIC ALGORITHM (LGA), with a maximum of 2500000 energy evaluations.

Final-Value: -14.912


	FINAL GENETIC ALGORITHM DOCKED STATE
	_______________________________________________


Detailed state:  trans 38.173 15.118 121.893 quatxyzw 0.358740 -0.622717 -0.689825 -0.087581 center -0.023 0.069 -0.054 ntor 6 -171.3305 -170.0796 -155.3783 -101.5264 -29.1881 177.9353
State:	 38.173  15.118 121.893   0.360 -0.625 -0.692 -169.951   -171.33 -170.08 -155.38 -101.53  -29.19  177.94

DOCKED: MODEL       59
DOCKED: USER    Run = 59
DOCKED: USER    DPF = ligand_dock.biased.dpf
DOCKED: USER  
DOCKED: USER    Estimated Free Energy of Binding    =  -12.31 kcal/mol  [=(1)+(2)+(3)-(4)]
DOCKED: USER    Estimated Inhibition Constant, Ki   =  946.90 pM (picomolar)  [Temperature = 298.15 K]
DOCKED: USER    
DOCKED: USER    (1) Final Intermolecular Energy     =  -14.10 kcal/mol
DOCKED: USER        vdW + Hbond + desolv Energy     =  -14.10 kcal/mol
DOCKED: USER        Electrostatic Energy            =   +0.00 kcal/mol
DOCKED: USER    (2) Final Total Internal Energy     =   -0.81 kcal/mol
DOCKED: USER    (3) Torsional Free Energy           =   +1.79 kcal/mol
DOCKED: USER    (4) Unbound System's Energy  [=(2)] =   -0.81 kcal/mol
DOCKED: USER    
DOCKED: USER    
DOCKED: USER    NEWDPF move ligand.dum.pdbqt
DOCKED: USER    NEWDPF about -0.023000 0.069000 -0.054000
DOCKED: USER    NEWDPF tran0 38.172955 15.118127 121.892774
DOCKED: USER    NEWDPF quaternion0 0.358740 -0.622717 -0.689825 -0.087581
DOCKED: USER    NEWDPF axisangle0 0.360124 -0.625119 -0.692486 -169.951072
DOCKED: USER    NEWDPF quat0 0.360124 -0.625119 -0.692486 -169.951072
DOCKED: USER    NEWDPF dihe0 -171.33 -170.08 -155.38 -101.53 -29.19 177.94 
DOCKED: USER  keepresnum = 1 
DOCKED: USER  
DOCKED: REMARK  Name = 
DOCKED: REMARK  6 active torsions:
DOCKED: REMARK  status: ('A' for Active; 'I' for Inactive)
DOCKED: REMARK    1  A    between atoms: C_2  and  C_5
DOCKED: REMARK    2  A    between atoms: C_5  and  C_6
DOCKED: REMARK    3  A    between atoms: C_6  and  C_7
DOCKED: REMARK    4  A    between atoms: C_7  and  C_8
DOCKED: REMARK    5  A    between atoms: C_8  and  C_9
DOCKED: REMARK    6  A    between atoms: C_9  and  N_10
DOCKED: REMARK                            x       y       z     vdW  Elec       q    Type
DOCKED: REMARK                         _______ _______ _______ _____ _____    ______ ____
DOCKED: USER                              x       y       z     vdW  Elec       q    Type
DOCKED: USER                           _______ _______ _______ _____ _____    ______ ____
DOCKED: ROOT
DOCKED: ATOM      1  N   UNL     1      38.424  15.243 122.769 -0.34 -0.00    +0.000 N 
DOCKED: ATOM      2  C   UNL     1      39.788  15.100 122.333 -0.42 -0.00    +0.000 C 
DOCKED: ATOM      3  C   UNL     1      40.790  16.134 122.682 -0.34 -0.00    +0.000 A 
DOCKED: ATOM      4  C   UNL     1      42.132  15.990 122.288 -0.39 -0.00    +0.000 A 
DOCKED: ATOM      5  C   UNL     1      43.076  16.964 122.616 -0.34 -0.00    +0.000 A 
DOCKED: ATOM      6  C   UNL     1      42.698  18.095 123.339 -0.09 -0.00    +0.000 A 
DOCKED: ATOM      7  C   UNL     1      41.365  18.263 123.742 -0.24 -0.00    +0.000 A 
DOCKED: ATOM      8  C   UNL     1      40.985  19.401 124.467 -0.15 -0.00    +0.000 A 
DOCKED: ATOM      9  C   UNL     1      39.659  19.569 124.865 -0.11 -0.00    +0.000 A 
DOCKED: ATOM     10  C   UNL     1      38.700  18.605 124.547 -0.16 -0.00    +0.000 A 
DOCKED: ATOM     11  C   UNL     1      39.057  17.454 123.822 -0.21 -0.00    +0.000 A 
DOCKED: ATOM     12  C   UNL     1      40.398  17.277 123.414 -0.25 -0.00    +0.000 A 
DOCKED: ATOM     13  O   UNL     1      40.133  14.094 121.652 -0.95 -0.00    +0.000 OA
DOCKED: ATOM     14  C   UNL     1      38.039  16.433 123.484 -0.27 -0.00    +0.000 C 
DOCKED: ATOM     15  O   UNL     1      36.836  16.607 123.822 -0.33 -0.00    +0.000 OA
DOCKED: ATOM     16  CM  UNL     1      39.389  16.246 123.075 +0.00 -0.00    +0.000 AC
DOCKED: ATOM     17  CM  UNL     1      41.744  17.121 123.014 +0.00 -0.00    +0.000 AC
DOCKED: ATOM     18  CM  UNL     1      40.027  18.429 124.143 +0.00 -0.00    +0.000 AC
DOCKED: ENDROOT
DOCKED: BRANCH   1  16
DOCKED: ATOM     19  C   UNL     1      37.414  14.241 122.397 -0.45 -0.00    +0.000 C 
DOCKED: BRANCH  16  17
DOCKED: ATOM     20  C   UNL     1      37.346  13.140 123.460 -0.56 -0.00    +0.000 C 
DOCKED: BRANCH  17  18
DOCKED: ATOM     21  C   UNL     1      35.942  12.529 123.534 -0.64 -0.00    +0.000 C 
DOCKED: BRANCH  18  19
DOCKED: ATOM     22  C   UNL     1      35.717  11.528 122.391 -0.46 -0.00    +0.000 C 
DOCKED: BRANCH  19  20
DOCKED: ATOM     23  C   UNL     1      37.026  10.882 121.917 -0.54 -0.00    +0.000 C 
DOCKED: BRANCH  20  22
DOCKED: ATOM     24  O   UNL     1      36.910   8.672 121.015 -2.49 -0.00    +0.000 OA
DOCKED: ATOM     25  C   UNL     1      36.990   9.387 122.050 -0.65 -0.00    +0.000 C 
DOCKED: ATOM     26  N   UNL     1      37.078   8.772 123.337 -0.65 -0.00    +0.000 N 
DOCKED: ATOM     27  O   UNL     1      37.062   7.424 123.455 -2.48 -0.00    +0.000 OA
DOCKED: ATOM     28  H   UNL     1      37.152   9.333 124.143 -0.58 -0.00    +0.000 HD
DOCKED: ENDBRANCH  20  22
DOCKED: ENDBRANCH  19  20
DOCKED: ENDBRANCH  18  19
DOCKED: ENDBRANCH  17  18
DOCKED: ENDBRANCH  16  17
DOCKED: ENDBRANCH   1  16
DOCKED: TORSDOF 6DOCKED: TER
DOCKED: ENDMDL
________________________________________________________________________________


	BEGINNING GENETIC ALGORITHM DOCKING 60 of 100
Run: 60 Seed: 1844934757 1503589784 [ Run 60 of 100 GA/GALS ]
Beginning LAMARCKIAN GENETIC ALGORITHM (LGA), with a maximum of 2500000 energy evaluations.

Final-Value: -13.587


	FINAL GENETIC ALGORITHM DOCKED STATE
	_______________________________________________


Detailed state:  trans 36.829 15.405 121.989 quatxyzw -0.410652 0.531535 0.197084 0.714138 center -0.023 0.069 -0.054 ntor 6 -152.1099 -128.4710 -159.6391 -5.3698 65.7505 1.7274
State:	 36.829  15.405 121.989  -0.587  0.759  0.282 88.855   -152.11 -128.47 -159.64   -5.37   65.75    1.73

DOCKED: MODEL       60
DOCKED: USER    Run = 60
DOCKED: USER    DPF = ligand_dock.biased.dpf
DOCKED: USER  
DOCKED: USER    Estimated Free Energy of Binding    =  -11.02 kcal/mol  [=(1)+(2)+(3)-(4)]
DOCKED: USER    Estimated Inhibition Constant, Ki   =    8.34 nM (nanomolar)  [Temperature = 298.15 K]
DOCKED: USER    
DOCKED: USER    (1) Final Intermolecular Energy     =  -12.81 kcal/mol
DOCKED: USER        vdW + Hbond + desolv Energy     =  -12.81 kcal/mol
DOCKED: USER        Electrostatic Energy            =   +0.00 kcal/mol
DOCKED: USER    (2) Final Total Internal Energy     =   -0.78 kcal/mol
DOCKED: USER    (3) Torsional Free Energy           =   +1.79 kcal/mol
DOCKED: USER    (4) Unbound System's Energy  [=(2)] =   -0.78 kcal/mol
DOCKED: USER    
DOCKED: USER    
DOCKED: USER    NEWDPF move ligand.dum.pdbqt
DOCKED: USER    NEWDPF about -0.023000 0.069000 -0.054000
DOCKED: USER    NEWDPF tran0 36.829356 15.405054 121.989403
DOCKED: USER    NEWDPF quaternion0 -0.410652 0.531535 0.197084 0.714138
DOCKED: USER    NEWDPF axisangle0 -0.586642 0.759330 0.281547 88.854740
DOCKED: USER    NEWDPF quat0 -0.586642 0.759330 0.281547 88.854740
DOCKED: USER    NEWDPF dihe0 -152.11 -128.47 -159.64 -5.37 65.75 1.73 
DOCKED: USER  keepresnum = 1 
DOCKED: USER  
DOCKED: REMARK  Name = 
DOCKED: REMARK  6 active torsions:
DOCKED: REMARK  status: ('A' for Active; 'I' for Inactive)
DOCKED: REMARK    1  A    between atoms: C_2  and  C_5
DOCKED: REMARK    2  A    between atoms: C_5  and  C_6
DOCKED: REMARK    3  A    between atoms: C_6  and  C_7
DOCKED: REMARK    4  A    between atoms: C_7  and  C_8
DOCKED: REMARK    5  A    between atoms: C_8  and  C_9
DOCKED: REMARK    6  A    between atoms: C_9  and  N_10
DOCKED: REMARK                            x       y       z     vdW  Elec       q    Type
DOCKED: REMARK                         _______ _______ _______ _____ _____    ______ ____
DOCKED: USER                              x       y       z     vdW  Elec       q    Type
DOCKED: USER                           _______ _______ _______ _____ _____    ______ ____
DOCKED: ROOT
DOCKED: ATOM      1  N   UNL     1      36.584  16.269 122.186 -0.24 -0.00    +0.000 N 
DOCKED: ATOM      2  C   UNL     1      37.297  16.673 121.001 -0.17 -0.00    +0.000 C 
DOCKED: ATOM      3  C   UNL     1      36.622  17.507 119.979 -0.12 -0.00    +0.000 A 
DOCKED: ATOM      4  C   UNL     1      37.316  17.934 118.834 -0.06 -0.00    +0.000 A 
DOCKED: ATOM      5  C   UNL     1      36.681  18.719 117.870 -0.04 -0.00    +0.000 A 
DOCKED: ATOM      6  C   UNL     1      35.347  19.090 118.033 -0.09 -0.00    +0.000 A 
DOCKED: ATOM      7  C   UNL     1      34.632  18.676 119.166 -0.20 -0.00    +0.000 A 
DOCKED: ATOM      8  C   UNL     1      33.290  19.047 119.328 -0.28 -0.00    +0.000 A 
DOCKED: ATOM      9  C   UNL     1      32.578  18.633 120.453 -0.34 -0.00    +0.000 A 
DOCKED: ATOM     10  C   UNL     1      33.196  17.848 121.429 -0.18 -0.00    +0.000 A 
DOCKED: ATOM     11  C   UNL     1      34.541  17.463 121.290 -0.21 -0.00    +0.000 A 
DOCKED: ATOM     12  C   UNL     1      35.269  17.878 120.152 -0.21 -0.00    +0.000 A 
DOCKED: ATOM     13  O   UNL     1      38.495  16.316 120.831 -0.15 -0.00    +0.000 OA
DOCKED: ATOM     14  C   UNL     1      35.196  16.630 122.324 -0.29 -0.00    +0.000 C 
DOCKED: ATOM     15  O   UNL     1      34.536  16.234 123.324 -0.50 -0.00    +0.000 OA
DOCKED: ATOM     16  CM  UNL     1      35.936  17.049 121.183 +0.00 -0.00    +0.000 AC
DOCKED: ATOM     17  CM  UNL     1      35.978  18.301 119.005 +0.00 -0.00    +0.000 AC
DOCKED: ATOM     18  CM  UNL     1      33.917  18.258 120.303 +0.00 -0.00    +0.000 AC
DOCKED: ENDROOT
DOCKED: BRANCH   1  16
DOCKED: ATOM     19  C   UNL     1      37.233  15.412 123.188 -0.39 -0.00    +0.000 C 
DOCKED: BRANCH  16  17
DOCKED: ATOM     20  C   UNL     1      37.074  13.938 122.805 -0.51 -0.00    +0.000 C 
DOCKED: BRANCH  17  18
DOCKED: ATOM     21  C   UNL     1      36.202  13.193 123.823 -0.60 -0.00    +0.000 C 
DOCKED: BRANCH  18  19
DOCKED: ATOM     22  C   UNL     1      35.942  11.748 123.370 -0.68 -0.00    +0.000 C 
DOCKED: BRANCH  19  20
DOCKED: ATOM     23  C   UNL     1      37.018  11.239 122.401 -0.59 -0.00    +0.000 C 
DOCKED: BRANCH  20  22
DOCKED: ATOM     24  O   UNL     1      36.938   9.206 121.148 -2.70 -0.00    +0.000 OA
DOCKED: ATOM     25  C   UNL     1      37.002   9.742 122.287 -0.61 -0.00    +0.000 C 
DOCKED: ATOM     26  N   UNL     1      37.090   8.926 123.457 -0.59 -0.00    +0.000 N 
DOCKED: ATOM     27  O   UNL     1      37.093   7.577 123.352 -2.55 -0.00    +0.000 OA
DOCKED: ATOM     28  H   UNL     1      37.152   9.348 124.344 -0.54 -0.00    +0.000 HD
DOCKED: ENDBRANCH  20  22
DOCKED: ENDBRANCH  19  20
DOCKED: ENDBRANCH  18  19
DOCKED: ENDBRANCH  17  18
DOCKED: ENDBRANCH  16  17
DOCKED: ENDBRANCH   1  16
DOCKED: TORSDOF 6DOCKED: TER
DOCKED: ENDMDL
________________________________________________________________________________


	BEGINNING GENETIC ALGORITHM DOCKING 61 of 100
Run: 61 Seed: 1469079907 2108878302 [ Run 61 of 100 GA/GALS ]
Beginning LAMARCKIAN GENETIC ALGORITHM (LGA), with a maximum of 2500000 energy evaluations.

Final-Value: -13.516


	FINAL GENETIC ALGORITHM DOCKED STATE
	_______________________________________________


Detailed state:  trans 37.868 12.915 122.934 quatxyzw -0.773643 0.443492 -0.445156 0.081410 center -0.023 0.069 -0.054 ntor 6 -12.6555 169.1230 152.7463 -5.6054 117.6670 -120.1526
State:	 37.868  12.915 122.934  -0.776  0.445 -0.447 170.661    -12.66  169.12  152.75   -5.61  117.67 -120.15

DOCKED: MODEL       61
DOCKED: USER    Run = 61
DOCKED: USER    DPF = ligand_dock.biased.dpf
DOCKED: USER  
DOCKED: USER    Estimated Free Energy of Binding    =  -11.16 kcal/mol  [=(1)+(2)+(3)-(4)]
DOCKED: USER    Estimated Inhibition Constant, Ki   =    6.60 nM (nanomolar)  [Temperature = 298.15 K]
DOCKED: USER    
DOCKED: USER    (1) Final Intermolecular Energy     =  -12.95 kcal/mol
DOCKED: USER        vdW + Hbond + desolv Energy     =  -12.95 kcal/mol
DOCKED: USER        Electrostatic Energy            =   +0.00 kcal/mol
DOCKED: USER    (2) Final Total Internal Energy     =   -0.57 kcal/mol
DOCKED: USER    (3) Torsional Free Energy           =   +1.79 kcal/mol
DOCKED: USER    (4) Unbound System's Energy  [=(2)] =   -0.57 kcal/mol
DOCKED: USER    
DOCKED: USER    
DOCKED: USER    NEWDPF move ligand.dum.pdbqt
DOCKED: USER    NEWDPF about -0.023000 0.069000 -0.054000
DOCKED: USER    NEWDPF tran0 37.867976 12.914793 122.934254
DOCKED: USER    NEWDPF quaternion0 -0.773643 0.443492 -0.445156 0.081410
DOCKED: USER    NEWDPF axisangle0 -0.776219 0.444969 -0.446638 170.660728
DOCKED: USER    NEWDPF quat0 -0.776219 0.444969 -0.446638 170.660728
DOCKED: USER    NEWDPF dihe0 -12.66 169.12 152.75 -5.61 117.67 -120.15 
DOCKED: USER  keepresnum = 1 
DOCKED: USER  
DOCKED: REMARK  Name = 
DOCKED: REMARK  6 active torsions:
DOCKED: REMARK  status: ('A' for Active; 'I' for Inactive)
DOCKED: REMARK    1  A    between atoms: C_2  and  C_5
DOCKED: REMARK    2  A    between atoms: C_5  and  C_6
DOCKED: REMARK    3  A    between atoms: C_6  and  C_7
DOCKED: REMARK    4  A    between atoms: C_7  and  C_8
DOCKED: REMARK    5  A    between atoms: C_8  and  C_9
DOCKED: REMARK    6  A    between atoms: C_9  and  N_10
DOCKED: REMARK                            x       y       z     vdW  Elec       q    Type
DOCKED: REMARK                         _______ _______ _______ _____ _____    ______ ____
DOCKED: USER                              x       y       z     vdW  Elec       q    Type
DOCKED: USER                           _______ _______ _______ _____ _____    ______ ____
DOCKED: ROOT
DOCKED: ATOM      1  N   UNL     1      37.163  12.904 122.344 -0.49 -0.00    +0.000 N 
DOCKED: ATOM      2  C   UNL     1      37.057  14.326 122.544 -0.45 -0.00    +0.000 C 
DOCKED: ATOM      3  C   UNL     1      37.047  15.240 121.378 -0.23 -0.00    +0.000 A 
DOCKED: ATOM      4  C   UNL     1      36.913  16.627 121.558 -0.17 -0.00    +0.000 A 
DOCKED: ATOM      5  C   UNL     1      36.904  17.488 120.459 -0.12 -0.00    +0.000 A 
DOCKED: ATOM      6  C   UNL     1      37.030  16.981 119.167 -0.11 -0.00    +0.000 A 
DOCKED: ATOM      7  C   UNL     1      37.167  15.601 118.960 -0.18 -0.00    +0.000 A 
DOCKED: ATOM      8  C   UNL     1      37.295  15.091 117.661 -0.21 -0.00    +0.000 A 
DOCKED: ATOM      9  C   UNL     1      37.435  13.719 117.455 -0.35 -0.00    +0.000 A 
DOCKED: ATOM     10  C   UNL     1      37.445  12.841 118.541 -0.26 -0.00    +0.000 A 
DOCKED: ATOM     11  C   UNL     1      37.316  13.327 119.855 -0.40 -0.00    +0.000 A 
DOCKED: ATOM     12  C   UNL     1      37.175  14.717 120.071 -0.24 -0.00    +0.000 A 
DOCKED: ATOM     13  O   UNL     1      36.973  14.797 123.712 -0.49 -0.00    +0.000 OA
DOCKED: ATOM     14  C   UNL     1      37.327  12.397 121.006 -0.53 -0.00    +0.000 C 
DOCKED: ATOM     15  O   UNL     1      37.484  11.159 120.814 -0.66 -0.00    +0.000 OA
DOCKED: ATOM     16  CM  UNL     1      37.180  13.794 121.230 +0.00 -0.00    +0.000 AC
DOCKED: ATOM     17  CM  UNL     1      37.039  16.109 120.265 +0.00 -0.00    +0.000 AC
DOCKED: ATOM     18  CM  UNL     1      37.305  14.216 118.757 +0.00 -0.00    +0.000 AC
DOCKED: ENDROOT
DOCKED: BRANCH   1  16
DOCKED: ATOM     19  C   UNL     1      37.210  11.992 123.496 -0.61 -0.00    +0.000 C 
DOCKED: BRANCH  16  17
DOCKED: ATOM     20  C   UNL     1      36.646  10.622 123.108 -0.68 -0.00    +0.000 C 
DOCKED: BRANCH  17  18
DOCKED: ATOM     21  C   UNL     1      35.172  10.726 122.701 -0.50 -0.00    +0.000 C 
DOCKED: BRANCH  18  19
DOCKED: ATOM     22  C   UNL     1      34.647   9.376 122.189 -0.61 -0.00    +0.000 C 
DOCKED: BRANCH  19  20
DOCKED: ATOM     23  C   UNL     1      35.772   8.477 121.659 -0.63 -0.00    +0.000 C 
DOCKED: BRANCH  20  22
DOCKED: ATOM     24  O   UNL     1      37.117   7.665 123.460 -2.65 -0.00    +0.000 OA
DOCKED: ATOM     25  C   UNL     1      36.170   7.433 122.662 -0.78 -0.00    +0.000 C 
DOCKED: ATOM     26  N   UNL     1      35.461   6.194 122.737 -0.67 -0.00    +0.000 N 
DOCKED: ATOM     27  O   UNL     1      35.808   5.260 123.652 -0.92 -0.00    +0.000 OA
DOCKED: ATOM     28  H   UNL     1      34.714   6.020 122.120 -0.03 -0.00    +0.000 HD
DOCKED: ENDBRANCH  20  22
DOCKED: ENDBRANCH  19  20
DOCKED: ENDBRANCH  18  19
DOCKED: ENDBRANCH  17  18
DOCKED: ENDBRANCH  16  17
DOCKED: ENDBRANCH   1  16
DOCKED: TORSDOF 6DOCKED: TER
DOCKED: ENDMDL
________________________________________________________________________________


	BEGINNING GENETIC ALGORITHM DOCKING 62 of 100
Run: 62 Seed: 497535185 1990311736 [ Run 62 of 100 GA/GALS ]
Beginning LAMARCKIAN GENETIC ALGORITHM (LGA), with a maximum of 2500000 energy evaluations.

Final-Value: -15.112


	FINAL GENETIC ALGORITHM DOCKED STATE
	_______________________________________________


Detailed state:  trans 38.182 15.078 121.851 quatxyzw 0.339141 -0.605851 -0.711922 -0.105329 center -0.023 0.069 -0.054 ntor 6 -152.0654 -155.9998 -179.5895 -90.0123 -36.1650 -175.7666
State:	 38.182  15.078 121.851   0.341 -0.609 -0.716 -167.908   -152.07 -156.00 -179.59  -90.01  -36.17 -175.77

DOCKED: MODEL       62
DOCKED: USER    Run = 62
DOCKED: USER    DPF = ligand_dock.biased.dpf
DOCKED: USER  
DOCKED: USER    Estimated Free Energy of Binding    =  -12.52 kcal/mol  [=(1)+(2)+(3)-(4)]
DOCKED: USER    Estimated Inhibition Constant, Ki   =  668.62 pM (picomolar)  [Temperature = 298.15 K]
DOCKED: USER    
DOCKED: USER    (1) Final Intermolecular Energy     =  -14.31 kcal/mol
DOCKED: USER        vdW + Hbond + desolv Energy     =  -14.31 kcal/mol
DOCKED: USER        Electrostatic Energy            =   +0.00 kcal/mol
DOCKED: USER    (2) Final Total Internal Energy     =   -0.81 kcal/mol
DOCKED: USER    (3) Torsional Free Energy           =   +1.79 kcal/mol
DOCKED: USER    (4) Unbound System's Energy  [=(2)] =   -0.81 kcal/mol
DOCKED: USER    
DOCKED: USER    
DOCKED: USER    NEWDPF move ligand.dum.pdbqt
DOCKED: USER    NEWDPF about -0.023000 0.069000 -0.054000
DOCKED: USER    NEWDPF tran0 38.182350 15.077657 121.850790
DOCKED: USER    NEWDPF quaternion0 0.339141 -0.605851 -0.711922 -0.105329
DOCKED: USER    NEWDPF axisangle0 0.341038 -0.609240 -0.715904 -167.907717
DOCKED: USER    NEWDPF quat0 0.341038 -0.609240 -0.715904 -167.907717
DOCKED: USER    NEWDPF dihe0 -152.07 -156.00 -179.59 -90.01 -36.17 -175.77 
DOCKED: USER  keepresnum = 1 
DOCKED: USER  
DOCKED: REMARK  Name = 
DOCKED: REMARK  6 active torsions:
DOCKED: REMARK  status: ('A' for Active; 'I' for Inactive)
DOCKED: REMARK    1  A    between atoms: C_2  and  C_5
DOCKED: REMARK    2  A    between atoms: C_5  and  C_6
DOCKED: REMARK    3  A    between atoms: C_6  and  C_7
DOCKED: REMARK    4  A    between atoms: C_7  and  C_8
DOCKED: REMARK    5  A    between atoms: C_8  and  C_9
DOCKED: REMARK    6  A    between atoms: C_9  and  N_10
DOCKED: REMARK                            x       y       z     vdW  Elec       q    Type
DOCKED: REMARK                         _______ _______ _______ _____ _____    ______ ____
DOCKED: USER                              x       y       z     vdW  Elec       q    Type
DOCKED: USER                           _______ _______ _______ _____ _____    ______ ____
DOCKED: ROOT
DOCKED: ATOM      1  N   UNL     1      38.491  15.174 122.712 -0.35 -0.00    +0.000 N 
DOCKED: ATOM      2  C   UNL     1      39.824  15.059 122.179 -0.41 -0.00    +0.000 C 
DOCKED: ATOM      3  C   UNL     1      40.840  16.090 122.495 -0.33 -0.00    +0.000 A 
DOCKED: ATOM      4  C   UNL     1      42.153  15.973 122.008 -0.36 -0.00    +0.000 A 
DOCKED: ATOM      5  C   UNL     1      43.110  16.944 122.305 -0.31 -0.00    +0.000 A 
DOCKED: ATOM      6  C   UNL     1      42.774  18.046 123.090 -0.20 -0.00    +0.000 A 
DOCKED: ATOM      7  C   UNL     1      41.470  18.187 123.588 -0.24 -0.00    +0.000 A 
DOCKED: ATOM      8  C   UNL     1      41.132  19.296 124.376 -0.16 -0.00    +0.000 A 
DOCKED: ATOM      9  C   UNL     1      39.835  19.438 124.869 -0.13 -0.00    +0.000 A 
DOCKED: ATOM     10  C   UNL     1      38.864  18.477 124.583 -0.17 -0.00    +0.000 A 
DOCKED: ATOM     11  C   UNL     1      39.179  17.355 123.796 -0.21 -0.00    +0.000 A 
DOCKED: ATOM     12  C   UNL     1      40.491  17.204 123.292 -0.25 -0.00    +0.000 A 
DOCKED: ATOM     13  O   UNL     1      40.128  14.081 121.442 -0.83 -0.00    +0.000 OA
DOCKED: ATOM     14  C   UNL     1      38.148  16.335 123.493 -0.26 -0.00    +0.000 C 
DOCKED: ATOM     15  O   UNL     1      36.969  16.487 123.917 -0.34 -0.00    +0.000 OA
DOCKED: ATOM     16  CM  UNL     1      39.468  16.175 122.987 +0.00 -0.00    +0.000 AC
DOCKED: ATOM     17  CM  UNL     1      41.807  17.074 122.796 +0.00 -0.00    +0.000 AC
DOCKED: ATOM     18  CM  UNL     1      40.162  18.326 124.084 +0.00 -0.00    +0.000 AC
DOCKED: ENDROOT
DOCKED: BRANCH   1  16
DOCKED: ATOM     19  C   UNL     1      37.466  14.176 122.375 -0.46 -0.00    +0.000 C 
DOCKED: BRANCH  16  17
DOCKED: ATOM     20  C   UNL     1      37.371  13.122 123.481 -0.54 -0.00    +0.000 C 
DOCKED: BRANCH  17  18
DOCKED: ATOM     21  C   UNL     1      35.922  12.666 123.687 -0.61 -0.00    +0.000 C 
DOCKED: BRANCH  18  19
DOCKED: ATOM     22  C   UNL     1      35.593  11.460 122.793 -0.57 -0.00    +0.000 C 
DOCKED: BRANCH  19  20
DOCKED: ATOM     23  C   UNL     1      36.814  10.974 121.999 -0.60 -0.00    +0.000 C 
DOCKED: BRANCH  20  22
DOCKED: ATOM     24  O   UNL     1      37.054   8.842 120.948 -2.71 -0.00    +0.000 OA
DOCKED: ATOM     25  C   UNL     1      36.938   9.478 122.029 -0.64 -0.00    +0.000 C 
DOCKED: ATOM     26  N   UNL     1      36.959   8.779 123.275 -0.66 -0.00    +0.000 N 
DOCKED: ATOM     27  O   UNL     1      37.088   7.432 123.303 -2.43 -0.00    +0.000 OA
DOCKED: ATOM     28  H   UNL     1      36.880   9.280 124.119 -0.52 -0.00    +0.000 HD
DOCKED: ENDBRANCH  20  22
DOCKED: ENDBRANCH  19  20
DOCKED: ENDBRANCH  18  19
DOCKED: ENDBRANCH  17  18
DOCKED: ENDBRANCH  16  17
DOCKED: ENDBRANCH   1  16
DOCKED: TORSDOF 6DOCKED: TER
DOCKED: ENDMDL
________________________________________________________________________________


	BEGINNING GENETIC ALGORITHM DOCKING 63 of 100
Run: 63 Seed: 539555652 341826756 [ Run 63 of 100 GA/GALS ]
Beginning LAMARCKIAN GENETIC ALGORITHM (LGA), with a maximum of 2500000 energy evaluations.

Final-Value: -14.112


	FINAL GENETIC ALGORITHM DOCKED STATE
	_______________________________________________


Detailed state:  trans 38.090 14.584 120.659 quatxyzw 0.368737 -0.698557 0.423761 -0.443259 center -0.023 0.069 -0.054 ntor 6 -158.4732 -117.2598 177.7704 -40.2993 34.0497 -9.6374
State:	 38.090  14.584 120.659   0.411 -0.779  0.473 -127.376   -158.47 -117.26  177.77  -40.30   34.05   -9.64

DOCKED: MODEL       63
DOCKED: USER    Run = 63
DOCKED: USER    DPF = ligand_dock.biased.dpf
DOCKED: USER  
DOCKED: USER    Estimated Free Energy of Binding    =  -11.40 kcal/mol  [=(1)+(2)+(3)-(4)]
DOCKED: USER    Estimated Inhibition Constant, Ki   =    4.43 nM (nanomolar)  [Temperature = 298.15 K]
DOCKED: USER    
DOCKED: USER    (1) Final Intermolecular Energy     =  -13.19 kcal/mol
DOCKED: USER        vdW + Hbond + desolv Energy     =  -13.19 kcal/mol
DOCKED: USER        Electrostatic Energy            =   +0.00 kcal/mol
DOCKED: USER    (2) Final Total Internal Energy     =   -0.92 kcal/mol
DOCKED: USER    (3) Torsional Free Energy           =   +1.79 kcal/mol
DOCKED: USER    (4) Unbound System's Energy  [=(2)] =   -0.92 kcal/mol
DOCKED: USER    
DOCKED: USER    
DOCKED: USER    NEWDPF move ligand.dum.pdbqt
DOCKED: USER    NEWDPF about -0.023000 0.069000 -0.054000
DOCKED: USER    NEWDPF tran0 38.089553 14.583529 120.659086
DOCKED: USER    NEWDPF quaternion0 0.368737 -0.698557 0.423761 -0.443259
DOCKED: USER    NEWDPF axisangle0 0.411356 -0.779297 0.472740 -127.375975
DOCKED: USER    NEWDPF quat0 0.411356 -0.779297 0.472740 -127.375975
DOCKED: USER    NEWDPF dihe0 -158.47 -117.26 177.77 -40.30 34.05 -9.64 
DOCKED: USER  keepresnum = 1 
DOCKED: USER  
DOCKED: REMARK  Name = 
DOCKED: REMARK  6 active torsions:
DOCKED: REMARK  status: ('A' for Active; 'I' for Inactive)
DOCKED: REMARK    1  A    between atoms: C_2  and  C_5
DOCKED: REMARK    2  A    between atoms: C_5  and  C_6
DOCKED: REMARK    3  A    between atoms: C_6  and  C_7
DOCKED: REMARK    4  A    between atoms: C_7  and  C_8
DOCKED: REMARK    5  A    between atoms: C_8  and  C_9
DOCKED: REMARK    6  A    between atoms: C_9  and  N_10
DOCKED: REMARK                            x       y       z     vdW  Elec       q    Type
DOCKED: REMARK                         _______ _______ _______ _____ _____    ______ ____
DOCKED: USER                              x       y       z     vdW  Elec       q    Type
DOCKED: USER                           _______ _______ _______ _____ _____    ______ ____
DOCKED: ROOT
DOCKED: ATOM      1  N   UNL     1      37.689  14.999 119.943 -0.23 -0.00    +0.000 N 
DOCKED: ATOM      2  C   UNL     1      38.949  15.650 119.696 -0.18 -0.00    +0.000 C 
DOCKED: ATOM      3  C   UNL     1      39.568  15.580 118.352 -0.09 -0.00    +0.000 A 
DOCKED: ATOM      4  C   UNL     1      40.783  16.238 118.090 -0.13 -0.00    +0.000 A 
DOCKED: ATOM      5  C   UNL     1      41.367  16.172 116.825 -0.20 -0.00    +0.000 A 
DOCKED: ATOM      6  C   UNL     1      40.752  15.451 115.802 -0.28 -0.00    +0.000 A 
DOCKED: ATOM      7  C   UNL     1      39.541  14.785 116.038 -0.29 -0.00    +0.000 A 
DOCKED: ATOM      8  C   UNL     1      38.923  14.058 115.011 -0.35 -0.00    +0.000 A 
DOCKED: ATOM      9  C   UNL     1      37.720  13.393 115.246 -0.41 -0.00    +0.000 A 
DOCKED: ATOM     10  C   UNL     1      37.120  13.448 116.505 -0.35 -0.00    +0.000 A 
DOCKED: ATOM     11  C   UNL     1      37.719  14.171 117.552 -0.29 -0.00    +0.000 A 
DOCKED: ATOM     12  C   UNL     1      38.938  14.847 117.322 -0.10 -0.00    +0.000 A 
DOCKED: ATOM     13  O   UNL     1      39.528  16.279 120.624 -0.17 -0.00    +0.000 OA
DOCKED: ATOM     14  C   UNL     1      37.082  14.228 118.888 -0.35 -0.00    +0.000 C 
DOCKED: ATOM     15  O   UNL     1      36.009  13.598 119.101 -0.25 -0.00    +0.000 OA
DOCKED: ATOM     16  CM  UNL     1      38.307  14.915 118.661 +0.00 -0.00    +0.000 AC
DOCKED: ATOM     17  CM  UNL     1      40.158  15.513 117.071 +0.00 -0.00    +0.000 AC
DOCKED: ATOM     18  CM  UNL     1      38.327  14.117 116.279 +0.00 -0.00    +0.000 AC
DOCKED: ENDROOT
DOCKED: BRANCH   1  16
DOCKED: ATOM     19  C   UNL     1      37.084  15.031 121.282 -0.28 -0.00    +0.000 C 
DOCKED: BRANCH  16  17
DOCKED: ATOM     20  C   UNL     1      37.415  13.744 122.044 -0.47 -0.00    +0.000 C 
DOCKED: BRANCH  17  18
DOCKED: ATOM     21  C   UNL     1      36.259  13.332 122.962 -0.52 -0.00    +0.000 C 
DOCKED: BRANCH  18  19
DOCKED: ATOM     22  C   UNL     1      36.055  11.810 122.939 -0.65 -0.00    +0.000 C 
DOCKED: BRANCH  19  20
DOCKED: ATOM     23  C   UNL     1      37.067  11.101 122.028 -0.54 -0.00    +0.000 C 
DOCKED: BRANCH  20  22
DOCKED: ATOM     24  O   UNL     1      36.697   8.936 121.086 -2.61 -0.00    +0.000 OA
DOCKED: ATOM     25  C   UNL     1      36.949   9.607 122.122 -0.63 -0.00    +0.000 C 
DOCKED: ATOM     26  N   UNL     1      37.153   8.942 123.371 -0.59 -0.00    +0.000 N 
DOCKED: ATOM     27  O   UNL     1      37.064   7.594 123.452 -2.61 -0.00    +0.000 OA
DOCKED: ATOM     28  H   UNL     1      37.362   9.468 124.177 -0.61 -0.00    +0.000 HD
DOCKED: ENDBRANCH  20  22
DOCKED: ENDBRANCH  19  20
DOCKED: ENDBRANCH  18  19
DOCKED: ENDBRANCH  17  18
DOCKED: ENDBRANCH  16  17
DOCKED: ENDBRANCH   1  16
DOCKED: TORSDOF 6DOCKED: TER
DOCKED: ENDMDL
________________________________________________________________________________


	BEGINNING GENETIC ALGORITHM DOCKING 64 of 100
Run: 64 Seed: 1856517828 713244672 [ Run 64 of 100 GA/GALS ]
Beginning LAMARCKIAN GENETIC ALGORITHM (LGA), with a maximum of 2500000 energy evaluations.

Final-Value: -14.116


	FINAL GENETIC ALGORITHM DOCKED STATE
	_______________________________________________


Detailed state:  trans 37.365 13.437 122.212 quatxyzw -0.621594 0.459240 0.534168 0.342614 center -0.023 0.069 -0.054 ntor 6 56.6578 24.5309 -18.3718 -158.8887 -43.1091 -135.3341
State:	 37.365  13.437 122.212  -0.662  0.489  0.569 139.928     56.66   24.53  -18.37 -158.89  -43.11 -135.33

DOCKED: MODEL       64
DOCKED: USER    Run = 64
DOCKED: USER    DPF = ligand_dock.biased.dpf
DOCKED: USER  
DOCKED: USER    Estimated Free Energy of Binding    =  -11.74 kcal/mol  [=(1)+(2)+(3)-(4)]
DOCKED: USER    Estimated Inhibition Constant, Ki   =    2.50 nM (nanomolar)  [Temperature = 298.15 K]
DOCKED: USER    
DOCKED: USER    (1) Final Intermolecular Energy     =  -13.53 kcal/mol
DOCKED: USER        vdW + Hbond + desolv Energy     =  -13.53 kcal/mol
DOCKED: USER        Electrostatic Energy            =   +0.00 kcal/mol
DOCKED: USER    (2) Final Total Internal Energy     =   -0.59 kcal/mol
DOCKED: USER    (3) Torsional Free Energy           =   +1.79 kcal/mol
DOCKED: USER    (4) Unbound System's Energy  [=(2)] =   -0.59 kcal/mol
DOCKED: USER    
DOCKED: USER    
DOCKED: USER    NEWDPF move ligand.dum.pdbqt
DOCKED: USER    NEWDPF about -0.023000 0.069000 -0.054000
DOCKED: USER    NEWDPF tran0 37.365296 13.436795 122.211960
DOCKED: USER    NEWDPF quaternion0 -0.621594 0.459240 0.534168 0.342614
DOCKED: USER    NEWDPF axisangle0 -0.661639 0.488825 0.568581 139.927633
DOCKED: USER    NEWDPF quat0 -0.661639 0.488825 0.568581 139.927633
DOCKED: USER    NEWDPF dihe0 56.66 24.53 -18.37 -158.89 -43.11 -135.33 
DOCKED: USER  keepresnum = 1 
DOCKED: USER  
DOCKED: REMARK  Name = 
DOCKED: REMARK  6 active torsions:
DOCKED: REMARK  status: ('A' for Active; 'I' for Inactive)
DOCKED: REMARK    1  A    between atoms: C_2  and  C_5
DOCKED: REMARK    2  A    between atoms: C_5  and  C_6
DOCKED: REMARK    3  A    between atoms: C_6  and  C_7
DOCKED: REMARK    4  A    between atoms: C_7  and  C_8
DOCKED: REMARK    5  A    between atoms: C_8  and  C_9
DOCKED: REMARK    6  A    between atoms: C_9  and  N_10
DOCKED: REMARK                            x       y       z     vdW  Elec       q    Type
DOCKED: REMARK                         _______ _______ _______ _____ _____    ______ ____
DOCKED: USER                              x       y       z     vdW  Elec       q    Type
DOCKED: USER                           _______ _______ _______ _____ _____    ______ ____
DOCKED: ROOT
DOCKED: ATOM      1  N   UNL     1      37.297  13.745 123.076 -0.49 -0.00    +0.000 N 
DOCKED: ATOM      2  C   UNL     1      38.363  14.662 122.766 -0.43 -0.00    +0.000 C 
DOCKED: ATOM      3  C   UNL     1      38.195  16.110 123.030 -0.26 -0.00    +0.000 A 
DOCKED: ATOM      4  C   UNL     1      39.239  17.011 122.761 -0.20 -0.00    +0.000 A 
DOCKED: ATOM      5  C   UNL     1      39.081  18.376 123.009 -0.11 -0.00    +0.000 A 
DOCKED: ATOM      6  C   UNL     1      37.881  18.862 123.527 -0.11 -0.00    +0.000 A 
DOCKED: ATOM      7  C   UNL     1      36.824  17.984 123.802 -0.19 -0.00    +0.000 A 
DOCKED: ATOM      8  C   UNL     1      35.617  18.474 124.320 -0.23 -0.00    +0.000 A 
DOCKED: ATOM      9  C   UNL     1      34.563  17.601 124.591 -0.36 -0.00    +0.000 A 
DOCKED: ATOM     10  C   UNL     1      34.702  16.233 124.351 -0.47 -0.00    +0.000 A 
DOCKED: ATOM     11  C   UNL     1      35.903  15.716 123.833 -0.40 -0.00    +0.000 A 
DOCKED: ATOM     12  C   UNL     1      36.975  16.595 123.555 -0.26 -0.00    +0.000 A 
DOCKED: ATOM     13  O   UNL     1      39.441  14.234 122.269 -0.83 -0.00    +0.000 OA
DOCKED: ATOM     14  C   UNL     1      36.050  14.265 123.577 -0.54 -0.00    +0.000 C 
DOCKED: ATOM     15  O   UNL     1      35.082  13.486 123.796 -0.48 -0.00    +0.000 OA
DOCKED: ATOM     16  CM  UNL     1      37.135  15.144 123.300 +0.00 -0.00    +0.000 AC
DOCKED: ATOM     17  CM  UNL     1      38.033  17.490 123.281 +0.00 -0.00    +0.000 AC
DOCKED: ATOM     18  CM  UNL     1      35.764  17.101 124.076 -0.11 -0.00    +0.000 AC
DOCKED: ENDROOT
DOCKED: BRANCH   1  16
DOCKED: ATOM     19  C   UNL     1      37.440  12.311 122.784 -0.54 -0.00    +0.000 C 
DOCKED: BRANCH  16  17
DOCKED: ATOM     20  C   UNL     1      36.907  11.478 123.954 -0.62 -0.00    +0.000 C 
DOCKED: BRANCH  17  18
DOCKED: ATOM     21  C   UNL     1      36.067  10.297 123.454 -0.51 -0.00    +0.000 C 
DOCKED: BRANCH  18  19
DOCKED: ATOM     22  C   UNL     1      36.412   9.957 121.996 -0.61 -0.00    +0.000 C 
DOCKED: BRANCH  19  20
DOCKED: ATOM     23  C   UNL     1      35.884   8.577 121.580 -0.58 -0.00    +0.000 C 
DOCKED: BRANCH  20  22
DOCKED: ATOM     24  O   UNL     1      37.073   7.714 123.465 -2.69 -0.00    +0.000 OA
DOCKED: ATOM     25  C   UNL     1      36.139   7.541 122.636 -0.77 -0.00    +0.000 C 
DOCKED: ATOM     26  N   UNL     1      35.311   6.380 122.726 -0.67 -0.00    +0.000 N 
DOCKED: ATOM     27  O   UNL     1      35.531   5.455 123.689 -1.02 -0.00    +0.000 OA
DOCKED: ATOM     28  H   UNL     1      34.575   6.253 122.085 -0.03 -0.00    +0.000 HD
DOCKED: ENDBRANCH  20  22
DOCKED: ENDBRANCH  19  20
DOCKED: ENDBRANCH  18  19
DOCKED: ENDBRANCH  17  18
DOCKED: ENDBRANCH  16  17
DOCKED: ENDBRANCH   1  16
DOCKED: TORSDOF 6DOCKED: TER
DOCKED: ENDMDL
________________________________________________________________________________


	BEGINNING GENETIC ALGORITHM DOCKING 65 of 100
Run: 65 Seed: 1172862259 1490675485 [ Run 65 of 100 GA/GALS ]
Beginning LAMARCKIAN GENETIC ALGORITHM (LGA), with a maximum of 2500000 energy evaluations.

Final-Value: -13.782


	FINAL GENETIC ALGORITHM DOCKED STATE
	_______________________________________________


Detailed state:  trans 38.743 14.025 121.137 quatxyzw -0.331885 0.924079 -0.188523 0.019747 center -0.023 0.069 -0.054 ntor 6 -77.4568 155.7590 -153.1281 -75.3772 -67.1339 19.3775
State:	 38.743  14.025 121.137  -0.332  0.924 -0.189 177.737    -77.46  155.76 -153.13  -75.38  -67.13   19.38

DOCKED: MODEL       65
DOCKED: USER    Run = 65
DOCKED: USER    DPF = ligand_dock.biased.dpf
DOCKED: USER  
DOCKED: USER    Estimated Free Energy of Binding    =  -11.15 kcal/mol  [=(1)+(2)+(3)-(4)]
DOCKED: USER    Estimated Inhibition Constant, Ki   =    6.76 nM (nanomolar)  [Temperature = 298.15 K]
DOCKED: USER    
DOCKED: USER    (1) Final Intermolecular Energy     =  -12.94 kcal/mol
DOCKED: USER        vdW + Hbond + desolv Energy     =  -12.94 kcal/mol
DOCKED: USER        Electrostatic Energy            =   +0.00 kcal/mol
DOCKED: USER    (2) Final Total Internal Energy     =   -0.85 kcal/mol
DOCKED: USER    (3) Torsional Free Energy           =   +1.79 kcal/mol
DOCKED: USER    (4) Unbound System's Energy  [=(2)] =   -0.85 kcal/mol
DOCKED: USER    
DOCKED: USER    
DOCKED: USER    NEWDPF move ligand.dum.pdbqt
DOCKED: USER    NEWDPF about -0.023000 0.069000 -0.054000
DOCKED: USER    NEWDPF tran0 38.742820 14.024574 121.136684
DOCKED: USER    NEWDPF quaternion0 -0.331885 0.924079 -0.188523 0.019747
DOCKED: USER    NEWDPF axisangle0 -0.331949 0.924259 -0.188560 177.737005
DOCKED: USER    NEWDPF quat0 -0.331949 0.924259 -0.188560 177.737005
DOCKED: USER    NEWDPF dihe0 -77.46 155.76 -153.13 -75.38 -67.13 19.38 
DOCKED: USER  keepresnum = 1 
DOCKED: USER  
DOCKED: REMARK  Name = 
DOCKED: REMARK  6 active torsions:
DOCKED: REMARK  status: ('A' for Active; 'I' for Inactive)
DOCKED: REMARK    1  A    between atoms: C_2  and  C_5
DOCKED: REMARK    2  A    between atoms: C_5  and  C_6
DOCKED: REMARK    3  A    between atoms: C_6  and  C_7
DOCKED: REMARK    4  A    between atoms: C_7  and  C_8
DOCKED: REMARK    5  A    between atoms: C_8  and  C_9
DOCKED: REMARK    6  A    between atoms: C_9  and  N_10
DOCKED: REMARK                            x       y       z     vdW  Elec       q    Type
DOCKED: REMARK                         _______ _______ _______ _____ _____    ______ ____
DOCKED: USER                              x       y       z     vdW  Elec       q    Type
DOCKED: USER                           _______ _______ _______ _____ _____    ______ ____
DOCKED: ROOT
DOCKED: ATOM      1  N   UNL     1      38.761  14.908 120.882 -0.27 -0.00    +0.000 N 
DOCKED: ATOM      2  C   UNL     1      39.765  15.113 121.893 -0.38 -0.00    +0.000 C 
DOCKED: ATOM      3  C   UNL     1      41.050  15.760 121.541 -0.28 -0.00    +0.000 A 
DOCKED: ATOM      4  C   UNL     1      42.026  15.995 122.525 -0.41 -0.00    +0.000 A 
DOCKED: ATOM      5  C   UNL     1      43.237  16.604 122.194 -0.33 -0.00    +0.000 A 
DOCKED: ATOM      6  C   UNL     1      43.495  16.988 120.878 -0.18 -0.00    +0.000 A 
DOCKED: ATOM      7  C   UNL     1      42.539  16.764 119.877 -0.13 -0.00    +0.000 A 
DOCKED: ATOM      8  C   UNL     1      42.799  17.148 118.555 -0.09 -0.00    +0.000 A 
DOCKED: ATOM      9  C   UNL     1      41.849  16.923 117.558 -0.12 -0.00    +0.000 A 
DOCKED: ATOM     10  C   UNL     1      40.631  16.315 117.870 -0.13 -0.00    +0.000 A 
DOCKED: ATOM     11  C   UNL     1      40.346  15.922 119.190 -0.11 -0.00    +0.000 A 
DOCKED: ATOM     12  C   UNL     1      41.304  16.146 120.205 -0.14 -0.00    +0.000 A 
DOCKED: ATOM     13  O   UNL     1      39.553  14.741 123.080 -0.55 -0.00    +0.000 OA
DOCKED: ATOM     14  C   UNL     1      39.055  15.277 119.520 -0.18 -0.00    +0.000 C 
DOCKED: ATOM     15  O   UNL     1      38.213  15.049 118.608 -0.22 -0.00    +0.000 OA
DOCKED: ATOM     16  CM  UNL     1      40.013  15.505 120.548 +0.00 -0.00    +0.000 AC
DOCKED: ATOM     17  CM  UNL     1      42.276  16.376 121.203 +0.00 -0.00    +0.000 AC
DOCKED: ATOM     18  CM  UNL     1      41.578  16.536 118.875 +0.00 -0.00    +0.000 AC
DOCKED: ENDROOT
DOCKED: BRANCH   1  16
DOCKED: ATOM     19  C   UNL     1      37.498  14.234 121.213 -0.38 -0.00    +0.000 C 
DOCKED: BRANCH  16  17
DOCKED: ATOM     20  C   UNL     1      37.753  12.759 121.534 -0.46 -0.00    +0.000 C 
DOCKED: BRANCH  17  18
DOCKED: ATOM     21  C   UNL     1      37.474  12.458 123.011 -0.53 -0.00    +0.000 C 
DOCKED: BRANCH  18  19
DOCKED: ATOM     22  C   UNL     1      36.148  11.702 123.177 -0.69 -0.00    +0.000 C 
DOCKED: BRANCH  19  20
DOCKED: ATOM     23  C   UNL     1      35.824  10.822 121.961 -0.49 -0.00    +0.000 C 
DOCKED: BRANCH  20  22
DOCKED: ATOM     24  O   UNL     1      36.645   8.777 121.038 -2.50 -0.00    +0.000 OA
DOCKED: ATOM     25  C   UNL     1      36.445   9.460 122.077 -0.67 -0.00    +0.000 C 
DOCKED: ATOM     26  N   UNL     1      36.838   8.951 123.354 -0.61 -0.00    +0.000 N 
DOCKED: ATOM     27  O   UNL     1      37.413   7.731 123.456 -2.61 -0.00    +0.000 OA
DOCKED: ATOM     28  H   UNL     1      36.691   9.492 124.163 -0.48 -0.00    +0.000 HD
DOCKED: ENDBRANCH  20  22
DOCKED: ENDBRANCH  19  20
DOCKED: ENDBRANCH  18  19
DOCKED: ENDBRANCH  17  18
DOCKED: ENDBRANCH  16  17
DOCKED: ENDBRANCH   1  16
DOCKED: TORSDOF 6DOCKED: TER
DOCKED: ENDMDL
________________________________________________________________________________


	BEGINNING GENETIC ALGORITHM DOCKING 66 of 100
Run: 66 Seed: 339479119 2112105119 [ Run 66 of 100 GA/GALS ]
Beginning LAMARCKIAN GENETIC ALGORITHM (LGA), with a maximum of 2500000 energy evaluations.

Final-Value: -14.263


	FINAL GENETIC ALGORITHM DOCKED STATE
	_______________________________________________


Detailed state:  trans 36.778 15.426 123.342 quatxyzw -0.213527 0.382050 -0.881744 -0.175985 center -0.023 0.069 -0.054 ntor 6 -138.9466 179.8791 -67.9494 126.4920 86.1671 -24.4090
State:	 36.778  15.426 123.342  -0.217  0.388 -0.896 -159.728   -138.95  179.88  -67.95  126.49   86.17  -24.41

DOCKED: MODEL       66
DOCKED: USER    Run = 66
DOCKED: USER    DPF = ligand_dock.biased.dpf
DOCKED: USER  
DOCKED: USER    Estimated Free Energy of Binding    =  -11.68 kcal/mol  [=(1)+(2)+(3)-(4)]
DOCKED: USER    Estimated Inhibition Constant, Ki   =    2.75 nM (nanomolar)  [Temperature = 298.15 K]
DOCKED: USER    
DOCKED: USER    (1) Final Intermolecular Energy     =  -13.47 kcal/mol
DOCKED: USER        vdW + Hbond + desolv Energy     =  -13.47 kcal/mol
DOCKED: USER        Electrostatic Energy            =   +0.00 kcal/mol
DOCKED: USER    (2) Final Total Internal Energy     =   -0.80 kcal/mol
DOCKED: USER    (3) Torsional Free Energy           =   +1.79 kcal/mol
DOCKED: USER    (4) Unbound System's Energy  [=(2)] =   -0.80 kcal/mol
DOCKED: USER    
DOCKED: USER    
DOCKED: USER    NEWDPF move ligand.dum.pdbqt
DOCKED: USER    NEWDPF about -0.023000 0.069000 -0.054000
DOCKED: USER    NEWDPF tran0 36.777705 15.425820 123.341884
DOCKED: USER    NEWDPF quaternion0 -0.213527 0.382050 -0.881744 -0.175985
DOCKED: USER    NEWDPF axisangle0 -0.216913 0.388108 -0.895724 -159.727978
DOCKED: USER    NEWDPF quat0 -0.216913 0.388108 -0.895724 -159.727978
DOCKED: USER    NEWDPF dihe0 -138.95 179.88 -67.95 126.49 86.17 -24.41 
DOCKED: USER  keepresnum = 1 
DOCKED: USER  
DOCKED: REMARK  Name = 
DOCKED: REMARK  6 active torsions:
DOCKED: REMARK  status: ('A' for Active; 'I' for Inactive)
DOCKED: REMARK    1  A    between atoms: C_2  and  C_5
DOCKED: REMARK    2  A    between atoms: C_5  and  C_6
DOCKED: REMARK    3  A    between atoms: C_6  and  C_7
DOCKED: REMARK    4  A    between atoms: C_7  and  C_8
DOCKED: REMARK    5  A    between atoms: C_8  and  C_9
DOCKED: REMARK    6  A    between atoms: C_9  and  N_10
DOCKED: REMARK                            x       y       z     vdW  Elec       q    Type
DOCKED: REMARK                         _______ _______ _______ _____ _____    ______ ____
DOCKED: USER                              x       y       z     vdW  Elec       q    Type
DOCKED: USER                           _______ _______ _______ _____ _____    ______ ____
DOCKED: ROOT
DOCKED: ATOM      1  N   UNL     1      37.340  15.302 122.625 -0.33 -0.00    +0.000 N 
DOCKED: ATOM      2  C   UNL     1      37.377  16.735 122.487 -0.23 -0.00    +0.000 C 
DOCKED: ATOM      3  C   UNL     1      38.678  17.440 122.429 -0.14 -0.00    +0.000 A 
DOCKED: ATOM      4  C   UNL     1      38.728  18.835 122.263 -0.06 -0.00    +0.000 A 
DOCKED: ATOM      5  C   UNL     1      39.953  19.500 122.209 -0.04 -0.00    +0.000 A 
DOCKED: ATOM      6  C   UNL     1      41.147  18.788 122.320 -0.09 -0.00    +0.000 A 
DOCKED: ATOM      7  C   UNL     1      41.124  17.395 122.488 -0.20 -0.00    +0.000 A 
DOCKED: ATOM      8  C   UNL     1      42.323  16.679 122.601 -0.36 -0.00    +0.000 A 
DOCKED: ATOM      9  C   UNL     1      42.301  15.295 122.771 -0.41 -0.00    +0.000 A 
DOCKED: ATOM     10  C   UNL     1      41.085  14.611 122.827 -0.41 -0.00    +0.000 A 
DOCKED: ATOM     11  C   UNL     1      39.868  15.307 122.714 -0.32 -0.00    +0.000 A 
DOCKED: ATOM     12  C   UNL     1      39.883  16.710 122.543 -0.22 -0.00    +0.000 A 
DOCKED: ATOM     13  O   UNL     1      36.301  17.391 122.416 -0.22 -0.00    +0.000 OA
DOCKED: ATOM     14  C   UNL     1      38.579  14.582 122.774 -0.43 -0.00    +0.000 C 
DOCKED: ATOM     15  O   UNL     1      38.567  13.333 122.958 -0.47 -0.00    +0.000 OA
DOCKED: ATOM     16  CM  UNL     1      38.586  15.994 122.596 +0.00 -0.00    +0.000 AC
DOCKED: ATOM     17  CM  UNL     1      39.919  18.112 122.375 +0.00 -0.00    +0.000 AC
DOCKED: ATOM     18  CM  UNL     1      41.098  15.999 122.657 +0.00 -0.00    +0.000 AC
DOCKED: ENDROOT
DOCKED: BRANCH   1  16
DOCKED: ATOM     19  C   UNL     1      36.054  14.596 122.719 -0.24 -0.00    +0.000 C 
DOCKED: BRANCH  16  17
DOCKED: ATOM     20  C   UNL     1      35.879  14.001 124.120 -0.49 -0.00    +0.000 C 
DOCKED: BRANCH  17  18
DOCKED: ATOM     21  C   UNL     1      36.359  12.546 124.166 -0.47 -0.00    +0.000 C 
DOCKED: BRANCH  18  19
DOCKED: ATOM     22  C   UNL     1      35.685  11.710 123.067 -0.60 -0.00    +0.000 C 
DOCKED: BRANCH  19  20
DOCKED: ATOM     23  C   UNL     1      36.691  11.195 122.029 -0.62 -0.00    +0.000 C 
DOCKED: BRANCH  20  22
DOCKED: ATOM     24  O   UNL     1      36.977   9.034 121.048 -2.69 -0.00    +0.000 OA
DOCKED: ATOM     25  C   UNL     1      36.860   9.705 122.109 -0.64 -0.00    +0.000 C 
DOCKED: ATOM     26  N   UNL     1      36.921   9.051 123.378 -0.59 -0.00    +0.000 N 
DOCKED: ATOM     27  O   UNL     1      37.091   7.710 123.450 -2.69 -0.00    +0.000 OA
DOCKED: ATOM     28  H   UNL     1      36.841   9.579 124.205 -0.53 -0.00    +0.000 HD
DOCKED: ENDBRANCH  20  22
DOCKED: ENDBRANCH  19  20
DOCKED: ENDBRANCH  18  19
DOCKED: ENDBRANCH  17  18
DOCKED: ENDBRANCH  16  17
DOCKED: ENDBRANCH   1  16
DOCKED: TORSDOF 6DOCKED: TER
DOCKED: ENDMDL
________________________________________________________________________________


	BEGINNING GENETIC ALGORITHM DOCKING 67 of 100
Run: 67 Seed: 1351181042 479910355 [ Run 67 of 100 GA/GALS ]
Beginning LAMARCKIAN GENETIC ALGORITHM (LGA), with a maximum of 2500000 energy evaluations.

Final-Value: -15.246


	FINAL GENETIC ALGORITHM DOCKED STATE
	_______________________________________________


Detailed state:  trans 38.278 15.114 121.854 quatxyzw -0.349274 0.625810 0.690230 0.099762 center -0.023 0.069 -0.054 ntor 6 -145.3870 -158.8539 167.7314 -83.9449 -43.0013 -179.9169
State:	 38.278  15.114 121.854  -0.351  0.629  0.694 168.549   -145.39 -158.85  167.73  -83.94  -43.00 -179.92

DOCKED: MODEL       67
DOCKED: USER    Run = 67
DOCKED: USER    DPF = ligand_dock.biased.dpf
DOCKED: USER  
DOCKED: USER    Estimated Free Energy of Binding    =  -12.64 kcal/mol  [=(1)+(2)+(3)-(4)]
DOCKED: USER    Estimated Inhibition Constant, Ki   =  545.28 pM (picomolar)  [Temperature = 298.15 K]
DOCKED: USER    
DOCKED: USER    (1) Final Intermolecular Energy     =  -14.43 kcal/mol
DOCKED: USER        vdW + Hbond + desolv Energy     =  -14.43 kcal/mol
DOCKED: USER        Electrostatic Energy            =   +0.00 kcal/mol
DOCKED: USER    (2) Final Total Internal Energy     =   -0.82 kcal/mol
DOCKED: USER    (3) Torsional Free Energy           =   +1.79 kcal/mol
DOCKED: USER    (4) Unbound System's Energy  [=(2)] =   -0.82 kcal/mol
DOCKED: USER    
DOCKED: USER    
DOCKED: USER    NEWDPF move ligand.dum.pdbqt
DOCKED: USER    NEWDPF about -0.023000 0.069000 -0.054000
DOCKED: USER    NEWDPF tran0 38.278349 15.114197 121.853598
DOCKED: USER    NEWDPF quaternion0 -0.349274 0.625810 0.690230 0.099762
DOCKED: USER    NEWDPF axisangle0 -0.351025 0.628948 0.693690 168.549079
DOCKED: USER    NEWDPF quat0 -0.351025 0.628948 0.693690 168.549079
DOCKED: USER    NEWDPF dihe0 -145.39 -158.85 167.73 -83.94 -43.00 -179.92 
DOCKED: USER  keepresnum = 1 
DOCKED: USER  
DOCKED: REMARK  Name = 
DOCKED: REMARK  6 active torsions:
DOCKED: REMARK  status: ('A' for Active; 'I' for Inactive)
DOCKED: REMARK    1  A    between atoms: C_2  and  C_5
DOCKED: REMARK    2  A    between atoms: C_5  and  C_6
DOCKED: REMARK    3  A    between atoms: C_6  and  C_7
DOCKED: REMARK    4  A    between atoms: C_7  and  C_8
DOCKED: REMARK    5  A    between atoms: C_8  and  C_9
DOCKED: REMARK    6  A    between atoms: C_9  and  N_10
DOCKED: REMARK                            x       y       z     vdW  Elec       q    Type
DOCKED: REMARK                         _______ _______ _______ _____ _____    ______ ____
DOCKED: USER                              x       y       z     vdW  Elec       q    Type
DOCKED: USER                           _______ _______ _______ _____ _____    ______ ____
DOCKED: ROOT
DOCKED: ATOM      1  N   UNL     1      38.553  15.252 122.720 -0.34 -0.00    +0.000 N 
DOCKED: ATOM      2  C   UNL     1      39.905  15.106 122.248 -0.42 -0.00    +0.000 C 
DOCKED: ATOM      3  C   UNL     1      40.913  16.147 122.555 -0.34 -0.00    +0.000 A 
DOCKED: ATOM      4  C   UNL     1      42.244  16.002 122.126 -0.37 -0.00    +0.000 A 
DOCKED: ATOM      5  C   UNL     1      43.194  16.983 122.414 -0.32 -0.00    +0.000 A 
DOCKED: ATOM      6  C   UNL     1      42.833  18.123 123.131 -0.15 -0.00    +0.000 A 
DOCKED: ATOM      7  C   UNL     1      41.512  18.293 123.568 -0.23 -0.00    +0.000 A 
DOCKED: ATOM      8  C   UNL     1      41.149  19.440 124.287 -0.14 -0.00    +0.000 A 
DOCKED: ATOM      9  C   UNL     1      39.834  19.611 124.720 -0.11 -0.00    +0.000 A 
DOCKED: ATOM     10  C   UNL     1      38.869  18.640 124.442 -0.16 -0.00    +0.000 A 
DOCKED: ATOM     11  C   UNL     1      39.209  17.480 123.724 -0.21 -0.00    +0.000 A 
DOCKED: ATOM     12  C   UNL     1      40.539  17.300 123.282 -0.25 -0.00    +0.000 A 
DOCKED: ATOM     13  O   UNL     1      40.233  14.092 121.572 -0.91 -0.00    +0.000 OA
DOCKED: ATOM     14  C   UNL     1      38.185  16.451 123.429 -0.28 -0.00    +0.000 C 
DOCKED: ATOM     15  O   UNL     1      36.991  16.627 123.798 -0.33 -0.00    +0.000 OA
DOCKED: ATOM     16  CM  UNL     1      39.524  16.261 122.986 +0.00 -0.00    +0.000 AC
DOCKED: ATOM     17  CM  UNL     1      41.873  17.141 122.846 +0.00 -0.00    +0.000 AC
DOCKED: ATOM     18  CM  UNL     1      40.185  18.461 124.004 +0.00 -0.00    +0.000 AC
DOCKED: ENDROOT
DOCKED: BRANCH   1  16
DOCKED: ATOM     19  C   UNL     1      37.537  14.242 122.392 -0.46 -0.00    +0.000 C 
DOCKED: BRANCH  16  17
DOCKED: ATOM     20  C   UNL     1      37.464  13.185 123.497 -0.51 -0.00    +0.000 C 
DOCKED: BRANCH  17  18
DOCKED: ATOM     21  C   UNL     1      36.010  12.835 123.833 -0.61 -0.00    +0.000 C 
DOCKED: BRANCH  18  19
DOCKED: ATOM     22  C   UNL     1      35.560  11.575 123.078 -0.58 -0.00    +0.000 C 
DOCKED: BRANCH  19  20
DOCKED: ATOM     23  C   UNL     1      36.587  11.128 122.028 -0.62 -0.00    +0.000 C 
DOCKED: BRANCH  20  22
DOCKED: ATOM     24  O   UNL     1      36.897   8.964 121.061 -2.67 -0.00    +0.000 OA
DOCKED: ATOM     25  C   UNL     1      36.866   9.655 122.114 -0.64 -0.00    +0.000 C 
DOCKED: ATOM     26  N   UNL     1      37.130   9.041 123.378 -0.58 -0.00    +0.000 N 
DOCKED: ATOM     27  O   UNL     1      37.398   7.717 123.454 -2.61 -0.00    +0.000 OA
DOCKED: ATOM     28  H   UNL     1      37.117   9.585 124.199 -0.59 -0.00    +0.000 HD
DOCKED: ENDBRANCH  20  22
DOCKED: ENDBRANCH  19  20
DOCKED: ENDBRANCH  18  19
DOCKED: ENDBRANCH  17  18
DOCKED: ENDBRANCH  16  17
DOCKED: ENDBRANCH   1  16
DOCKED: TORSDOF 6DOCKED: TER
DOCKED: ENDMDL
________________________________________________________________________________


	BEGINNING GENETIC ALGORITHM DOCKING 68 of 100
Run: 68 Seed: 230674181 943056835 [ Run 68 of 100 GA/GALS ]
Beginning LAMARCKIAN GENETIC ALGORITHM (LGA), with a maximum of 2500000 energy evaluations.

Final-Value: -13.911


	FINAL GENETIC ALGORITHM DOCKED STATE
	_______________________________________________


Detailed state:  trans 36.520 14.037 122.272 quatxyzw -0.593303 0.492922 0.594209 0.227893 center -0.023 0.069 -0.054 ntor 6 15.3961 57.7309 -3.0926 -156.9926 4.8876 -162.5796
State:	 36.520  14.037 122.272  -0.609  0.506  0.610 153.654     15.40   57.73   -3.09 -156.99    4.89 -162.58

DOCKED: MODEL       68
DOCKED: USER    Run = 68
DOCKED: USER    DPF = ligand_dock.biased.dpf
DOCKED: USER  
DOCKED: USER    Estimated Free Energy of Binding    =  -11.38 kcal/mol  [=(1)+(2)+(3)-(4)]
DOCKED: USER    Estimated Inhibition Constant, Ki   =    4.59 nM (nanomolar)  [Temperature = 298.15 K]
DOCKED: USER    
DOCKED: USER    (1) Final Intermolecular Energy     =  -13.17 kcal/mol
DOCKED: USER        vdW + Hbond + desolv Energy     =  -13.17 kcal/mol
DOCKED: USER        Electrostatic Energy            =   +0.00 kcal/mol
DOCKED: USER    (2) Final Total Internal Energy     =   -0.75 kcal/mol
DOCKED: USER    (3) Torsional Free Energy           =   +1.79 kcal/mol
DOCKED: USER    (4) Unbound System's Energy  [=(2)] =   -0.75 kcal/mol
DOCKED: USER    
DOCKED: USER    
DOCKED: USER    NEWDPF move ligand.dum.pdbqt
DOCKED: USER    NEWDPF about -0.023000 0.069000 -0.054000
DOCKED: USER    NEWDPF tran0 36.520438 14.037321 122.272034
DOCKED: USER    NEWDPF quaternion0 -0.593303 0.492922 0.594209 0.227893
DOCKED: USER    NEWDPF axisangle0 -0.609337 0.506243 0.610267 153.653917
DOCKED: USER    NEWDPF quat0 -0.609337 0.506243 0.610267 153.653917
DOCKED: USER    NEWDPF dihe0 15.40 57.73 -3.09 -156.99 4.89 -162.58 
DOCKED: USER  keepresnum = 1 
DOCKED: USER  
DOCKED: REMARK  Name = 
DOCKED: REMARK  6 active torsions:
DOCKED: REMARK  status: ('A' for Active; 'I' for Inactive)
DOCKED: REMARK    1  A    between atoms: C_2  and  C_5
DOCKED: REMARK    2  A    between atoms: C_5  and  C_6
DOCKED: REMARK    3  A    between atoms: C_6  and  C_7
DOCKED: REMARK    4  A    between atoms: C_7  and  C_8
DOCKED: REMARK    5  A    between atoms: C_8  and  C_9
DOCKED: REMARK    6  A    between atoms: C_9  and  N_10
DOCKED: REMARK                            x       y       z     vdW  Elec       q    Type
DOCKED: REMARK                         _______ _______ _______ _____ _____    ______ ____
DOCKED: USER                              x       y       z     vdW  Elec       q    Type
DOCKED: USER                           _______ _______ _______ _____ _____    ______ ____
DOCKED: ROOT
DOCKED: ATOM      1  N   UNL     1      36.489  14.230 123.171 -0.47 -0.00    +0.000 N 
DOCKED: ATOM      2  C   UNL     1      37.748  14.910 123.004 -0.42 -0.00    +0.000 C 
DOCKED: ATOM      3  C   UNL     1      37.903  16.307 123.472 -0.25 -0.00    +0.000 A 
DOCKED: ATOM      4  C   UNL     1      39.136  16.971 123.343 -0.21 -0.00    +0.000 A 
DOCKED: ATOM      5  C   UNL     1      39.283  18.287 123.783 -0.16 -0.00    +0.000 A 
DOCKED: ATOM      6  C   UNL     1      38.206  18.961 124.357 -0.13 -0.00    +0.000 A 
DOCKED: ATOM      7  C   UNL     1      36.965  18.322 124.496 -0.18 -0.00    +0.000 A 
DOCKED: ATOM      8  C   UNL     1      35.882  19.000 125.071 -0.19 -0.00    +0.000 A 
DOCKED: ATOM      9  C   UNL     1      34.648  18.366 125.206 -0.29 -0.00    +0.000 A 
DOCKED: ATOM     10  C   UNL     1      34.481  17.049 124.773 -0.41 -0.00    +0.000 A 
DOCKED: ATOM     11  C   UNL     1      35.553  16.346 124.193 -0.38 -0.00    +0.000 A 
DOCKED: ATOM     12  C   UNL     1      36.806  16.983 124.052 -0.21 -0.00    +0.000 A 
DOCKED: ATOM     13  O   UNL     1      38.719  14.317 122.457 -0.57 -0.00    +0.000 OA
DOCKED: ATOM     14  C   UNL     1      35.375  14.950 123.733 -0.54 -0.00    +0.000 C 
DOCKED: ATOM     15  O   UNL     1      34.247  14.393 123.831 -0.57 -0.00    +0.000 OA
DOCKED: ATOM     16  CM  UNL     1      36.642  15.584 123.592 +0.00 -0.00    +0.000 AC
DOCKED: ATOM     17  CM  UNL     1      38.050  17.639 123.917 +0.00 -0.00    +0.000 AC
DOCKED: ATOM     18  CM  UNL     1      35.722  17.678 124.632 -0.27 -0.00    +0.000 AC
DOCKED: ENDROOT
DOCKED: BRANCH   1  16
DOCKED: ATOM     19  C   UNL     1      36.314  12.857 122.677 -0.54 -0.00    +0.000 C 
DOCKED: BRANCH  16  17
DOCKED: ATOM     20  C   UNL     1      36.207  11.882 123.854 -0.69 -0.00    +0.000 C 
DOCKED: BRANCH  17  18
DOCKED: ATOM     21  C   UNL     1      36.143  10.431 123.364 -0.58 -0.00    +0.000 C 
DOCKED: BRANCH  18  19
DOCKED: ATOM     22  C   UNL     1      36.763  10.295 121.965 -0.61 -0.00    +0.000 C 
DOCKED: BRANCH  19  20
DOCKED: ATOM     23  C   UNL     1      36.713   8.852 121.444 -0.61 -0.00    +0.000 C 
DOCKED: BRANCH  20  22
DOCKED: ATOM     24  O   UNL     1      37.069   7.713 123.515 -2.65 -0.00    +0.000 OA
DOCKED: ATOM     25  C   UNL     1      36.314   7.884 122.521 -0.78 -0.00    +0.000 C 
DOCKED: ATOM     26  N   UNL     1      35.070   7.184 122.439 -0.61 -0.00    +0.000 N 
DOCKED: ATOM     27  O   UNL     1      34.703   6.325 123.418 -0.82 -0.00    +0.000 OA
DOCKED: ATOM     28  H   UNL     1      34.477   7.328 121.667 -0.01 -0.00    +0.000 HD
DOCKED: ENDBRANCH  20  22
DOCKED: ENDBRANCH  19  20
DOCKED: ENDBRANCH  18  19
DOCKED: ENDBRANCH  17  18
DOCKED: ENDBRANCH  16  17
DOCKED: ENDBRANCH   1  16
DOCKED: TORSDOF 6DOCKED: TER
DOCKED: ENDMDL
________________________________________________________________________________


	BEGINNING GENETIC ALGORITHM DOCKING 69 of 100
Run: 69 Seed: 2116506417 1848242854 [ Run 69 of 100 GA/GALS ]
Beginning LAMARCKIAN GENETIC ALGORITHM (LGA), with a maximum of 2500000 energy evaluations.

Final-Value: -14.063


	FINAL GENETIC ALGORITHM DOCKED STATE
	_______________________________________________


Detailed state:  trans 39.236 14.849 123.726 quatxyzw 0.366988 -0.411355 0.766937 0.328504 center -0.023 0.069 -0.054 ntor 6 -32.7166 -149.5503 69.6936 119.4919 39.5488 150.9896
State:	 39.236  14.849 123.726   0.389 -0.436  0.812 141.644    -32.72 -149.55   69.69  119.49   39.55  150.99

DOCKED: MODEL       69
DOCKED: USER    Run = 69
DOCKED: USER    DPF = ligand_dock.biased.dpf
DOCKED: USER  
DOCKED: USER    Estimated Free Energy of Binding    =  -11.55 kcal/mol  [=(1)+(2)+(3)-(4)]
DOCKED: USER    Estimated Inhibition Constant, Ki   =    3.43 nM (nanomolar)  [Temperature = 298.15 K]
DOCKED: USER    
DOCKED: USER    (1) Final Intermolecular Energy     =  -13.34 kcal/mol
DOCKED: USER        vdW + Hbond + desolv Energy     =  -13.34 kcal/mol
DOCKED: USER        Electrostatic Energy            =   +0.00 kcal/mol
DOCKED: USER    (2) Final Total Internal Energy     =   -0.73 kcal/mol
DOCKED: USER    (3) Torsional Free Energy           =   +1.79 kcal/mol
DOCKED: USER    (4) Unbound System's Energy  [=(2)] =   -0.73 kcal/mol
DOCKED: USER    
DOCKED: USER    
DOCKED: USER    NEWDPF move ligand.dum.pdbqt
DOCKED: USER    NEWDPF about -0.023000 0.069000 -0.054000
DOCKED: USER    NEWDPF tran0 39.236403 14.848784 123.726186
DOCKED: USER    NEWDPF quaternion0 0.366988 -0.411355 0.766937 0.328504
DOCKED: USER    NEWDPF axisangle0 0.388551 -0.435526 0.812001 141.643993
DOCKED: USER    NEWDPF quat0 0.388551 -0.435526 0.812001 141.643993
DOCKED: USER    NEWDPF dihe0 -32.72 -149.55 69.69 119.49 39.55 150.99 
DOCKED: USER  keepresnum = 1 
DOCKED: USER  
DOCKED: REMARK  Name = 
DOCKED: REMARK  6 active torsions:
DOCKED: REMARK  status: ('A' for Active; 'I' for Inactive)
DOCKED: REMARK    1  A    between atoms: C_2  and  C_5
DOCKED: REMARK    2  A    between atoms: C_5  and  C_6
DOCKED: REMARK    3  A    between atoms: C_6  and  C_7
DOCKED: REMARK    4  A    between atoms: C_7  and  C_8
DOCKED: REMARK    5  A    between atoms: C_8  and  C_9
DOCKED: REMARK    6  A    between atoms: C_9  and  N_10
DOCKED: REMARK                            x       y       z     vdW  Elec       q    Type
DOCKED: REMARK                         _______ _______ _______ _____ _____    ______ ____
DOCKED: USER                              x       y       z     vdW  Elec       q    Type
DOCKED: USER                           _______ _______ _______ _____ _____    ______ ____
DOCKED: ROOT
DOCKED: ATOM      1  N   UNL     1      39.615  15.045 122.911 -0.32 -0.00    +0.000 N 
DOCKED: ATOM      2  C   UNL     1      39.062  16.368 123.044 -0.27 -0.00    +0.000 C 
DOCKED: ATOM      3  C   UNL     1      39.936  17.554 122.893 -0.18 -0.00    +0.000 A 
DOCKED: ATOM      4  C   UNL     1      39.404  18.851 122.990 -0.09 -0.00    +0.000 A 
DOCKED: ATOM      5  C   UNL     1      40.227  19.969 122.849 -0.04 -0.00    +0.000 A 
DOCKED: ATOM      6  C   UNL     1      41.592  19.813 122.611 -0.06 -0.00    +0.000 A 
DOCKED: ATOM      7  C   UNL     1      42.148  18.529 122.512 -0.14 -0.00    +0.000 A 
DOCKED: ATOM      8  C   UNL     1      43.521  18.371 122.275 -0.17 -0.00    +0.000 A 
DOCKED: ATOM      9  C   UNL     1      44.075  17.095 122.179 -0.29 -0.00    +0.000 A 
DOCKED: ATOM     10  C   UNL     1      43.268  15.965 122.317 -0.22 -0.00    +0.000 A 
DOCKED: ATOM     11  C   UNL     1      41.888  16.096 122.554 -0.40 -0.00    +0.000 A 
DOCKED: ATOM     12  C   UNL     1      41.319  17.386 122.652 -0.23 -0.00    +0.000 A 
DOCKED: ATOM     13  O   UNL     1      37.834  16.519 123.290 -0.29 -0.00    +0.000 OA
DOCKED: ATOM     14  C   UNL     1      41.032  14.896 122.700 -0.53 -0.00    +0.000 C 
DOCKED: ATOM     15  O   UNL     1      41.546  13.745 122.643 -0.87 +0.00    +0.000 OA
DOCKED: ATOM     16  CM  UNL     1      40.452  16.193 122.796 +0.00 -0.00    +0.000 AC
DOCKED: ATOM     17  CM  UNL     1      40.771  18.684 122.751 +0.00 -0.00    +0.000 AC
DOCKED: ATOM     18  CM  UNL     1      42.704  17.240 122.415 +0.00 -0.00    +0.000 AC
DOCKED: ENDROOT
DOCKED: BRANCH   1  16
DOCKED: ATOM     19  C   UNL     1      38.763  13.861 123.094 -0.18 -0.00    +0.000 C 
DOCKED: BRANCH  16  17
DOCKED: ATOM     20  C   UNL     1      37.671  13.823 122.021 -0.47 -0.00    +0.000 C 
DOCKED: BRANCH  17  18
DOCKED: ATOM     21  C   UNL     1      36.336  13.351 122.607 -0.45 -0.00    +0.000 C 
DOCKED: BRANCH  18  19
DOCKED: ATOM     22  C   UNL     1      36.462  11.938 123.194 -0.69 -0.00    +0.000 C 
DOCKED: BRANCH  19  20
DOCKED: ATOM     23  C   UNL     1      35.765  10.882 122.325 -0.63 -0.00    +0.000 C 
DOCKED: BRANCH  20  22
DOCKED: ATOM     24  O   UNL     1      37.069   9.232 121.190 -2.72 -0.00    +0.000 OA
DOCKED: ATOM     25  C   UNL     1      36.544   9.599 122.275 -0.70 -0.00    +0.000 C 
DOCKED: ATOM     26  N   UNL     1      36.718   8.812 123.455 -0.59 -0.00    +0.000 N 
DOCKED: ATOM     27  O   UNL     1      37.434   7.665 123.413 -2.53 -0.00    +0.000 OA
DOCKED: ATOM     28  H   UNL     1      36.316   9.107 124.304 -0.28 -0.00    +0.000 HD
DOCKED: ENDBRANCH  20  22
DOCKED: ENDBRANCH  19  20
DOCKED: ENDBRANCH  18  19
DOCKED: ENDBRANCH  17  18
DOCKED: ENDBRANCH  16  17
DOCKED: ENDBRANCH   1  16
DOCKED: TORSDOF 6DOCKED: TER
DOCKED: ENDMDL
________________________________________________________________________________


	BEGINNING GENETIC ALGORITHM DOCKING 70 of 100
Run: 70 Seed: 731581309 1393262126 [ Run 70 of 100 GA/GALS ]
Beginning LAMARCKIAN GENETIC ALGORITHM (LGA), with a maximum of 2500000 energy evaluations.

Final-Value: -13.776


	FINAL GENETIC ALGORITHM DOCKED STATE
	_______________________________________________


Detailed state:  trans 37.195 14.378 121.402 quatxyzw 0.099833 0.447849 0.366701 0.809317 center -0.023 0.069 -0.054 ntor 6 -10.9365 -31.6775 35.4546 138.1188 -67.5620 -24.3210
State:	 37.195  14.378 121.402   0.170  0.762  0.624 71.941    -10.94  -31.68   35.45  138.12  -67.56  -24.32

DOCKED: MODEL       70
DOCKED: USER    Run = 70
DOCKED: USER    DPF = ligand_dock.biased.dpf
DOCKED: USER  
DOCKED: USER    Estimated Free Energy of Binding    =  -10.98 kcal/mol  [=(1)+(2)+(3)-(4)]
DOCKED: USER    Estimated Inhibition Constant, Ki   =    8.91 nM (nanomolar)  [Temperature = 298.15 K]
DOCKED: USER    
DOCKED: USER    (1) Final Intermolecular Energy     =  -12.77 kcal/mol
DOCKED: USER        vdW + Hbond + desolv Energy     =  -12.77 kcal/mol
DOCKED: USER        Electrostatic Energy            =   +0.00 kcal/mol
DOCKED: USER    (2) Final Total Internal Energy     =   -1.00 kcal/mol
DOCKED: USER    (3) Torsional Free Energy           =   +1.79 kcal/mol
DOCKED: USER    (4) Unbound System's Energy  [=(2)] =   -1.00 kcal/mol
DOCKED: USER    
DOCKED: USER    
DOCKED: USER    NEWDPF move ligand.dum.pdbqt
DOCKED: USER    NEWDPF about -0.023000 0.069000 -0.054000
DOCKED: USER    NEWDPF tran0 37.194622 14.378022 121.402354
DOCKED: USER    NEWDPF quaternion0 0.099833 0.447849 0.366701 0.809317
DOCKED: USER    NEWDPF axisangle0 0.169965 0.762463 0.624309 71.941432
DOCKED: USER    NEWDPF quat0 0.169965 0.762463 0.624309 71.941432
DOCKED: USER    NEWDPF dihe0 -10.94 -31.68 35.45 138.12 -67.56 -24.32 
DOCKED: USER  keepresnum = 1 
DOCKED: USER  
DOCKED: REMARK  Name = 
DOCKED: REMARK  6 active torsions:
DOCKED: REMARK  status: ('A' for Active; 'I' for Inactive)
DOCKED: REMARK    1  A    between atoms: C_2  and  C_5
DOCKED: REMARK    2  A    between atoms: C_5  and  C_6
DOCKED: REMARK    3  A    between atoms: C_6  and  C_7
DOCKED: REMARK    4  A    between atoms: C_7  and  C_8
DOCKED: REMARK    5  A    between atoms: C_8  and  C_9
DOCKED: REMARK    6  A    between atoms: C_9  and  N_10
DOCKED: REMARK                            x       y       z     vdW  Elec       q    Type
DOCKED: REMARK                         _______ _______ _______ _____ _____    ______ ____
DOCKED: USER                              x       y       z     vdW  Elec       q    Type
DOCKED: USER                           _______ _______ _______ _____ _____    ______ ____
DOCKED: ROOT
DOCKED: ATOM      1  N   UNL     1      37.531  15.134 121.001 -0.24 -0.00    +0.000 N 
DOCKED: ATOM      2  C   UNL     1      37.330  14.475 119.736 -0.31 -0.00    +0.000 C 
DOCKED: ATOM      3  C   UNL     1      36.565  15.150 118.662 -0.21 -0.00    +0.000 A 
DOCKED: ATOM      4  C   UNL     1      36.389  14.530 117.413 -0.29 -0.00    +0.000 A 
DOCKED: ATOM      5  C   UNL     1      35.668  15.166 116.400 -0.21 -0.00    +0.000 A 
DOCKED: ATOM      6  C   UNL     1      35.113  16.426 116.617 -0.12 -0.00    +0.000 A 
DOCKED: ATOM      7  C   UNL     1      35.274  17.065 117.855 -0.13 -0.00    +0.000 A 
DOCKED: ATOM      8  C   UNL     1      34.713  18.331 118.073 -0.13 -0.00    +0.000 A 
DOCKED: ATOM      9  C   UNL     1      34.870  18.966 119.305 -0.19 -0.00    +0.000 A 
DOCKED: ATOM     10  C   UNL     1      35.588  18.347 120.330 -0.20 -0.00    +0.000 A 
DOCKED: ATOM     11  C   UNL     1      36.161  17.077 120.135 -0.15 -0.00    +0.000 A 
DOCKED: ATOM     12  C   UNL     1      36.005  16.428 118.890 -0.13 -0.00    +0.000 A 
DOCKED: ATOM     13  O   UNL     1      37.802  13.321 119.542 -0.42 -0.00    +0.000 OA
DOCKED: ATOM     14  C   UNL     1      36.922  16.420 121.223 -0.20 -0.00    +0.000 C 
DOCKED: ATOM     15  O   UNL     1      37.033  16.988 122.345 -0.20 -0.00    +0.000 OA
DOCKED: ATOM     16  CM  UNL     1      36.773  15.763 119.969 +0.00 -0.00    +0.000 AC
DOCKED: ATOM     17  CM  UNL     1      35.836  15.794 117.639 +0.00 -0.00    +0.000 AC
DOCKED: ATOM     18  CM  UNL     1      35.435  17.703 119.098 +0.00 -0.00    +0.000 AC
DOCKED: ENDROOT
DOCKED: BRANCH   1  16
DOCKED: ATOM     19  C   UNL     1      38.256  14.458 122.085 -0.42 -0.00    +0.000 C 
DOCKED: BRANCH  16  17
DOCKED: ATOM     20  C   UNL     1      37.301  14.132 123.238 -0.49 -0.00    +0.000 C 
DOCKED: BRANCH  17  18
DOCKED: ATOM     21  C   UNL     1      37.102  12.619 123.378 -0.63 -0.00    +0.000 C 
DOCKED: BRANCH  18  19
DOCKED: ATOM     22  C   UNL     1      36.956  11.953 122.002 -0.58 -0.00    +0.000 C 
DOCKED: BRANCH  19  20
DOCKED: ATOM     23  C   UNL     1      35.909  10.831 122.006 -0.53 -0.00    +0.000 C 
DOCKED: BRANCH  20  22
DOCKED: ATOM     24  O   UNL     1      36.841   8.850 121.047 -2.65 -0.00    +0.000 OA
DOCKED: ATOM     25  C   UNL     1      36.546   9.475 122.101 -0.68 -0.00    +0.000 C 
DOCKED: ATOM     26  N   UNL     1      36.849   8.905 123.377 -0.61 -0.00    +0.000 N 
DOCKED: ATOM     27  O   UNL     1      37.439   7.691 123.462 -2.58 -0.00    +0.000 OA
DOCKED: ATOM     28  H   UNL     1      36.628   9.400 124.199 -0.46 -0.00    +0.000 HD
DOCKED: ENDBRANCH  20  22
DOCKED: ENDBRANCH  19  20
DOCKED: ENDBRANCH  18  19
DOCKED: ENDBRANCH  17  18
DOCKED: ENDBRANCH  16  17
DOCKED: ENDBRANCH   1  16
DOCKED: TORSDOF 6DOCKED: TER
DOCKED: ENDMDL
________________________________________________________________________________


	BEGINNING GENETIC ALGORITHM DOCKING 71 of 100
Run: 71 Seed: 615939190 2092182199 [ Run 71 of 100 GA/GALS ]
Beginning LAMARCKIAN GENETIC ALGORITHM (LGA), with a maximum of 2500000 energy evaluations.

Final-Value: -13.649


	FINAL GENETIC ALGORITHM DOCKED STATE
	_______________________________________________


Detailed state:  trans 38.520 14.528 122.015 quatxyzw -0.264856 0.909495 -0.033793 0.318634 center -0.023 0.069 -0.054 ntor 6 -165.7504 -163.7759 -151.9904 -59.5590 24.7260 26.0188
State:	 38.520  14.528 122.015  -0.279  0.960 -0.036 142.839   -165.75 -163.78 -151.99  -59.56   24.73   26.02

DOCKED: MODEL       71
DOCKED: USER    Run = 71
DOCKED: USER    DPF = ligand_dock.biased.dpf
DOCKED: USER  
DOCKED: USER    Estimated Free Energy of Binding    =  -11.05 kcal/mol  [=(1)+(2)+(3)-(4)]
DOCKED: USER    Estimated Inhibition Constant, Ki   =    7.98 nM (nanomolar)  [Temperature = 298.15 K]
DOCKED: USER    
DOCKED: USER    (1) Final Intermolecular Energy     =  -12.84 kcal/mol
DOCKED: USER        vdW + Hbond + desolv Energy     =  -12.84 kcal/mol
DOCKED: USER        Electrostatic Energy            =   +0.00 kcal/mol
DOCKED: USER    (2) Final Total Internal Energy     =   -0.81 kcal/mol
DOCKED: USER    (3) Torsional Free Energy           =   +1.79 kcal/mol
DOCKED: USER    (4) Unbound System's Energy  [=(2)] =   -0.81 kcal/mol
DOCKED: USER    
DOCKED: USER    
DOCKED: USER    NEWDPF move ligand.dum.pdbqt
DOCKED: USER    NEWDPF about -0.023000 0.069000 -0.054000
DOCKED: USER    NEWDPF tran0 38.519913 14.528067 122.014597
DOCKED: USER    NEWDPF quaternion0 -0.264856 0.909495 -0.033793 0.318634
DOCKED: USER    NEWDPF axisangle0 -0.279420 0.959507 -0.035651 142.839364
DOCKED: USER    NEWDPF quat0 -0.279420 0.959507 -0.035651 142.839364
DOCKED: USER    NEWDPF dihe0 -165.75 -163.78 -151.99 -59.56 24.73 26.02 
DOCKED: USER  keepresnum = 1 
DOCKED: USER  
DOCKED: REMARK  Name = 
DOCKED: REMARK  6 active torsions:
DOCKED: REMARK  status: ('A' for Active; 'I' for Inactive)
DOCKED: REMARK    1  A    between atoms: C_2  and  C_5
DOCKED: REMARK    2  A    between atoms: C_5  and  C_6
DOCKED: REMARK    3  A    between atoms: C_6  and  C_7
DOCKED: REMARK    4  A    between atoms: C_7  and  C_8
DOCKED: REMARK    5  A    between atoms: C_8  and  C_9
DOCKED: REMARK    6  A    between atoms: C_9  and  N_10
DOCKED: REMARK                            x       y       z     vdW  Elec       q    Type
DOCKED: REMARK                         _______ _______ _______ _____ _____    ______ ____
DOCKED: USER                              x       y       z     vdW  Elec       q    Type
DOCKED: USER                           _______ _______ _______ _____ _____    ______ ____
DOCKED: ROOT
DOCKED: ATOM      1  N   UNL     1      38.601  15.419 121.801 -0.26 -0.00    +0.000 N 
DOCKED: ATOM      2  C   UNL     1      40.019  15.273 122.004 -0.39 -0.00    +0.000 C 
DOCKED: ATOM      3  C   UNL     1      40.966  15.703 120.949 -0.19 -0.00    +0.000 A 
DOCKED: ATOM      4  C   UNL     1      42.354  15.595 121.147 -0.22 -0.00    +0.000 A 
DOCKED: ATOM      5  C   UNL     1      43.247  16.000 120.154 -0.21 -0.00    +0.000 A 
DOCKED: ATOM      6  C   UNL     1      42.772  16.517 118.949 -0.15 -0.00    +0.000 A 
DOCKED: ATOM      7  C   UNL     1      41.392  16.634 118.726 -0.12 -0.00    +0.000 A 
DOCKED: ATOM      8  C   UNL     1      40.915  17.151 117.514 -0.08 -0.00    +0.000 A 
DOCKED: ATOM      9  C   UNL     1      39.543  17.265 117.291 -0.06 -0.00    +0.000 A 
DOCKED: ATOM     10  C   UNL     1      38.634  16.867 118.273 -0.07 -0.00    +0.000 A 
DOCKED: ATOM     11  C   UNL     1      39.088  16.345 119.497 -0.12 -0.00    +0.000 A 
DOCKED: ATOM     12  C   UNL     1      40.477  16.226 119.731 -0.13 -0.00    +0.000 A 
DOCKED: ATOM     13  O   UNL     1      40.457  14.777 123.079 -0.71 -0.00    +0.000 OA
DOCKED: ATOM     14  C   UNL     1      38.123  15.922 120.538 -0.20 -0.00    +0.000 C 
DOCKED: ATOM     15  O   UNL     1      36.883  15.999 120.316 -0.21 -0.00    +0.000 OA
DOCKED: ATOM     16  CM  UNL     1      39.521  15.804 120.782 +0.00 -0.00    +0.000 AC
DOCKED: ATOM     17  CM  UNL     1      41.868  16.113 119.943 +0.00 -0.00    +0.000 AC
DOCKED: ATOM     18  CM  UNL     1      40.008  16.748 118.505 +0.00 -0.00    +0.000 AC
DOCKED: ENDROOT
DOCKED: BRANCH   1  16
DOCKED: ATOM     19  C   UNL     1      37.652  14.962 122.826 -0.41 -0.00    +0.000 C 
DOCKED: BRANCH  16  17
DOCKED: ATOM     20  C   UNL     1      37.794  13.452 123.043 -0.54 -0.00    +0.000 C 
DOCKED: BRANCH  17  18
DOCKED: ATOM     21  C   UNL     1      36.498  12.849 123.597 -0.63 -0.00    +0.000 C 
DOCKED: BRANCH  18  19
DOCKED: ATOM     22  C   UNL     1      35.950  11.767 122.655 -0.60 -0.00    +0.000 C 
DOCKED: BRANCH  19  20
DOCKED: ATOM     23  C   UNL     1      37.066  11.031 121.901 -0.54 -0.00    +0.000 C 
DOCKED: BRANCH  20  22
DOCKED: ATOM     24  O   UNL     1      36.690   8.833 121.042 -2.60 -0.00    +0.000 OA
DOCKED: ATOM     25  C   UNL     1      36.951   9.542 122.050 -0.63 -0.00    +0.000 C 
DOCKED: ATOM     26  N   UNL     1      37.170   8.923 123.321 -0.59 -0.00    +0.000 N 
DOCKED: ATOM     27  O   UNL     1      37.083   7.579 123.452 -2.59 -0.00    +0.000 OA
DOCKED: ATOM     28  H   UNL     1      37.385   9.478 124.105 -0.58 -0.00    +0.000 HD
DOCKED: ENDBRANCH  20  22
DOCKED: ENDBRANCH  19  20
DOCKED: ENDBRANCH  18  19
DOCKED: ENDBRANCH  17  18
DOCKED: ENDBRANCH  16  17
DOCKED: ENDBRANCH   1  16
DOCKED: TORSDOF 6DOCKED: TER
DOCKED: ENDMDL
________________________________________________________________________________


	BEGINNING GENETIC ALGORITHM DOCKING 72 of 100
Run: 72 Seed: 23980832 1385975797 [ Run 72 of 100 GA/GALS ]
Beginning LAMARCKIAN GENETIC ALGORITHM (LGA), with a maximum of 2500000 energy evaluations.

Final-Value: -15.121


	FINAL GENETIC ALGORITHM DOCKED STATE
	_______________________________________________


Detailed state:  trans 38.017 14.654 123.777 quatxyzw -0.470286 0.322012 -0.317139 -0.757999 center -0.023 0.069 -0.054 ntor 6 -19.4692 -170.7745 -0.4887 156.2417 84.0862 178.1794
State:	 38.017  14.654 123.777  -0.721  0.494 -0.486 -81.424    -19.47 -170.77   -0.49  156.24   84.09  178.18

DOCKED: MODEL       72
DOCKED: USER    Run = 72
DOCKED: USER    DPF = ligand_dock.biased.dpf
DOCKED: USER  
DOCKED: USER    Estimated Free Energy of Binding    =  -12.45 kcal/mol  [=(1)+(2)+(3)-(4)]
DOCKED: USER    Estimated Inhibition Constant, Ki   =  749.21 pM (picomolar)  [Temperature = 298.15 K]
DOCKED: USER    
DOCKED: USER    (1) Final Intermolecular Energy     =  -14.24 kcal/mol
DOCKED: USER        vdW + Hbond + desolv Energy     =  -14.24 kcal/mol
DOCKED: USER        Electrostatic Energy            =   +0.00 kcal/mol
DOCKED: USER    (2) Final Total Internal Energy     =   -0.88 kcal/mol
DOCKED: USER    (3) Torsional Free Energy           =   +1.79 kcal/mol
DOCKED: USER    (4) Unbound System's Energy  [=(2)] =   -0.88 kcal/mol
DOCKED: USER    
DOCKED: USER    
DOCKED: USER    NEWDPF move ligand.dum.pdbqt
DOCKED: USER    NEWDPF about -0.023000 0.069000 -0.054000
DOCKED: USER    NEWDPF tran0 38.016958 14.654099 123.776876
DOCKED: USER    NEWDPF quaternion0 -0.470286 0.322012 -0.317139 -0.757999
DOCKED: USER    NEWDPF axisangle0 -0.721014 0.493690 -0.486219 -81.423749
DOCKED: USER    NEWDPF quat0 -0.721014 0.493690 -0.486219 -81.423749
DOCKED: USER    NEWDPF dihe0 -19.47 -170.77 -0.49 156.24 84.09 178.18 
DOCKED: USER  keepresnum = 1 
DOCKED: USER  
DOCKED: REMARK  Name = 
DOCKED: REMARK  6 active torsions:
DOCKED: REMARK  status: ('A' for Active; 'I' for Inactive)
DOCKED: REMARK    1  A    between atoms: C_2  and  C_5
DOCKED: REMARK    2  A    between atoms: C_5  and  C_6
DOCKED: REMARK    3  A    between atoms: C_6  and  C_7
DOCKED: REMARK    4  A    between atoms: C_7  and  C_8
DOCKED: REMARK    5  A    between atoms: C_8  and  C_9
DOCKED: REMARK    6  A    between atoms: C_9  and  N_10
DOCKED: REMARK                            x       y       z     vdW  Elec       q    Type
DOCKED: REMARK                         _______ _______ _______ _____ _____    ______ ____
DOCKED: USER                              x       y       z     vdW  Elec       q    Type
DOCKED: USER                           _______ _______ _______ _____ _____    ______ ____
DOCKED: ROOT
DOCKED: ATOM      1  N   UNL     1      37.728  15.326 123.219 -0.35 -0.00    +0.000 N 
DOCKED: ATOM      2  C   UNL     1      36.417  15.147 123.785 -0.44 -0.00    +0.000 C 
DOCKED: ATOM      3  C   UNL     1      35.683  16.309 124.336 -0.33 -0.00    +0.000 A 
DOCKED: ATOM      4  C   UNL     1      34.389  16.153 124.864 -0.48 -0.00    +0.000 A 
DOCKED: ATOM      5  C   UNL     1      33.697  17.248 125.383 -0.30 -0.00    +0.000 A 
DOCKED: ATOM      6  C   UNL     1      34.282  18.514 125.386 -0.30 -0.00    +0.000 A 
DOCKED: ATOM      7  C   UNL     1      35.572  18.696 124.866 -0.22 -0.00    +0.000 A 
DOCKED: ATOM      8  C   UNL     1      36.162  19.968 124.871 -0.15 -0.00    +0.000 A 
DOCKED: ATOM      9  C   UNL     1      37.446  20.149 124.357 -0.09 -0.00    +0.000 A 
DOCKED: ATOM     10  C   UNL     1      38.153  19.066 123.833 -0.11 -0.00    +0.000 A 
DOCKED: ATOM     11  C   UNL     1      37.584  17.780 123.815 -0.19 -0.00    +0.000 A 
DOCKED: ATOM     12  C   UNL     1      36.283  17.589 124.335 -0.23 -0.00    +0.000 A 
DOCKED: ATOM     13  O   UNL     1      35.892  13.999 123.815 -0.62 -0.00    +0.000 OA
DOCKED: ATOM     14  C   UNL     1      38.335  16.631 123.260 -0.27 -0.00    +0.000 C 
DOCKED: ATOM     15  O   UNL     1      39.508  16.798 122.825 -0.25 -0.00    +0.000 OA
DOCKED: ATOM     16  CM  UNL     1      37.024  16.433 123.776 +0.00 -0.00    +0.000 AC
DOCKED: ATOM     17  CM  UNL     1      34.984  17.418 124.862 -0.43 -0.00    +0.000 AC
DOCKED: ATOM     18  CM  UNL     1      36.867  18.875 124.346 -0.01 -0.00    +0.000 AC
DOCKED: ENDROOT
DOCKED: BRANCH   1  16
DOCKED: ATOM     19  C   UNL     1      38.480  14.173 122.703 -0.47 -0.00    +0.000 C 
DOCKED: BRANCH  16  17
DOCKED: ATOM     20  C   UNL     1      38.176  13.965 121.216 -0.41 -0.00    +0.000 C 
DOCKED: BRANCH  17  18
DOCKED: ATOM     21  C   UNL     1      37.077  12.915 121.018 -0.49 -0.00    +0.000 C 
DOCKED: BRANCH  18  19
DOCKED: ATOM     22  C   UNL     1      36.995  11.971 122.227 -0.59 -0.00    +0.000 C 
DOCKED: BRANCH  19  20
DOCKED: ATOM     23  C   UNL     1      35.947  10.867 122.033 -0.55 -0.00    +0.000 C 
DOCKED: BRANCH  20  22
DOCKED: ATOM     24  O   UNL     1      36.824   8.874 121.047 -2.64 -0.00    +0.000 OA
DOCKED: ATOM     25  C   UNL     1      36.560   9.498 122.109 -0.68 -0.00    +0.000 C 
DOCKED: ATOM     26  N   UNL     1      36.874   8.916 123.376 -0.61 -0.00    +0.000 N 
DOCKED: ATOM     27  O   UNL     1      37.442   7.690 123.445 -2.57 -0.00    +0.000 OA
DOCKED: ATOM     28  H   UNL     1      36.677   9.410 124.205 -0.48 -0.00    +0.000 HD
DOCKED: ENDBRANCH  20  22
DOCKED: ENDBRANCH  19  20
DOCKED: ENDBRANCH  18  19
DOCKED: ENDBRANCH  17  18
DOCKED: ENDBRANCH  16  17
DOCKED: ENDBRANCH   1  16
DOCKED: TORSDOF 6DOCKED: TER
DOCKED: ENDMDL
________________________________________________________________________________


	BEGINNING GENETIC ALGORITHM DOCKING 73 of 100
Run: 73 Seed: 1959999499 1887698213 [ Run 73 of 100 GA/GALS ]
Beginning LAMARCKIAN GENETIC ALGORITHM (LGA), with a maximum of 2500000 energy evaluations.

Final-Value: -14.455


	FINAL GENETIC ALGORITHM DOCKED STATE
	_______________________________________________


Detailed state:  trans 38.191 15.189 123.695 quatxyzw -0.281931 0.585763 -0.702565 -0.289482 center -0.023 0.069 -0.054 ntor 6 94.7108 -60.8817 71.8669 -103.1584 -68.6543 -157.2567
State:	 38.191  15.189 123.695  -0.295  0.612 -0.734 -146.346     94.71  -60.88   71.87 -103.16  -68.65 -157.26

DOCKED: MODEL       73
DOCKED: USER    Run = 73
DOCKED: USER    DPF = ligand_dock.biased.dpf
DOCKED: USER  
DOCKED: USER    Estimated Free Energy of Binding    =  -11.89 kcal/mol  [=(1)+(2)+(3)-(4)]
DOCKED: USER    Estimated Inhibition Constant, Ki   =    1.92 nM (nanomolar)  [Temperature = 298.15 K]
DOCKED: USER    
DOCKED: USER    (1) Final Intermolecular Energy     =  -13.68 kcal/mol
DOCKED: USER        vdW + Hbond + desolv Energy     =  -13.68 kcal/mol
DOCKED: USER        Electrostatic Energy            =   +0.00 kcal/mol
DOCKED: USER    (2) Final Total Internal Energy     =   -0.77 kcal/mol
DOCKED: USER    (3) Torsional Free Energy           =   +1.79 kcal/mol
DOCKED: USER    (4) Unbound System's Energy  [=(2)] =   -0.77 kcal/mol
DOCKED: USER    
DOCKED: USER    
DOCKED: USER    NEWDPF move ligand.dum.pdbqt
DOCKED: USER    NEWDPF about -0.023000 0.069000 -0.054000
DOCKED: USER    NEWDPF tran0 38.190614 15.189351 123.695238
DOCKED: USER    NEWDPF quaternion0 -0.281931 0.585763 -0.702565 -0.289482
DOCKED: USER    NEWDPF axisangle0 -0.294542 0.611965 -0.733992 -146.346054
DOCKED: USER    NEWDPF quat0 -0.294542 0.611965 -0.733992 -146.346054
DOCKED: USER    NEWDPF dihe0 94.71 -60.88 71.87 -103.16 -68.65 -157.26 
DOCKED: USER  keepresnum = 1 
DOCKED: USER  
DOCKED: REMARK  Name = 
DOCKED: REMARK  6 active torsions:
DOCKED: REMARK  status: ('A' for Active; 'I' for Inactive)
DOCKED: REMARK    1  A    between atoms: C_2  and  C_5
DOCKED: REMARK    2  A    between atoms: C_5  and  C_6
DOCKED: REMARK    3  A    between atoms: C_6  and  C_7
DOCKED: REMARK    4  A    between atoms: C_7  and  C_8
DOCKED: REMARK    5  A    between atoms: C_8  and  C_9
DOCKED: REMARK    6  A    between atoms: C_9  and  N_10
DOCKED: REMARK                            x       y       z     vdW  Elec       q    Type
DOCKED: REMARK                         _______ _______ _______ _____ _____    ______ ____
DOCKED: USER                              x       y       z     vdW  Elec       q    Type
DOCKED: USER                           _______ _______ _______ _____ _____    ______ ____
DOCKED: ROOT
DOCKED: ATOM      1  N   UNL     1      38.583  15.576 122.959 -0.32 -0.00    +0.000 N 
DOCKED: ATOM      2  C   UNL     1      38.341  16.853 123.579 -0.25 -0.00    +0.000 C 
DOCKED: ATOM      3  C   UNL     1      39.453  17.817 123.746 -0.20 -0.00    +0.000 A 
DOCKED: ATOM      4  C   UNL     1      39.224  19.079 124.322 -0.13 -0.00    +0.000 A 
DOCKED: ATOM      5  C   UNL     1      40.271  19.988 124.481 -0.09 -0.00    +0.000 A 
DOCKED: ATOM      6  C   UNL     1      41.561  19.654 124.070 -0.13 -0.00    +0.000 A 
DOCKED: ATOM      7  C   UNL     1      41.816  18.401 123.493 -0.21 -0.00    +0.000 A 
DOCKED: ATOM      8  C   UNL     1      43.113  18.065 123.082 -0.16 -0.00    +0.000 A 
DOCKED: ATOM      9  C   UNL     1      43.368  16.818 122.512 -0.34 -0.00    +0.000 A 
DOCKED: ATOM     10  C   UNL     1      42.333  15.895 122.344 -0.41 -0.00    +0.000 A 
DOCKED: ATOM     11  C   UNL     1      41.023  16.209 122.748 -0.35 -0.00    +0.000 A 
DOCKED: ATOM     12  C   UNL     1      40.757  17.471 123.327 -0.26 -0.00    +0.000 A 
DOCKED: ATOM     13  O   UNL     1      37.183  17.151 123.982 -0.28 -0.00    +0.000 OA
DOCKED: ATOM     14  C   UNL     1      39.926  15.230 122.571 -0.39 -0.00    +0.000 C 
DOCKED: ATOM     15  O   UNL     1      40.171  14.092 122.082 -1.01 +0.00    +0.000 OA
DOCKED: ATOM     16  CM  UNL     1      39.651  16.501 123.150 +0.00 -0.00    +0.000 AC
DOCKED: ATOM     17  CM  UNL     1      40.514  18.735 123.906 +0.00 -0.00    +0.000 AC
DOCKED: ATOM     18  CM  UNL     1      42.069  17.143 122.918 +0.00 -0.00    +0.000 AC
DOCKED: ENDROOT
DOCKED: BRANCH   1  16
DOCKED: ATOM     19  C   UNL     1      37.494  14.598 122.820 -0.45 -0.00    +0.000 C 
DOCKED: BRANCH  16  17
DOCKED: ATOM     20  C   UNL     1      37.181  14.360 121.340 -0.34 -0.00    +0.000 C 
DOCKED: BRANCH  17  18
DOCKED: ATOM     21  C   UNL     1      37.591  12.947 120.909 -0.49 -0.00    +0.000 C 
DOCKED: BRANCH  18  19
DOCKED: ATOM     22  C   UNL     1      36.571  11.907 121.395 -0.50 -0.00    +0.000 C 
DOCKED: BRANCH  19  20
DOCKED: ATOM     23  C   UNL     1      37.091  11.095 122.589 -0.56 -0.00    +0.000 C 
DOCKED: BRANCH  20  22
DOCKED: ATOM     24  O   UNL     1      36.693   9.184 121.210 -2.63 -0.00    +0.000 OA
DOCKED: ATOM     25  C   UNL     1      36.938   9.618 122.368 -0.64 -0.00    +0.000 C 
DOCKED: ATOM     26  N   UNL     1      37.102   8.703 123.454 -0.63 -0.00    +0.000 N 
DOCKED: ATOM     27  O   UNL     1      36.982   7.371 123.251 -2.35 -0.00    +0.000 OA
DOCKED: ATOM     28  H   UNL     1      37.305   9.044 124.355 -0.58 -0.00    +0.000 HD
DOCKED: ENDBRANCH  20  22
DOCKED: ENDBRANCH  19  20
DOCKED: ENDBRANCH  18  19
DOCKED: ENDBRANCH  17  18
DOCKED: ENDBRANCH  16  17
DOCKED: ENDBRANCH   1  16
DOCKED: TORSDOF 6DOCKED: TER
DOCKED: ENDMDL
________________________________________________________________________________


	BEGINNING GENETIC ALGORITHM DOCKING 74 of 100
Run: 74 Seed: 1198081121 1153377480 [ Run 74 of 100 GA/GALS ]
Beginning LAMARCKIAN GENETIC ALGORITHM (LGA), with a maximum of 2500000 energy evaluations.

Final-Value: -15.126


	FINAL GENETIC ALGORITHM DOCKED STATE
	_______________________________________________


Detailed state:  trans 34.278 15.696 123.408 quatxyzw 0.385950 -0.291936 -0.745438 -0.458408 center -0.023 0.069 -0.054 ntor 6 -81.8450 -97.5216 -62.0186 45.4892 75.7196 -179.2122
State:	 34.278  15.696 123.408   0.434 -0.328 -0.839 -125.431    -81.85  -97.52  -62.02   45.49   75.72 -179.21

DOCKED: MODEL       74
DOCKED: USER    Run = 74
DOCKED: USER    DPF = ligand_dock.biased.dpf
DOCKED: USER  
DOCKED: USER    Estimated Free Energy of Binding    =  -12.64 kcal/mol  [=(1)+(2)+(3)-(4)]
DOCKED: USER    Estimated Inhibition Constant, Ki   =  546.13 pM (picomolar)  [Temperature = 298.15 K]
DOCKED: USER    
DOCKED: USER    (1) Final Intermolecular Energy     =  -14.43 kcal/mol
DOCKED: USER        vdW + Hbond + desolv Energy     =  -14.43 kcal/mol
DOCKED: USER        Electrostatic Energy            =   +0.00 kcal/mol
DOCKED: USER    (2) Final Total Internal Energy     =   -0.70 kcal/mol
DOCKED: USER    (3) Torsional Free Energy           =   +1.79 kcal/mol
DOCKED: USER    (4) Unbound System's Energy  [=(2)] =   -0.70 kcal/mol
DOCKED: USER    
DOCKED: USER    
DOCKED: USER    NEWDPF move ligand.dum.pdbqt
DOCKED: USER    NEWDPF about -0.023000 0.069000 -0.054000
DOCKED: USER    NEWDPF tran0 34.277939 15.696016 123.408146
DOCKED: USER    NEWDPF quaternion0 0.385950 -0.291936 -0.745438 -0.458408
DOCKED: USER    NEWDPF axisangle0 0.434266 -0.328482 -0.838756 -125.431153
DOCKED: USER    NEWDPF quat0 0.434266 -0.328482 -0.838756 -125.431153
DOCKED: USER    NEWDPF dihe0 -81.85 -97.52 -62.02 45.49 75.72 -179.21 
DOCKED: USER  keepresnum = 1 
DOCKED: USER  
DOCKED: REMARK  Name = 
DOCKED: REMARK  6 active torsions:
DOCKED: REMARK  status: ('A' for Active; 'I' for Inactive)
DOCKED: REMARK    1  A    between atoms: C_2  and  C_5
DOCKED: REMARK    2  A    between atoms: C_5  and  C_6
DOCKED: REMARK    3  A    between atoms: C_6  and  C_7
DOCKED: REMARK    4  A    between atoms: C_7  and  C_8
DOCKED: REMARK    5  A    between atoms: C_8  and  C_9
DOCKED: REMARK    6  A    between atoms: C_9  and  N_10
DOCKED: REMARK                            x       y       z     vdW  Elec       q    Type
DOCKED: REMARK                         _______ _______ _______ _____ _____    ______ ____
DOCKED: USER                              x       y       z     vdW  Elec       q    Type
DOCKED: USER                           _______ _______ _______ _____ _____    ______ ____
DOCKED: ROOT
DOCKED: ATOM      1  N   UNL     1      34.833  15.940 124.099 -0.50 -0.00    +0.000 N 
DOCKED: ATOM      2  C   UNL     1      35.448  16.874 123.192 -0.37 -0.00    +0.000 C 
DOCKED: ATOM      3  C   UNL     1      35.580  18.299 123.574 -0.24 -0.00    +0.000 A 
DOCKED: ATOM      4  C   UNL     1      36.206  19.216 122.710 -0.17 -0.00    +0.000 A 
DOCKED: ATOM      5  C   UNL     1      36.331  20.558 123.069 -0.14 -0.00    +0.000 A 
DOCKED: ATOM      6  C   UNL     1      35.835  21.009 124.292 -0.14 -0.00    +0.000 A 
DOCKED: ATOM      7  C   UNL     1      35.205  20.115 125.171 -0.16 -0.00    +0.000 A 
DOCKED: ATOM      8  C   UNL     1      34.704  20.569 126.399 -0.13 -0.00    +0.000 A 
DOCKED: ATOM      9  C   UNL     1      34.076  19.682 127.272 -0.14 -0.00    +0.000 A 
DOCKED: ATOM     10  C   UNL     1      33.942  18.334 126.931 -0.25 -0.00    +0.000 A 
DOCKED: ATOM     11  C   UNL     1      34.437  17.854 125.705 -0.33 -0.00    +0.000 A 
DOCKED: ATOM     12  C   UNL     1      35.074  18.748 124.815 -0.24 -0.00    +0.000 A 
DOCKED: ATOM     13  O   UNL     1      35.872  16.481 122.070 -0.29 -0.00    +0.000 OA
DOCKED: ATOM     14  C   UNL     1      34.294  16.425 125.344 -0.47 -0.00    +0.000 C 
DOCKED: ATOM     15  O   UNL     1      33.696  15.635 126.126 -0.93 -0.00    +0.000 OA
DOCKED: ATOM     16  CM  UNL     1      34.941  17.319 124.445 -0.32 -0.00    +0.000 AC
DOCKED: ATOM     17  CM  UNL     1      35.705  19.658 123.939 -0.01 -0.00    +0.000 AC
DOCKED: ATOM     18  CM  UNL     1      34.573  19.217 126.049 -0.05 -0.00    +0.000 AC
DOCKED: ENDROOT
DOCKED: BRANCH   1  16
DOCKED: ATOM     19  C   UNL     1      34.664  14.531 123.715 -0.26 -0.00    +0.000 C 
DOCKED: BRANCH  16  17
DOCKED: ATOM     20  C   UNL     1      35.855  13.702 124.206 -0.41 -0.00    +0.000 C 
DOCKED: BRANCH  17  18
DOCKED: ATOM     21  C   UNL     1      36.801  13.357 123.050 -0.58 -0.00    +0.000 C 
DOCKED: BRANCH  18  19
DOCKED: ATOM     22  C   UNL     1      37.207  11.877 123.095 -0.59 -0.00    +0.000 C 
DOCKED: BRANCH  19  20
DOCKED: ATOM     23  C   UNL     1      36.816  11.127 121.814 -0.57 -0.00    +0.000 C 
DOCKED: BRANCH  20  22
DOCKED: ATOM     24  O   UNL     1      36.953   8.893 120.975 -2.68 -0.00    +0.000 OA
DOCKED: ATOM     25  C   UNL     1      36.906   9.639 121.990 -0.63 -0.00    +0.000 C 
DOCKED: ATOM     26  N   UNL     1      36.970   9.068 123.299 -0.61 -0.00    +0.000 N 
DOCKED: ATOM     27  O   UNL     1      37.068   7.727 123.457 -2.70 -0.00    +0.000 OA
DOCKED: ATOM     28  H   UNL     1      36.945   9.653 124.090 -0.52 -0.00    +0.000 HD
DOCKED: ENDBRANCH  20  22
DOCKED: ENDBRANCH  19  20
DOCKED: ENDBRANCH  18  19
DOCKED: ENDBRANCH  17  18
DOCKED: ENDBRANCH  16  17
DOCKED: ENDBRANCH   1  16
DOCKED: TORSDOF 6DOCKED: TER
DOCKED: ENDMDL
________________________________________________________________________________


	BEGINNING GENETIC ALGORITHM DOCKING 75 of 100
Run: 75 Seed: 749784351 216277883 [ Run 75 of 100 GA/GALS ]
Beginning LAMARCKIAN GENETIC ALGORITHM (LGA), with a maximum of 2500000 energy evaluations.

Final-Value: -13.924


	FINAL GENETIC ALGORITHM DOCKED STATE
	_______________________________________________


Detailed state:  trans 37.612 15.331 121.800 quatxyzw 0.287429 -0.590304 -0.753782 -0.027174 center -0.023 0.069 -0.054 ntor 6 121.2309 180.0000 -61.4007 -170.2304 53.3988 -137.9630
State:	 37.612  15.331 121.800   0.288 -0.591 -0.754 -176.886    121.23  180.00  -61.40 -170.23   53.40 -137.96

DOCKED: MODEL       75
DOCKED: USER    Run = 75
DOCKED: USER    DPF = ligand_dock.biased.dpf
DOCKED: USER  
DOCKED: USER    Estimated Free Energy of Binding    =  -11.33 kcal/mol  [=(1)+(2)+(3)-(4)]
DOCKED: USER    Estimated Inhibition Constant, Ki   =    4.99 nM (nanomolar)  [Temperature = 298.15 K]
DOCKED: USER    
DOCKED: USER    (1) Final Intermolecular Energy     =  -13.12 kcal/mol
DOCKED: USER        vdW + Hbond + desolv Energy     =  -13.12 kcal/mol
DOCKED: USER        Electrostatic Energy            =   +0.00 kcal/mol
DOCKED: USER    (2) Final Total Internal Energy     =   -0.81 kcal/mol
DOCKED: USER    (3) Torsional Free Energy           =   +1.79 kcal/mol
DOCKED: USER    (4) Unbound System's Energy  [=(2)] =   -0.81 kcal/mol
DOCKED: USER    
DOCKED: USER    
DOCKED: USER    NEWDPF move ligand.dum.pdbqt
DOCKED: USER    NEWDPF about -0.023000 0.069000 -0.054000
DOCKED: USER    NEWDPF tran0 37.611701 15.331390 121.799726
DOCKED: USER    NEWDPF quaternion0 0.287429 -0.590304 -0.753782 -0.027174
DOCKED: USER    NEWDPF axisangle0 0.287535 -0.590522 -0.754061 -176.885660
DOCKED: USER    NEWDPF quat0 0.287535 -0.590522 -0.754061 -176.885660
DOCKED: USER    NEWDPF dihe0 121.23 180.00 -61.40 -170.23 53.40 -137.96 
DOCKED: USER  keepresnum = 1 
DOCKED: USER  
DOCKED: REMARK  Name = 
DOCKED: REMARK  6 active torsions:
DOCKED: REMARK  status: ('A' for Active; 'I' for Inactive)
DOCKED: REMARK    1  A    between atoms: C_2  and  C_5
DOCKED: REMARK    2  A    between atoms: C_5  and  C_6
DOCKED: REMARK    3  A    between atoms: C_6  and  C_7
DOCKED: REMARK    4  A    between atoms: C_7  and  C_8
DOCKED: REMARK    5  A    between atoms: C_8  and  C_9
DOCKED: REMARK    6  A    between atoms: C_9  and  N_10
DOCKED: REMARK                            x       y       z     vdW  Elec       q    Type
DOCKED: REMARK                         _______ _______ _______ _____ _____    ______ ____
DOCKED: USER                              x       y       z     vdW  Elec       q    Type
DOCKED: USER                           _______ _______ _______ _____ _____    ______ ____
DOCKED: ROOT
DOCKED: ATOM      1  N   UNL     1      37.933  15.274 122.660 -0.33 -0.00    +0.000 N 
DOCKED: ATOM      2  C   UNL     1      39.226  14.995 122.090 -0.39 -0.00    +0.000 C 
DOCKED: ATOM      3  C   UNL     1      40.404  15.794 122.501 -0.34 -0.00    +0.000 A 
DOCKED: ATOM      4  C   UNL     1      41.677  15.512 121.976 -0.39 -0.00    +0.000 A 
DOCKED: ATOM      5  C   UNL     1      42.787  16.265 122.362 -0.38 -0.00    +0.000 A 
DOCKED: ATOM      6  C   UNL     1      42.646  17.310 123.274 -0.30 -0.00    +0.000 A 
DOCKED: ATOM      7  C   UNL     1      41.386  17.613 123.811 -0.30 -0.00    +0.000 A 
DOCKED: ATOM      8  C   UNL     1      41.244  18.665 124.726 -0.23 -0.00    +0.000 A 
DOCKED: ATOM      9  C   UNL     1      39.992  18.968 125.258 -0.20 -0.00    +0.000 A 
DOCKED: ATOM     10  C   UNL     1      38.869  18.226 124.886 -0.19 -0.00    +0.000 A 
DOCKED: ATOM     11  C   UNL     1      38.986  17.165 123.970 -0.15 -0.00    +0.000 A 
DOCKED: ATOM     12  C   UNL     1      40.252  16.852 123.426 -0.22 -0.00    +0.000 A 
DOCKED: ATOM     13  O   UNL     1      39.357  14.071 121.241 -0.73 -0.00    +0.000 OA
DOCKED: ATOM     14  C   UNL     1      37.795  16.379 123.574 -0.26 -0.00    +0.000 C 
DOCKED: ATOM     15  O   UNL     1      36.660  16.679 124.037 -0.34 -0.00    +0.000 OA
DOCKED: ATOM     16  CM  UNL     1      39.068  16.055 123.026 +0.00 -0.00    +0.000 AC
DOCKED: ATOM     17  CM  UNL     1      41.526  16.558 122.892 +0.00 -0.00    +0.000 AC
DOCKED: ATOM     18  CM  UNL     1      40.122  17.915 124.346 +0.00 -0.00    +0.000 AC
DOCKED: ENDROOT
DOCKED: BRANCH   1  16
DOCKED: ATOM     19  C   UNL     1      36.752  14.511 122.233 -0.36 -0.00    +0.000 C 
DOCKED: BRANCH  16  17
DOCKED: ATOM     20  C   UNL     1      35.929  14.083 123.452 -0.55 -0.00    +0.000 C 
DOCKED: BRANCH  17  18
DOCKED: ATOM     21  C   UNL     1      35.674  12.571 123.443 -0.52 -0.00    +0.000 C 
DOCKED: BRANCH  18  19
DOCKED: ATOM     22  C   UNL     1      36.516  11.879 122.361 -0.62 -0.00    +0.000 C 
DOCKED: BRANCH  19  20
DOCKED: ATOM     23  C   UNL     1      37.440  10.800 122.943 -0.12 -0.00    +0.000 C 
DOCKED: BRANCH  20  22
DOCKED: ATOM     24  O   UNL     1      36.631   9.217 121.347 -2.45 -0.00    +0.000 OA
DOCKED: ATOM     25  C   UNL     1      37.016   9.421 122.529 -0.63 -0.00    +0.000 C 
DOCKED: ATOM     26  N   UNL     1      37.079   8.335 123.457 -0.70 -0.00    +0.000 N 
DOCKED: ATOM     27  O   UNL     1      36.713   7.089 123.078 -1.92 -0.00    +0.000 OA
DOCKED: ATOM     28  H   UNL     1      37.391   8.495 124.377 -0.52 -0.00    +0.000 HD
DOCKED: ENDBRANCH  20  22
DOCKED: ENDBRANCH  19  20
DOCKED: ENDBRANCH  18  19
DOCKED: ENDBRANCH  17  18
DOCKED: ENDBRANCH  16  17
DOCKED: ENDBRANCH   1  16
DOCKED: TORSDOF 6DOCKED: TER
DOCKED: ENDMDL
________________________________________________________________________________


	BEGINNING GENETIC ALGORITHM DOCKING 76 of 100
Run: 76 Seed: 408959483 82406891 [ Run 76 of 100 GA/GALS ]
Beginning LAMARCKIAN GENETIC ALGORITHM (LGA), with a maximum of 2500000 energy evaluations.

Final-Value: -13.548


	FINAL GENETIC ALGORITHM DOCKED STATE
	_______________________________________________


Detailed state:  trans 38.049 15.986 120.352 quatxyzw -0.003266 -0.306173 -0.951510 -0.029593 center -0.023 0.069 -0.054 ntor 6 -26.1784 171.0685 -133.8623 -58.6081 -133.6775 178.4345
State:	 38.049  15.986 120.352  -0.003 -0.306 -0.952 -176.608    -26.18  171.07 -133.86  -58.61 -133.68  178.43

DOCKED: MODEL       76
DOCKED: USER    Run = 76
DOCKED: USER    DPF = ligand_dock.biased.dpf
DOCKED: USER  
DOCKED: USER    Estimated Free Energy of Binding    =  -10.89 kcal/mol  [=(1)+(2)+(3)-(4)]
DOCKED: USER    Estimated Inhibition Constant, Ki   =   10.40 nM (nanomolar)  [Temperature = 298.15 K]
DOCKED: USER    
DOCKED: USER    (1) Final Intermolecular Energy     =  -12.68 kcal/mol
DOCKED: USER        vdW + Hbond + desolv Energy     =  -12.68 kcal/mol
DOCKED: USER        Electrostatic Energy            =   +0.00 kcal/mol
DOCKED: USER    (2) Final Total Internal Energy     =   -0.87 kcal/mol
DOCKED: USER    (3) Torsional Free Energy           =   +1.79 kcal/mol
DOCKED: USER    (4) Unbound System's Energy  [=(2)] =   -0.87 kcal/mol
DOCKED: USER    
DOCKED: USER    
DOCKED: USER    NEWDPF move ligand.dum.pdbqt
DOCKED: USER    NEWDPF about -0.023000 0.069000 -0.054000
DOCKED: USER    NEWDPF tran0 38.048921 15.985639 120.352101
DOCKED: USER    NEWDPF quaternion0 -0.003266 -0.306173 -0.951510 -0.029593
DOCKED: USER    NEWDPF axisangle0 -0.003268 -0.306307 -0.951927 -176.608355
DOCKED: USER    NEWDPF quat0 -0.003268 -0.306307 -0.951927 -176.608355
DOCKED: USER    NEWDPF dihe0 -26.18 171.07 -133.86 -58.61 -133.68 178.43 
DOCKED: USER  keepresnum = 1 
DOCKED: USER  
DOCKED: REMARK  Name = 
DOCKED: REMARK  6 active torsions:
DOCKED: REMARK  status: ('A' for Active; 'I' for Inactive)
DOCKED: REMARK    1  A    between atoms: C_2  and  C_5
DOCKED: REMARK    2  A    between atoms: C_5  and  C_6
DOCKED: REMARK    3  A    between atoms: C_6  and  C_7
DOCKED: REMARK    4  A    between atoms: C_7  and  C_8
DOCKED: REMARK    5  A    between atoms: C_8  and  C_9
DOCKED: REMARK    6  A    between atoms: C_9  and  N_10
DOCKED: REMARK                            x       y       z     vdW  Elec       q    Type
DOCKED: REMARK                         _______ _______ _______ _____ _____    ______ ____
DOCKED: USER                              x       y       z     vdW  Elec       q    Type
DOCKED: USER                           _______ _______ _______ _____ _____    ______ ____
DOCKED: ROOT
DOCKED: ATOM      1  N   UNL     1      38.681  15.403 120.680 -0.21 -0.00    +0.000 N 
DOCKED: ATOM      2  C   UNL     1      39.386  15.567 119.435 -0.16 -0.00    +0.000 C 
DOCKED: ATOM      3  C   UNL     1      40.818  15.946 119.439 -0.11 -0.00    +0.000 A 
DOCKED: ATOM      4  C   UNL     1      41.525  16.079 118.232 -0.15 -0.00    +0.000 A 
DOCKED: ATOM      5  C   UNL     1      42.874  16.436 118.235 -0.16 -0.00    +0.000 A 
DOCKED: ATOM      6  C   UNL     1      43.538  16.667 119.439 -0.15 -0.00    +0.000 A 
DOCKED: ATOM      7  C   UNL     1      42.855  16.542 120.657 -0.19 -0.00    +0.000 A 
DOCKED: ATOM      8  C   UNL     1      43.522  16.776 121.868 -0.29 -0.00    +0.000 A 
DOCKED: ATOM      9  C   UNL     1      42.841  16.655 123.079 -0.39 -0.00    +0.000 A 
DOCKED: ATOM     10  C   UNL     1      41.492  16.298 123.097 -0.37 -0.00    +0.000 A 
DOCKED: ATOM     11  C   UNL     1      40.801  16.057 121.896 -0.28 -0.00    +0.000 A 
DOCKED: ATOM     12  C   UNL     1      41.483  16.178 120.664 -0.18 -0.00    +0.000 A 
DOCKED: ATOM     13  O   UNL     1      38.785  15.391 118.339 -0.19 -0.00    +0.000 OA
DOCKED: ATOM     14  C   UNL     1      39.369  15.679 121.915 -0.31 -0.00    +0.000 C 
DOCKED: ATOM     15  O   UNL     1      38.753  15.601 123.014 -0.36 -0.00    +0.000 OA
DOCKED: ATOM     16  CM  UNL     1      40.052  15.794 120.671 +0.00 -0.00    +0.000 AC
DOCKED: ATOM     17  CM  UNL     1      42.183  16.308 119.444 +0.00 -0.00    +0.000 AC
DOCKED: ATOM     18  CM  UNL     1      42.166  16.418 121.877 +0.00 -0.00    +0.000 AC
DOCKED: ENDROOT
DOCKED: BRANCH   1  16
DOCKED: ATOM     19  C   UNL     1      37.251  15.063 120.686 -0.26 -0.00    +0.000 C 
DOCKED: BRANCH  16  17
DOCKED: ATOM     20  C   UNL     1      37.069  13.542 120.715 -0.39 -0.00    +0.000 C 
DOCKED: BRANCH  17  18
DOCKED: ATOM     21  C   UNL     1      37.984  12.896 121.761 -0.30 -0.00    +0.000 C 
DOCKED: BRANCH  18  19
DOCKED: ATOM     22  C   UNL     1      37.167  12.106 122.794 -0.59 -0.00    +0.000 C 
DOCKED: BRANCH  19  20
DOCKED: ATOM     23  C   UNL     1      36.153  11.161 122.135 -0.61 -0.00    +0.000 C 
DOCKED: BRANCH  20  22
DOCKED: ATOM     24  O   UNL     1      37.033   9.204 121.082 -2.73 -0.00    +0.000 OA
DOCKED: ATOM     25  C   UNL     1      36.628   9.737 122.150 -0.68 -0.00    +0.000 C 
DOCKED: ATOM     26  N   UNL     1      36.654   8.996 123.372 -0.58 -0.00    +0.000 N 
DOCKED: ATOM     27  O   UNL     1      37.098   7.718 123.389 -2.66 -0.00    +0.000 OA
DOCKED: ATOM     28  H   UNL     1      36.348   9.418 124.207 -0.36 -0.00    +0.000 HD
DOCKED: ENDBRANCH  20  22
DOCKED: ENDBRANCH  19  20
DOCKED: ENDBRANCH  18  19
DOCKED: ENDBRANCH  17  18
DOCKED: ENDBRANCH  16  17
DOCKED: ENDBRANCH   1  16
DOCKED: TORSDOF 6DOCKED: TER
DOCKED: ENDMDL
________________________________________________________________________________


	BEGINNING GENETIC ALGORITHM DOCKING 77 of 100
Run: 77 Seed: 1937943439 604548516 [ Run 77 of 100 GA/GALS ]
Beginning LAMARCKIAN GENETIC ALGORITHM (LGA), with a maximum of 2500000 energy evaluations.

Final-Value: -14.041


	FINAL GENETIC ALGORITHM DOCKED STATE
	_______________________________________________


Detailed state:  trans 35.984 14.971 124.114 quatxyzw -0.315043 0.482480 -0.588642 -0.566976 center -0.023 0.069 -0.054 ntor 6 -170.5175 137.3224 -59.7873 -179.0725 13.1798 4.3821
State:	 35.984  14.971 124.114  -0.382  0.586 -0.715 -110.921   -170.52  137.32  -59.79 -179.07   13.18    4.38

DOCKED: MODEL       77
DOCKED: USER    Run = 77
DOCKED: USER    DPF = ligand_dock.biased.dpf
DOCKED: USER  
DOCKED: USER    Estimated Free Energy of Binding    =  -11.43 kcal/mol  [=(1)+(2)+(3)-(4)]
DOCKED: USER    Estimated Inhibition Constant, Ki   =    4.16 nM (nanomolar)  [Temperature = 298.15 K]
DOCKED: USER    
DOCKED: USER    (1) Final Intermolecular Energy     =  -13.22 kcal/mol
DOCKED: USER        vdW + Hbond + desolv Energy     =  -13.22 kcal/mol
DOCKED: USER        Electrostatic Energy            =   +0.00 kcal/mol
DOCKED: USER    (2) Final Total Internal Energy     =   -0.82 kcal/mol
DOCKED: USER    (3) Torsional Free Energy           =   +1.79 kcal/mol
DOCKED: USER    (4) Unbound System's Energy  [=(2)] =   -0.82 kcal/mol
DOCKED: USER    
DOCKED: USER    
DOCKED: USER    NEWDPF move ligand.dum.pdbqt
DOCKED: USER    NEWDPF about -0.023000 0.069000 -0.054000
DOCKED: USER    NEWDPF tran0 35.984303 14.970804 124.113865
DOCKED: USER    NEWDPF quaternion0 -0.315043 0.482480 -0.588642 -0.566976
DOCKED: USER    NEWDPF axisangle0 -0.382458 0.585723 -0.714601 -110.920768
DOCKED: USER    NEWDPF quat0 -0.382458 0.585723 -0.714601 -110.920768
DOCKED: USER    NEWDPF dihe0 -170.52 137.32 -59.79 -179.07 13.18 4.38 
DOCKED: USER  keepresnum = 1 
DOCKED: USER  
DOCKED: REMARK  Name = 
DOCKED: REMARK  6 active torsions:
DOCKED: REMARK  status: ('A' for Active; 'I' for Inactive)
DOCKED: REMARK    1  A    between atoms: C_2  and  C_5
DOCKED: REMARK    2  A    between atoms: C_5  and  C_6
DOCKED: REMARK    3  A    between atoms: C_6  and  C_7
DOCKED: REMARK    4  A    between atoms: C_7  and  C_8
DOCKED: REMARK    5  A    between atoms: C_8  and  C_9
DOCKED: REMARK    6  A    between atoms: C_9  and  N_10
DOCKED: REMARK                            x       y       z     vdW  Elec       q    Type
DOCKED: REMARK                         _______ _______ _______ _____ _____    ______ ____
DOCKED: USER                              x       y       z     vdW  Elec       q    Type
DOCKED: USER                           _______ _______ _______ _____ _____    ______ ____
DOCKED: ROOT
DOCKED: ATOM      1  N   UNL     1      36.258  15.638 123.543 -0.39 -0.00    +0.000 N 
DOCKED: ATOM      2  C   UNL     1      35.231  16.466 124.120 -0.46 -0.00    +0.000 C 
DOCKED: ATOM      3  C   UNL     1      35.570  17.807 124.649 -0.27 -0.00    +0.000 A 
DOCKED: ATOM      4  C   UNL     1      34.571  18.637 125.186 -0.28 -0.00    +0.000 A 
DOCKED: ATOM      5  C   UNL     1      34.891  19.901 125.686 -0.17 -0.00    +0.000 A 
DOCKED: ATOM      6  C   UNL     1      36.209  20.355 125.659 -0.11 -0.00    +0.000 A 
DOCKED: ATOM      7  C   UNL     1      37.224  19.546 125.130 -0.12 -0.00    +0.000 A 
DOCKED: ATOM      8  C   UNL     1      38.549  20.002 125.105 -0.08 -0.00    +0.000 A 
DOCKED: ATOM      9  C   UNL     1      39.560  19.196 124.582 -0.13 -0.00    +0.000 A 
DOCKED: ATOM     10  C   UNL     1      39.260  17.929 124.077 -0.20 -0.00    +0.000 A 
DOCKED: ATOM     11  C   UNL     1      37.938  17.449 124.089 -0.17 -0.00    +0.000 A 
DOCKED: ATOM     12  C   UNL     1      36.909  18.260 124.619 -0.18 -0.00    +0.000 A 
DOCKED: ATOM     13  O   UNL     1      34.040  16.050 124.176 -0.60 -0.00    +0.000 OA
DOCKED: ATOM     14  C   UNL     1      37.621  16.105 123.554 -0.27 -0.00    +0.000 C 
DOCKED: ATOM     15  O   UNL     1      38.546  15.370 123.110 -0.39 -0.00    +0.000 OA
DOCKED: ATOM     16  CM  UNL     1      36.579  16.919 124.081 -0.02 -0.00    +0.000 AC
DOCKED: ATOM     17  CM  UNL     1      35.895  19.085 125.155 -0.07 -0.00    +0.000 AC
DOCKED: ATOM     18  CM  UNL     1      38.240  18.731 124.600 +0.00 -0.00    +0.000 AC
DOCKED: ENDROOT
DOCKED: BRANCH   1  16
DOCKED: ATOM     19  C   UNL     1      35.938  14.292 123.048 -0.40 -0.00    +0.000 C 
DOCKED: BRANCH  16  17
DOCKED: ATOM     20  C   UNL     1      35.946  13.287 124.204 -0.40 -0.00    +0.000 C 
DOCKED: BRANCH  17  18
DOCKED: ATOM     21  C   UNL     1      35.938  11.845 123.684 -0.67 -0.00    +0.000 C 
DOCKED: BRANCH  18  19
DOCKED: ATOM     22  C   UNL     1      35.957  11.816 122.148 -0.46 -0.00    +0.000 C 
DOCKED: BRANCH  19  20
DOCKED: ATOM     23  C   UNL     1      37.142  11.012 121.595 -0.43 -0.00    +0.000 C 
DOCKED: BRANCH  20  22
DOCKED: ATOM     24  O   UNL     1      36.754   8.749 120.934 -2.54 -0.00    +0.000 OA
DOCKED: ATOM     25  C   UNL     1      37.001   9.545 121.879 -0.61 -0.00    +0.000 C 
DOCKED: ATOM     26  N   UNL     1      37.178   9.044 123.206 -0.59 -0.00    +0.000 N 
DOCKED: ATOM     27  O   UNL     1      37.067   7.719 123.459 -2.70 -0.00    +0.000 OA
DOCKED: ATOM     28  H   UNL     1      37.382   9.667 123.941 -0.49 -0.00    +0.000 HD
DOCKED: ENDBRANCH  20  22
DOCKED: ENDBRANCH  19  20
DOCKED: ENDBRANCH  18  19
DOCKED: ENDBRANCH  17  18
DOCKED: ENDBRANCH  16  17
DOCKED: ENDBRANCH   1  16
DOCKED: TORSDOF 6DOCKED: TER
DOCKED: ENDMDL
________________________________________________________________________________


	BEGINNING GENETIC ALGORITHM DOCKING 78 of 100
Run: 78 Seed: 1440234768 476075064 [ Run 78 of 100 GA/GALS ]
Beginning LAMARCKIAN GENETIC ALGORITHM (LGA), with a maximum of 2500000 energy evaluations.

Final-Value: -13.848


	FINAL GENETIC ALGORITHM DOCKED STATE
	_______________________________________________


Detailed state:  trans 38.235 15.493 122.534 quatxyzw 0.898670 -0.203448 0.387243 -0.032318 center -0.023 0.069 -0.054 ntor 6 178.9458 -160.6235 174.3008 -48.8810 144.2603 -153.4022
State:	 38.235  15.493 122.534   0.899 -0.204  0.387 -176.296    178.95 -160.62  174.30  -48.88  144.26 -153.40

DOCKED: MODEL       78
DOCKED: USER    Run = 78
DOCKED: USER    DPF = ligand_dock.biased.dpf
DOCKED: USER  
DOCKED: USER    Estimated Free Energy of Binding    =  -10.83 kcal/mol  [=(1)+(2)+(3)-(4)]
DOCKED: USER    Estimated Inhibition Constant, Ki   =   11.53 nM (nanomolar)  [Temperature = 298.15 K]
DOCKED: USER    
DOCKED: USER    (1) Final Intermolecular Energy     =  -12.62 kcal/mol
DOCKED: USER        vdW + Hbond + desolv Energy     =  -12.62 kcal/mol
DOCKED: USER        Electrostatic Energy            =   +0.00 kcal/mol
DOCKED: USER    (2) Final Total Internal Energy     =   -1.23 kcal/mol
DOCKED: USER    (3) Torsional Free Energy           =   +1.79 kcal/mol
DOCKED: USER    (4) Unbound System's Energy  [=(2)] =   -1.23 kcal/mol
DOCKED: USER    
DOCKED: USER    
DOCKED: USER    NEWDPF move ligand.dum.pdbqt
DOCKED: USER    NEWDPF about -0.023000 0.069000 -0.054000
DOCKED: USER    NEWDPF tran0 38.234818 15.493477 122.534248
DOCKED: USER    NEWDPF quaternion0 0.898670 -0.203448 0.387243 -0.032318
DOCKED: USER    NEWDPF axisangle0 0.899139 -0.203554 0.387445 -176.295954
DOCKED: USER    NEWDPF quat0 0.899139 -0.203554 0.387445 -176.295954
DOCKED: USER    NEWDPF dihe0 178.95 -160.62 174.30 -48.88 144.26 -153.40 
DOCKED: USER  keepresnum = 1 
DOCKED: USER  
DOCKED: REMARK  Name = 
DOCKED: REMARK  6 active torsions:
DOCKED: REMARK  status: ('A' for Active; 'I' for Inactive)
DOCKED: REMARK    1  A    between atoms: C_2  and  C_5
DOCKED: REMARK    2  A    between atoms: C_5  and  C_6
DOCKED: REMARK    3  A    between atoms: C_6  and  C_7
DOCKED: REMARK    4  A    between atoms: C_7  and  C_8
DOCKED: REMARK    5  A    between atoms: C_8  and  C_9
DOCKED: REMARK    6  A    between atoms: C_9  and  N_10
DOCKED: REMARK                            x       y       z     vdW  Elec       q    Type
DOCKED: REMARK                         _______ _______ _______ _____ _____    ______ ____
DOCKED: USER                              x       y       z     vdW  Elec       q    Type
DOCKED: USER                           _______ _______ _______ _____ _____    ______ ____
DOCKED: ROOT
DOCKED: ATOM      1  N   UNL     1      37.541  15.072 122.102 -0.30 -0.00    +0.000 N 
DOCKED: ATOM      2  C   UNL     1      36.771  16.272 122.301 -0.27 -0.00    +0.000 C 
DOCKED: ATOM      3  C   UNL     1      36.103  16.923 121.151 -0.18 -0.00    +0.000 A 
DOCKED: ATOM      4  C   UNL     1      35.323  18.078 121.337 -0.25 -0.00    +0.000 A 
DOCKED: ATOM      5  C   UNL     1      34.694  18.692 120.253 -0.24 -0.00    +0.000 A 
DOCKED: ATOM      6  C   UNL     1      34.834  18.168 118.968 -0.17 -0.00    +0.000 A 
DOCKED: ATOM      7  C   UNL     1      35.608  17.018 118.756 -0.13 -0.00    +0.000 A 
DOCKED: ATOM      8  C   UNL     1      35.751  16.492 117.464 -0.13 -0.00    +0.000 A 
DOCKED: ATOM      9  C   UNL     1      36.523  15.351 117.252 -0.19 -0.00    +0.000 A 
DOCKED: ATOM     10  C   UNL     1      37.159  14.721 118.324 -0.25 -0.00    +0.000 A 
DOCKED: ATOM     11  C   UNL     1      37.031  15.228 119.629 -0.20 -0.00    +0.000 A 
DOCKED: ATOM     12  C   UNL     1      36.250  16.385 119.852 -0.13 -0.00    +0.000 A 
DOCKED: ATOM     13  O   UNL     1      36.664  16.771 123.456 -0.30 -0.00    +0.000 OA
DOCKED: ATOM     14  C   UNL     1      37.706  14.561 120.765 -0.33 -0.00    +0.000 C 
DOCKED: ATOM     15  O   UNL     1      38.428  13.546 120.560 -0.42 -0.00    +0.000 OA
DOCKED: ATOM     16  CM  UNL     1      36.918  15.722 120.997 +0.00 -0.00    +0.000 AC
DOCKED: ATOM     17  CM  UNL     1      35.469  17.544 120.053 +0.00 -0.00    +0.000 AC
DOCKED: ATOM     18  CM  UNL     1      36.387  15.866 118.546 +0.00 -0.00    +0.000 AC
DOCKED: ENDROOT
DOCKED: BRANCH   1  16
DOCKED: ATOM     19  C   UNL     1      38.237  14.438 123.231 -0.31 -0.00    +0.000 C 
DOCKED: BRANCH  16  17
DOCKED: ATOM     20  C   UNL     1      37.707  13.017 123.448 -0.49 -0.00    +0.000 C 
DOCKED: BRANCH  17  18
DOCKED: ATOM     21  C   UNL     1      36.203  12.938 123.163 -0.60 -0.00    +0.000 C 
DOCKED: BRANCH  18  19
DOCKED: ATOM     22  C   UNL     1      35.880  11.750 122.245 -0.42 -0.00    +0.000 C 
DOCKED: BRANCH  19  20
DOCKED: ATOM     23  C   UNL     1      37.141  10.995 121.804 -0.43 -0.00    +0.000 C 
DOCKED: BRANCH  20  22
DOCKED: ATOM     24  O   UNL     1      36.690   8.779 121.031 -2.55 -0.00    +0.000 OA
DOCKED: ATOM     25  C   UNL     1      37.002   9.514 122.006 -0.63 -0.00    +0.000 C 
DOCKED: ATOM     26  N   UNL     1      37.255   8.932 123.287 -0.57 -0.00    +0.000 N 
DOCKED: ATOM     27  O   UNL     1      37.147   7.595 123.465 -2.58 -0.00    +0.000 OA
DOCKED: ATOM     28  H   UNL     1      37.511   9.507 124.044 -0.54 -0.00    +0.000 HD
DOCKED: ENDBRANCH  20  22
DOCKED: ENDBRANCH  19  20
DOCKED: ENDBRANCH  18  19
DOCKED: ENDBRANCH  17  18
DOCKED: ENDBRANCH  16  17
DOCKED: ENDBRANCH   1  16
DOCKED: TORSDOF 6DOCKED: TER
DOCKED: ENDMDL
________________________________________________________________________________


	BEGINNING GENETIC ALGORITHM DOCKING 79 of 100
Run: 79 Seed: 1909691668 1900371304 [ Run 79 of 100 GA/GALS ]
Beginning LAMARCKIAN GENETIC ALGORITHM (LGA), with a maximum of 2500000 energy evaluations.

Final-Value: -14.179


	FINAL GENETIC ALGORITHM DOCKED STATE
	_______________________________________________


Detailed state:  trans 38.828 15.065 123.749 quatxyzw -0.368718 0.408879 -0.756922 -0.352042 center -0.023 0.069 -0.054 ntor 6 42.2247 -50.9772 124.0002 -53.7239 -77.7953 164.5177
State:	 38.828  15.065 123.749  -0.394  0.437 -0.809 -138.775     42.22  -50.98  124.00  -53.72  -77.80  164.52

DOCKED: MODEL       79
DOCKED: USER    Run = 79
DOCKED: USER    DPF = ligand_dock.biased.dpf
DOCKED: USER  
DOCKED: USER    Estimated Free Energy of Binding    =  -11.61 kcal/mol  [=(1)+(2)+(3)-(4)]
DOCKED: USER    Estimated Inhibition Constant, Ki   =    3.06 nM (nanomolar)  [Temperature = 298.15 K]
DOCKED: USER    
DOCKED: USER    (1) Final Intermolecular Energy     =  -13.40 kcal/mol
DOCKED: USER        vdW + Hbond + desolv Energy     =  -13.40 kcal/mol
DOCKED: USER        Electrostatic Energy            =   +0.00 kcal/mol
DOCKED: USER    (2) Final Total Internal Energy     =   -0.77 kcal/mol
DOCKED: USER    (3) Torsional Free Energy           =   +1.79 kcal/mol
DOCKED: USER    (4) Unbound System's Energy  [=(2)] =   -0.77 kcal/mol
DOCKED: USER    
DOCKED: USER    
DOCKED: USER    NEWDPF move ligand.dum.pdbqt
DOCKED: USER    NEWDPF about -0.023000 0.069000 -0.054000
DOCKED: USER    NEWDPF tran0 38.827533 15.065346 123.748681
DOCKED: USER    NEWDPF quaternion0 -0.368718 0.408879 -0.756922 -0.352042
DOCKED: USER    NEWDPF axisangle0 -0.393936 0.436844 -0.808691 -138.775456
DOCKED: USER    NEWDPF quat0 -0.393936 0.436844 -0.808691 -138.775456
DOCKED: USER    NEWDPF dihe0 42.22 -50.98 124.00 -53.72 -77.80 164.52 
DOCKED: USER  keepresnum = 1 
DOCKED: USER  
DOCKED: REMARK  Name = 
DOCKED: REMARK  6 active torsions:
DOCKED: REMARK  status: ('A' for Active; 'I' for Inactive)
DOCKED: REMARK    1  A    between atoms: C_2  and  C_5
DOCKED: REMARK    2  A    between atoms: C_5  and  C_6
DOCKED: REMARK    3  A    between atoms: C_6  and  C_7
DOCKED: REMARK    4  A    between atoms: C_7  and  C_8
DOCKED: REMARK    5  A    between atoms: C_8  and  C_9
DOCKED: REMARK    6  A    between atoms: C_9  and  N_10
DOCKED: REMARK                            x       y       z     vdW  Elec       q    Type
DOCKED: REMARK                         _______ _______ _______ _____ _____    ______ ____
DOCKED: USER                              x       y       z     vdW  Elec       q    Type
DOCKED: USER                           _______ _______ _______ _____ _____    ______ ____
DOCKED: ROOT
DOCKED: ATOM      1  N   UNL     1      39.205  15.295 122.942 -0.31 -0.00    +0.000 N 
DOCKED: ATOM      2  C   UNL     1      38.591  16.589 123.095 -0.27 -0.00    +0.000 C 
DOCKED: ATOM      3  C   UNL     1      39.411  17.816 122.979 -0.16 -0.00    +0.000 A 
DOCKED: ATOM      4  C   UNL     1      38.818  19.086 123.096 -0.08 -0.00    +0.000 A 
DOCKED: ATOM      5  C   UNL     1      39.591  20.243 122.987 -0.03 -0.00    +0.000 A 
DOCKED: ATOM      6  C   UNL     1      40.964  20.154 122.761 -0.04 -0.00    +0.000 A 
DOCKED: ATOM      7  C   UNL     1      41.580  18.899 122.642 -0.11 -0.00    +0.000 A 
DOCKED: ATOM      8  C   UNL     1      42.960  18.810 122.418 -0.14 -0.00    +0.000 A 
DOCKED: ATOM      9  C   UNL     1      43.574  17.563 122.303 -0.25 -0.00    +0.000 A 
DOCKED: ATOM     10  C   UNL     1      42.818  16.394 122.408 -0.37 -0.00    +0.000 A 
DOCKED: ATOM     11  C   UNL     1      41.431  16.457 122.632 -0.34 -0.00    +0.000 A 
DOCKED: ATOM     12  C   UNL     1      40.802  17.717 122.751 -0.18 -0.00    +0.000 A 
DOCKED: ATOM     13  O   UNL     1      37.354  16.678 123.330 -0.28 -0.00    +0.000 OA
DOCKED: ATOM     14  C   UNL     1      40.630  15.217 122.745 -0.43 -0.00    +0.000 C 
DOCKED: ATOM     15  O   UNL     1      41.197  14.092 122.670 -1.08 +0.00    +0.000 OA
DOCKED: ATOM     16  CM  UNL     1      39.990  16.483 122.860 +0.00 -0.00    +0.000 AC
DOCKED: ATOM     17  CM  UNL     1      40.194  18.986 122.869 +0.00 -0.00    +0.000 AC
DOCKED: ATOM     18  CM  UNL     1      42.195  17.640 122.526 +0.00 -0.00    +0.000 AC
DOCKED: ENDROOT
DOCKED: BRANCH   1  16
DOCKED: ATOM     19  C   UNL     1      38.407  14.070 123.091 -0.43 -0.00    +0.000 C 
DOCKED: BRANCH  16  17
DOCKED: ATOM     20  C   UNL     1      37.564  13.831 121.835 -0.45 -0.00    +0.000 C 
DOCKED: BRANCH  17  18
DOCKED: ATOM     21  C   UNL     1      38.190  12.748 120.948 -0.37 -0.00    +0.000 C 
DOCKED: BRANCH  18  19
DOCKED: ATOM     22  C   UNL     1      37.171  11.644 120.628 -0.38 -0.00    +0.000 C 
DOCKED: BRANCH  19  20
DOCKED: ATOM     23  C   UNL     1      36.518  11.070 121.893 -0.59 -0.00    +0.000 C 
DOCKED: BRANCH  20  22
DOCKED: ATOM     24  O   UNL     1      36.794   8.863 121.018 -2.64 -0.00    +0.000 OA
DOCKED: ATOM     25  C   UNL     1      36.786   9.600 122.040 -0.66 -0.00    +0.000 C 
DOCKED: ATOM     26  N   UNL     1      37.064   9.041 123.326 -0.62 -0.00    +0.000 N 
DOCKED: ATOM     27  O   UNL     1      37.322   7.719 123.457 -2.63 -0.00    +0.000 OA
DOCKED: ATOM     28  H   UNL     1      37.068   9.621 124.122 -0.56 -0.00    +0.000 HD
DOCKED: ENDBRANCH  20  22
DOCKED: ENDBRANCH  19  20
DOCKED: ENDBRANCH  18  19
DOCKED: ENDBRANCH  17  18
DOCKED: ENDBRANCH  16  17
DOCKED: ENDBRANCH   1  16
DOCKED: TORSDOF 6DOCKED: TER
DOCKED: ENDMDL
________________________________________________________________________________


	BEGINNING GENETIC ALGORITHM DOCKING 80 of 100
Run: 80 Seed: 1068821899 556357730 [ Run 80 of 100 GA/GALS ]
Beginning LAMARCKIAN GENETIC ALGORITHM (LGA), with a maximum of 2500000 energy evaluations.

Final-Value: -13.668


	FINAL GENETIC ALGORITHM DOCKED STATE
	_______________________________________________


Detailed state:  trans 36.905 13.863 124.172 quatxyzw -0.459873 0.376894 -0.564720 -0.572327 center -0.023 0.069 -0.054 ntor 6 92.4504 -148.1362 -16.3621 134.3786 33.7124 -160.2650
State:	 36.905  13.863 124.172  -0.561  0.460 -0.689 -110.175     92.45 -148.14  -16.36  134.38   33.71 -160.27

DOCKED: MODEL       80
DOCKED: USER    Run = 80
DOCKED: USER    DPF = ligand_dock.biased.dpf
DOCKED: USER  
DOCKED: USER    Estimated Free Energy of Binding    =  -11.21 kcal/mol  [=(1)+(2)+(3)-(4)]
DOCKED: USER    Estimated Inhibition Constant, Ki   =    6.11 nM (nanomolar)  [Temperature = 298.15 K]
DOCKED: USER    
DOCKED: USER    (1) Final Intermolecular Energy     =  -13.00 kcal/mol
DOCKED: USER        vdW + Hbond + desolv Energy     =  -13.00 kcal/mol
DOCKED: USER        Electrostatic Energy            =   +0.00 kcal/mol
DOCKED: USER    (2) Final Total Internal Energy     =   -0.67 kcal/mol
DOCKED: USER    (3) Torsional Free Energy           =   +1.79 kcal/mol
DOCKED: USER    (4) Unbound System's Energy  [=(2)] =   -0.67 kcal/mol
DOCKED: USER    
DOCKED: USER    
DOCKED: USER    NEWDPF move ligand.dum.pdbqt
DOCKED: USER    NEWDPF about -0.023000 0.069000 -0.054000
DOCKED: USER    NEWDPF tran0 36.904502 13.863184 124.171676
DOCKED: USER    NEWDPF quaternion0 -0.459873 0.376894 -0.564720 -0.572327
DOCKED: USER    NEWDPF axisangle0 -0.560804 0.459613 -0.688662 -110.174642
DOCKED: USER    NEWDPF quat0 -0.560804 0.459613 -0.688662 -110.174642
DOCKED: USER    NEWDPF dihe0 92.45 -148.14 -16.36 134.38 33.71 -160.27 
DOCKED: USER  keepresnum = 1 
DOCKED: USER  
DOCKED: REMARK  Name = 
DOCKED: REMARK  6 active torsions:
DOCKED: REMARK  status: ('A' for Active; 'I' for Inactive)
DOCKED: REMARK    1  A    between atoms: C_2  and  C_5
DOCKED: REMARK    2  A    between atoms: C_5  and  C_6
DOCKED: REMARK    3  A    between atoms: C_6  and  C_7
DOCKED: REMARK    4  A    between atoms: C_7  and  C_8
DOCKED: REMARK    5  A    between atoms: C_8  and  C_9
DOCKED: REMARK    6  A    between atoms: C_9  and  N_10
DOCKED: REMARK                            x       y       z     vdW  Elec       q    Type
DOCKED: REMARK                         _______ _______ _______ _____ _____    ______ ____
DOCKED: USER                              x       y       z     vdW  Elec       q    Type
DOCKED: USER                           _______ _______ _______ _____ _____    ______ ____
DOCKED: ROOT
DOCKED: ATOM      1  N   UNL     1      36.991  14.399 123.429 -0.46 -0.00    +0.000 N 
DOCKED: ATOM      2  C   UNL     1      35.810  15.094 123.871 -0.51 -0.00    +0.000 C 
DOCKED: ATOM      3  C   UNL     1      35.827  16.568 124.015 -0.33 -0.00    +0.000 A 
DOCKED: ATOM      4  C   UNL     1      34.671  17.261 124.415 -0.38 -0.00    +0.000 A 
DOCKED: ATOM      5  C   UNL     1      34.687  18.650 124.551 -0.25 -0.00    +0.000 A 
DOCKED: ATOM      6  C   UNL     1      35.853  19.369 124.292 -0.18 -0.00    +0.000 A 
DOCKED: ATOM      7  C   UNL     1      37.020  18.701 123.892 -0.15 -0.00    +0.000 A 
DOCKED: ATOM      8  C   UNL     1      38.193  19.424 123.633 -0.09 -0.00    +0.000 A 
DOCKED: ATOM      9  C   UNL     1      39.354  18.760 123.239 -0.10 -0.00    +0.000 A 
DOCKED: ATOM     10  C   UNL     1      39.358  17.371 123.096 -0.20 -0.00    +0.000 A 
DOCKED: ATOM     11  C   UNL     1      38.194  16.624 123.349 -0.23 -0.00    +0.000 A 
DOCKED: ATOM     12  C   UNL     1      37.013  17.289 123.750 -0.22 -0.00    +0.000 A 
DOCKED: ATOM     13  O   UNL     1      34.759  14.448 124.138 -0.60 -0.00    +0.000 OA
DOCKED: ATOM     14  C   UNL     1      38.199  15.151 123.199 -0.30 -0.00    +0.000 C 
DOCKED: ATOM     15  O   UNL     1      39.262  14.555 122.871 -0.64 -0.00    +0.000 OA
DOCKED: ATOM     16  CM  UNL     1      37.005  15.815 123.598 +0.00 -0.00    +0.000 AC
DOCKED: ATOM     17  CM  UNL     1      35.845  17.973 124.152 -0.15 -0.00    +0.000 AC
DOCKED: ATOM     18  CM  UNL     1      38.189  18.029 123.493 +0.00 -0.00    +0.000 AC
DOCKED: ENDROOT
DOCKED: BRANCH   1  16
DOCKED: ATOM     19  C   UNL     1      36.995  12.934 123.319 -0.62 -0.00    +0.000 C 
DOCKED: BRANCH  16  17
DOCKED: ATOM     20  C   UNL     1      37.097  12.515 121.849 -0.54 -0.00    +0.000 C 
DOCKED: BRANCH  17  18
DOCKED: ATOM     21  C   UNL     1      36.319  11.220 121.588 -0.42 -0.00    +0.000 C 
DOCKED: BRANCH  18  19
DOCKED: ATOM     22  C   UNL     1      36.605  10.178 122.679 -0.69 -0.00    +0.000 C 
DOCKED: BRANCH  19  20
DOCKED: ATOM     23  C   UNL     1      35.614   9.006 122.639 -0.69 -0.00    +0.000 C 
DOCKED: BRANCH  20  22
DOCKED: ATOM     24  O   UNL     1      37.442   7.703 123.457 -2.59 -0.00    +0.000 OA
DOCKED: ATOM     25  C   UNL     1      36.279   7.702 122.971 -0.79 -0.00    +0.000 C 
DOCKED: ATOM     26  N   UNL     1      35.590   6.466 122.769 -0.69 -0.00    +0.000 N 
DOCKED: ATOM     27  O   UNL     1      36.183   5.292 123.085 -1.16 -0.00    +0.000 OA
DOCKED: ATOM     28  H   UNL     1      34.677   6.469 122.400 -0.02 -0.00    +0.000 HD
DOCKED: ENDBRANCH  20  22
DOCKED: ENDBRANCH  19  20
DOCKED: ENDBRANCH  18  19
DOCKED: ENDBRANCH  17  18
DOCKED: ENDBRANCH  16  17
DOCKED: ENDBRANCH   1  16
DOCKED: TORSDOF 6DOCKED: TER
DOCKED: ENDMDL
________________________________________________________________________________


	BEGINNING GENETIC ALGORITHM DOCKING 81 of 100
Run: 81 Seed: 289214933 778962124 [ Run 81 of 100 GA/GALS ]
Beginning LAMARCKIAN GENETIC ALGORITHM (LGA), with a maximum of 2500000 energy evaluations.

Final-Value: -14.204


	FINAL GENETIC ALGORITHM DOCKED STATE
	_______________________________________________


Detailed state:  trans 36.087 16.584 123.037 quatxyzw -0.671904 0.382014 0.611814 0.168208 center -0.023 0.069 -0.054 ntor 6 -120.3639 -158.9615 -39.1801 63.0030 39.6817 -164.0370
State:	 36.087  16.584 123.037  -0.682  0.388  0.621 160.633   -120.36 -158.96  -39.18   63.00   39.68 -164.04

DOCKED: MODEL       81
DOCKED: USER    Run = 81
DOCKED: USER    DPF = ligand_dock.biased.dpf
DOCKED: USER  
DOCKED: USER    Estimated Free Energy of Binding    =  -11.79 kcal/mol  [=(1)+(2)+(3)-(4)]
DOCKED: USER    Estimated Inhibition Constant, Ki   =    2.29 nM (nanomolar)  [Temperature = 298.15 K]
DOCKED: USER    
DOCKED: USER    (1) Final Intermolecular Energy     =  -13.58 kcal/mol
DOCKED: USER        vdW + Hbond + desolv Energy     =  -13.58 kcal/mol
DOCKED: USER        Electrostatic Energy            =   +0.00 kcal/mol
DOCKED: USER    (2) Final Total Internal Energy     =   -0.63 kcal/mol
DOCKED: USER    (3) Torsional Free Energy           =   +1.79 kcal/mol
DOCKED: USER    (4) Unbound System's Energy  [=(2)] =   -0.63 kcal/mol
DOCKED: USER    
DOCKED: USER    
DOCKED: USER    NEWDPF move ligand.dum.pdbqt
DOCKED: USER    NEWDPF about -0.023000 0.069000 -0.054000
DOCKED: USER    NEWDPF tran0 36.087225 16.583900 123.036705
DOCKED: USER    NEWDPF quaternion0 -0.671904 0.382014 0.611814 0.168208
DOCKED: USER    NEWDPF axisangle0 -0.681616 0.387536 0.620657 160.632751
DOCKED: USER    NEWDPF quat0 -0.681616 0.387536 0.620657 160.632751
DOCKED: USER    NEWDPF dihe0 -120.36 -158.96 -39.18 63.00 39.68 -164.04 
DOCKED: USER  keepresnum = 1 
DOCKED: USER  
DOCKED: REMARK  Name = 
DOCKED: REMARK  6 active torsions:
DOCKED: REMARK  status: ('A' for Active; 'I' for Inactive)
DOCKED: REMARK    1  A    between atoms: C_2  and  C_5
DOCKED: REMARK    2  A    between atoms: C_5  and  C_6
DOCKED: REMARK    3  A    between atoms: C_6  and  C_7
DOCKED: REMARK    4  A    between atoms: C_7  and  C_8
DOCKED: REMARK    5  A    between atoms: C_8  and  C_9
DOCKED: REMARK    6  A    between atoms: C_9  and  N_10
DOCKED: REMARK                            x       y       z     vdW  Elec       q    Type
DOCKED: REMARK                         _______ _______ _______ _____ _____    ______ ____
DOCKED: USER                              x       y       z     vdW  Elec       q    Type
DOCKED: USER                           _______ _______ _______ _____ _____    ______ ____
DOCKED: ROOT
DOCKED: ATOM      1  N   UNL     1      35.973  16.533 123.948 -0.34 -0.00    +0.000 N 
DOCKED: ATOM      2  C   UNL     1      37.133  17.377 124.077 -0.23 -0.00    +0.000 C 
DOCKED: ATOM      3  C   UNL     1      37.063  18.614 124.889 -0.17 -0.00    +0.000 A 
DOCKED: ATOM      4  C   UNL     1      38.196  19.430 125.048 -0.12 -0.00    +0.000 A 
DOCKED: ATOM      5  C   UNL     1      38.131  20.595 125.812 -0.06 -0.00    +0.000 A 
DOCKED: ATOM      6  C   UNL     1      36.936  20.966 126.429 -0.06 -0.00    +0.000 A 
DOCKED: ATOM      7  C   UNL     1      35.791  20.170 126.285 -0.11 -0.00    +0.000 A 
DOCKED: ATOM      8  C   UNL     1      34.589  20.544 126.902 -0.11 -0.00    +0.000 A 
DOCKED: ATOM      9  C   UNL     1      33.449  19.755 126.757 -0.19 -0.00    +0.000 A 
DOCKED: ATOM     10  C   UNL     1      33.495  18.585 125.996 -0.30 -0.00    +0.000 A 
DOCKED: ATOM     11  C   UNL     1      34.688  18.187 125.367 -0.30 -0.00    +0.000 A 
DOCKED: ATOM     12  C   UNL     1      35.848  18.983 125.510 -0.18 -0.00    +0.000 A 
DOCKED: ATOM     13  O   UNL     1      38.209  17.065 123.497 -0.26 -0.00    +0.000 OA
DOCKED: ATOM     14  C   UNL     1      34.736  16.946 124.561 -0.45 -0.00    +0.000 C 
DOCKED: ATOM     15  O   UNL     1      33.692  16.254 124.408 -0.52 -0.00    +0.000 OA
DOCKED: ATOM     16  CM  UNL     1      35.909  17.740 124.704 -0.22 -0.00    +0.000 AC
DOCKED: ATOM     17  CM  UNL     1      36.994  19.793 125.662 +0.00 -0.00    +0.000 AC
DOCKED: ATOM     18  CM  UNL     1      34.643  19.371 126.137 -0.03 -0.00    +0.000 AC
DOCKED: ENDROOT
DOCKED: BRANCH   1  16
DOCKED: ATOM     19  C   UNL     1      36.021  15.323 123.115 -0.43 -0.00    +0.000 C 
DOCKED: BRANCH  16  17
DOCKED: ATOM     20  C   UNL     1      36.014  14.072 123.999 -0.51 -0.00    +0.000 C 
DOCKED: BRANCH  17  18
DOCKED: ATOM     21  C   UNL     1      36.962  13.001 123.449 -0.61 -0.00    +0.000 C 
DOCKED: BRANCH  18  19
DOCKED: ATOM     22  C   UNL     1      36.189  11.739 123.040 -0.68 -0.00    +0.000 C 
DOCKED: BRANCH  19  20
DOCKED: ATOM     23  C   UNL     1      36.781  11.072 121.791 -0.57 -0.00    +0.000 C 
DOCKED: BRANCH  20  22
DOCKED: ATOM     24  O   UNL     1      37.044   8.844 120.967 -2.70 -0.00    +0.000 OA
DOCKED: ATOM     25  C   UNL     1      36.950   9.592 121.977 -0.63 -0.00    +0.000 C 
DOCKED: ATOM     26  N   UNL     1      37.037   9.033 123.290 -0.62 -0.00    +0.000 N 
DOCKED: ATOM     27  O   UNL     1      37.207   7.701 123.457 -2.65 -0.00    +0.000 OA
DOCKED: ATOM     28  H   UNL     1      36.975   9.621 124.077 -0.53 -0.00    +0.000 HD
DOCKED: ENDBRANCH  20  22
DOCKED: ENDBRANCH  19  20
DOCKED: ENDBRANCH  18  19
DOCKED: ENDBRANCH  17  18
DOCKED: ENDBRANCH  16  17
DOCKED: ENDBRANCH   1  16
DOCKED: TORSDOF 6DOCKED: TER
DOCKED: ENDMDL
________________________________________________________________________________


	BEGINNING GENETIC ALGORITHM DOCKING 82 of 100
Run: 82 Seed: 1074941589 101885458 [ Run 82 of 100 GA/GALS ]
Beginning LAMARCKIAN GENETIC ALGORITHM (LGA), with a maximum of 2500000 energy evaluations.

Final-Value: -14.547


	FINAL GENETIC ALGORITHM DOCKED STATE
	_______________________________________________


Detailed state:  trans 35.171 15.502 122.771 quatxyzw -0.490224 0.304731 0.691430 0.434447 center -0.023 0.069 -0.054 ntor 6 25.7853 -14.5267 99.7525 140.3681 44.2356 -177.3032
State:	 35.171  15.502 122.771  -0.544  0.338  0.768 128.500     25.79  -14.53   99.75  140.37   44.24 -177.30

DOCKED: MODEL       82
DOCKED: USER    Run = 82
DOCKED: USER    DPF = ligand_dock.biased.dpf
DOCKED: USER  
DOCKED: USER    Estimated Free Energy of Binding    =  -11.95 kcal/mol  [=(1)+(2)+(3)-(4)]
DOCKED: USER    Estimated Inhibition Constant, Ki   =    1.75 nM (nanomolar)  [Temperature = 298.15 K]
DOCKED: USER    
DOCKED: USER    (1) Final Intermolecular Energy     =  -13.74 kcal/mol
DOCKED: USER        vdW + Hbond + desolv Energy     =  -13.74 kcal/mol
DOCKED: USER        Electrostatic Energy            =   +0.00 kcal/mol
DOCKED: USER    (2) Final Total Internal Energy     =   -0.81 kcal/mol
DOCKED: USER    (3) Torsional Free Energy           =   +1.79 kcal/mol
DOCKED: USER    (4) Unbound System's Energy  [=(2)] =   -0.81 kcal/mol
DOCKED: USER    
DOCKED: USER    
DOCKED: USER    NEWDPF move ligand.dum.pdbqt
DOCKED: USER    NEWDPF about -0.023000 0.069000 -0.054000
DOCKED: USER    NEWDPF tran0 35.171164 15.501848 122.771445
DOCKED: USER    NEWDPF quaternion0 -0.490224 0.304731 0.691430 0.434447
DOCKED: USER    NEWDPF axisangle0 -0.544272 0.338328 0.767660 128.499730
DOCKED: USER    NEWDPF quat0 -0.544272 0.338328 0.767660 128.499730
DOCKED: USER    NEWDPF dihe0 25.79 -14.53 99.75 140.37 44.24 -177.30 
DOCKED: USER  keepresnum = 1 
DOCKED: USER  
DOCKED: REMARK  Name = 
DOCKED: REMARK  6 active torsions:
DOCKED: REMARK  status: ('A' for Active; 'I' for Inactive)
DOCKED: REMARK    1  A    between atoms: C_2  and  C_5
DOCKED: REMARK    2  A    between atoms: C_5  and  C_6
DOCKED: REMARK    3  A    between atoms: C_6  and  C_7
DOCKED: REMARK    4  A    between atoms: C_7  and  C_8
DOCKED: REMARK    5  A    between atoms: C_8  and  C_9
DOCKED: REMARK    6  A    between atoms: C_9  and  N_10
DOCKED: REMARK                            x       y       z     vdW  Elec       q    Type
DOCKED: REMARK                         _______ _______ _______ _____ _____    ______ ____
DOCKED: USER                              x       y       z     vdW  Elec       q    Type
DOCKED: USER                           _______ _______ _______ _____ _____    ______ ____
DOCKED: ROOT
DOCKED: ATOM      1  N   UNL     1      35.543  15.728 123.582 -0.43 -0.00    +0.000 N 
DOCKED: ATOM      2  C   UNL     1      36.272  16.758 122.888 -0.30 -0.00    +0.000 C 
DOCKED: ATOM      3  C   UNL     1      36.216  18.157 123.369 -0.20 -0.00    +0.000 A 
DOCKED: ATOM      4  C   UNL     1      36.949  19.166 122.719 -0.13 -0.00    +0.000 A 
DOCKED: ATOM      5  C   UNL     1      36.896  20.486 123.171 -0.13 -0.00    +0.000 A 
DOCKED: ATOM      6  C   UNL     1      36.113  20.820 124.276 -0.15 -0.00    +0.000 A 
DOCKED: ATOM      7  C   UNL     1      35.372  19.832 124.940 -0.17 -0.00    +0.000 A 
DOCKED: ATOM      8  C   UNL     1      34.583  20.169 126.049 -0.16 -0.00    +0.000 A 
DOCKED: ATOM      9  C   UNL     1      33.843  19.188 126.709 -0.21 -0.00    +0.000 A 
DOCKED: ATOM     10  C   UNL     1      33.883  17.863 126.272 -0.32 -0.00    +0.000 A 
DOCKED: ATOM     11  C   UNL     1      34.668  17.499 125.163 -0.35 -0.00    +0.000 A 
DOCKED: ATOM     12  C   UNL     1      35.420  18.488 124.489 -0.24 -0.00    +0.000 A 
DOCKED: ATOM     13  O   UNL     1      36.959  16.469 121.869 -0.22 -0.00    +0.000 OA
DOCKED: ATOM     14  C   UNL     1      34.710  16.093 124.699 -0.52 -0.00    +0.000 C 
DOCKED: ATOM     15  O   UNL     1      34.014  15.217 125.283 -0.65 -0.00    +0.000 OA
DOCKED: ATOM     16  CM  UNL     1      35.474  17.083 124.019 -0.14 -0.00    +0.000 AC
DOCKED: ATOM     17  CM  UNL     1      36.161  19.492 123.828 -0.00 -0.00    +0.000 AC
DOCKED: ATOM     18  CM  UNL     1      34.628  18.840 125.604 -0.17 -0.00    +0.000 AC
DOCKED: ENDROOT
DOCKED: BRANCH   1  16
DOCKED: ATOM     19  C   UNL     1      35.563  14.343 123.092 -0.20 -0.00    +0.000 C 
DOCKED: BRANCH  16  17
DOCKED: ATOM     20  C   UNL     1      36.642  13.538 123.823 -0.50 -0.00    +0.000 C 
DOCKED: BRANCH  17  18
DOCKED: ATOM     21  C   UNL     1      37.444  12.672 122.844 -0.57 -0.00    +0.000 C 
DOCKED: BRANCH  18  19
DOCKED: ATOM     22  C   UNL     1      36.527  12.063 121.773 -0.54 -0.00    +0.000 C 
DOCKED: BRANCH  19  20
DOCKED: ATOM     23  C   UNL     1      35.721  10.870 122.306 -0.61 -0.00    +0.000 C 
DOCKED: BRANCH  20  22
DOCKED: ATOM     24  O   UNL     1      37.041   9.223 121.184 -2.73 -0.00    +0.000 OA
DOCKED: ATOM     25  C   UNL     1      36.518   9.598 122.267 -0.69 -0.00    +0.000 C 
DOCKED: ATOM     26  N   UNL     1      36.712   8.830 123.457 -0.59 -0.00    +0.000 N 
DOCKED: ATOM     27  O   UNL     1      37.444   7.692 123.426 -2.56 -0.00    +0.000 OA
DOCKED: ATOM     28  H   UNL     1      36.312   9.131 124.305 -0.27 -0.00    +0.000 HD
DOCKED: ENDBRANCH  20  22
DOCKED: ENDBRANCH  19  20
DOCKED: ENDBRANCH  18  19
DOCKED: ENDBRANCH  17  18
DOCKED: ENDBRANCH  16  17
DOCKED: ENDBRANCH   1  16
DOCKED: TORSDOF 6DOCKED: TER
DOCKED: ENDMDL
________________________________________________________________________________


	BEGINNING GENETIC ALGORITHM DOCKING 83 of 100
Run: 83 Seed: 13695923 114690955 [ Run 83 of 100 GA/GALS ]
Beginning LAMARCKIAN GENETIC ALGORITHM (LGA), with a maximum of 2500000 energy evaluations.

Final-Value: -14.781


	FINAL GENETIC ALGORITHM DOCKED STATE
	_______________________________________________


Detailed state:  trans 35.954 9.916 122.596 quatxyzw -0.142110 0.469902 0.665809 0.561868 center -0.023 0.069 -0.054 ntor 6 2.3072 129.8618 -144.5742 -88.0771 -34.9927 48.4141
State:	 35.954   9.916 122.596  -0.172  0.568  0.805 111.630      2.31  129.86 -144.57  -88.08  -34.99   48.41

DOCKED: MODEL       83
DOCKED: USER    Run = 83
DOCKED: USER    DPF = ligand_dock.biased.dpf
DOCKED: USER  
DOCKED: USER    Estimated Free Energy of Binding    =  -12.43 kcal/mol  [=(1)+(2)+(3)-(4)]
DOCKED: USER    Estimated Inhibition Constant, Ki   =  771.41 pM (picomolar)  [Temperature = 298.15 K]
DOCKED: USER    
DOCKED: USER    (1) Final Intermolecular Energy     =  -14.22 kcal/mol
DOCKED: USER        vdW + Hbond + desolv Energy     =  -14.22 kcal/mol
DOCKED: USER        Electrostatic Energy            =   +0.00 kcal/mol
DOCKED: USER    (2) Final Total Internal Energy     =   -0.56 kcal/mol
DOCKED: USER    (3) Torsional Free Energy           =   +1.79 kcal/mol
DOCKED: USER    (4) Unbound System's Energy  [=(2)] =   -0.56 kcal/mol
DOCKED: USER    
DOCKED: USER    
DOCKED: USER    NEWDPF move ligand.dum.pdbqt
DOCKED: USER    NEWDPF about -0.023000 0.069000 -0.054000
DOCKED: USER    NEWDPF tran0 35.954423 9.915862 122.596426
DOCKED: USER    NEWDPF quaternion0 -0.142110 0.469902 0.665809 0.561868
DOCKED: USER    NEWDPF axisangle0 -0.171791 0.568045 0.804868 111.629827
DOCKED: USER    NEWDPF quat0 -0.171791 0.568045 0.804868 111.629827
DOCKED: USER    NEWDPF dihe0 2.31 129.86 -144.57 -88.08 -34.99 48.41 
DOCKED: USER  keepresnum = 1 
DOCKED: USER  
DOCKED: REMARK  Name = 
DOCKED: REMARK  6 active torsions:
DOCKED: REMARK  status: ('A' for Active; 'I' for Inactive)
DOCKED: REMARK    1  A    between atoms: C_2  and  C_5
DOCKED: REMARK    2  A    between atoms: C_5  and  C_6
DOCKED: REMARK    3  A    between atoms: C_6  and  C_7
DOCKED: REMARK    4  A    between atoms: C_7  and  C_8
DOCKED: REMARK    5  A    between atoms: C_8  and  C_9
DOCKED: REMARK    6  A    between atoms: C_9  and  N_10
DOCKED: REMARK                            x       y       z     vdW  Elec       q    Type
DOCKED: REMARK                         _______ _______ _______ _____ _____    ______ ____
DOCKED: USER                              x       y       z     vdW  Elec       q    Type
DOCKED: USER                           _______ _______ _______ _____ _____    ______ ____
DOCKED: ROOT
DOCKED: ATOM      1  N   UNL     1      36.637  10.450 122.904 -0.62 -0.00    +0.000 N 
DOCKED: ATOM      2  C   UNL     1      37.041  10.615 121.532 -0.45 -0.00    +0.000 C 
DOCKED: ATOM      3  C   UNL     1      37.233  11.974 120.974 -0.46 -0.00    +0.000 A 
DOCKED: ATOM      4  C   UNL     1      37.658  12.148 119.645 -0.31 -0.00    +0.000 A 
DOCKED: ATOM      5  C   UNL     1      37.838  13.428 119.119 -0.26 -0.00    +0.000 A 
DOCKED: ATOM      6  C   UNL     1      37.597  14.553 119.907 -0.27 -0.00    +0.000 A 
DOCKED: ATOM      7  C   UNL     1      37.171  14.406 121.236 -0.28 -0.00    +0.000 A 
DOCKED: ATOM      8  C   UNL     1      36.927  15.537 122.027 -0.26 -0.00    +0.000 A 
DOCKED: ATOM      9  C   UNL     1      36.501  15.392 123.347 -0.37 -0.00    +0.000 A 
DOCKED: ATOM     10  C   UNL     1      36.316  14.120 123.891 -0.43 -0.00    +0.000 A 
DOCKED: ATOM     11  C   UNL     1      36.555  12.970 123.118 -0.55 -0.00    +0.000 A 
DOCKED: ATOM     12  C   UNL     1      36.986  13.109 121.780 -0.42 -0.00    +0.000 A 
DOCKED: ATOM     13  O   UNL     1      37.231   9.603 120.802 -2.26 -0.00    +0.000 OA
DOCKED: ATOM     14  C   UNL     1      36.358  11.621 123.696 -0.70 -0.00    +0.000 C 
DOCKED: ATOM     15  O   UNL     1      35.942  11.498 124.882 -0.35 -0.00    +0.000 OA
DOCKED: ATOM     16  CM  UNL     1      36.797  11.754 122.349 +0.00 -0.00    +0.000 AC
DOCKED: ATOM     17  CM  UNL     1      37.414  13.270 120.443 +0.00 -0.00    +0.000 AC
DOCKED: ATOM     18  CM  UNL     1      36.743  14.256 122.567 +0.00 -0.00    +0.000 AC
DOCKED: ENDROOT
DOCKED: BRANCH   1  16
DOCKED: ATOM     19  C   UNL     1      36.409   9.108 123.457 -0.28 -0.00    +0.000 C 
DOCKED: BRANCH  16  17
DOCKED: ATOM     20  C   UNL     1      35.719   8.218 122.418 -0.73 -0.00    +0.000 C 
DOCKED: BRANCH  17  18
DOCKED: ATOM     21  C   UNL     1      36.204   6.768 122.523 -0.63 -0.00    +0.000 C 
DOCKED: BRANCH  18  19
DOCKED: ATOM     22  C   UNL     1      35.297   5.951 123.456 -0.70 -0.00    +0.000 C 
DOCKED: BRANCH  19  20
DOCKED: ATOM     23  C   UNL     1      33.816   6.320 123.298 -0.76 -0.00    +0.000 C 
DOCKED: BRANCH  20  22
DOCKED: ATOM     24  O   UNL     1      33.600   6.855 120.978 -0.66 -0.00    +0.000 OA
DOCKED: ATOM     25  C   UNL     1      33.320   6.050 121.907 -0.62 -0.00    +0.000 C 
DOCKED: ATOM     26  N   UNL     1      32.563   4.871 121.625 -0.67 -0.00    +0.000 N 
DOCKED: ATOM     27  O   UNL     1      32.131   4.619 120.367 -1.06 -0.00    +0.000 OA
DOCKED: ATOM     28  H   UNL     1      32.355   4.237 122.349 -0.13 -0.00    +0.000 HD
DOCKED: ENDBRANCH  20  22
DOCKED: ENDBRANCH  19  20
DOCKED: ENDBRANCH  18  19
DOCKED: ENDBRANCH  17  18
DOCKED: ENDBRANCH  16  17
DOCKED: ENDBRANCH   1  16
DOCKED: TORSDOF 6DOCKED: TER
DOCKED: ENDMDL
________________________________________________________________________________


	BEGINNING GENETIC ALGORITHM DOCKING 84 of 100
Run: 84 Seed: 1774251468 835957033 [ Run 84 of 100 GA/GALS ]
Beginning LAMARCKIAN GENETIC ALGORITHM (LGA), with a maximum of 2500000 energy evaluations.

Final-Value: -13.478


	FINAL GENETIC ALGORITHM DOCKED STATE
	_______________________________________________


Detailed state:  trans 37.889 14.895 120.178 quatxyzw 0.285357 -0.761946 0.364743 -0.452738 center -0.023 0.069 -0.054 ntor 6 78.7258 -79.6460 113.7394 50.8262 172.3037 1.2925
State:	 37.889  14.895 120.178   0.320 -0.855  0.409 -126.161     78.73  -79.65  113.74   50.83  172.30    1.29

DOCKED: MODEL       84
DOCKED: USER    Run = 84
DOCKED: USER    DPF = ligand_dock.biased.dpf
DOCKED: USER  
DOCKED: USER    Estimated Free Energy of Binding    =  -10.80 kcal/mol  [=(1)+(2)+(3)-(4)]
DOCKED: USER    Estimated Inhibition Constant, Ki   =   12.02 nM (nanomolar)  [Temperature = 298.15 K]
DOCKED: USER    
DOCKED: USER    (1) Final Intermolecular Energy     =  -12.59 kcal/mol
DOCKED: USER        vdW + Hbond + desolv Energy     =  -12.59 kcal/mol
DOCKED: USER        Electrostatic Energy            =   +0.00 kcal/mol
DOCKED: USER    (2) Final Total Internal Energy     =   -0.88 kcal/mol
DOCKED: USER    (3) Torsional Free Energy           =   +1.79 kcal/mol
DOCKED: USER    (4) Unbound System's Energy  [=(2)] =   -0.88 kcal/mol
DOCKED: USER    
DOCKED: USER    
DOCKED: USER    NEWDPF move ligand.dum.pdbqt
DOCKED: USER    NEWDPF about -0.023000 0.069000 -0.054000
DOCKED: USER    NEWDPF tran0 37.888857 14.895027 120.178408
DOCKED: USER    NEWDPF quaternion0 0.285357 -0.761946 0.364743 -0.452738
DOCKED: USER    NEWDPF axisangle0 0.320035 -0.854541 0.409069 -126.160979
DOCKED: USER    NEWDPF quat0 0.320035 -0.854541 0.409069 -126.160979
DOCKED: USER    NEWDPF dihe0 78.73 -79.65 113.74 50.83 172.30 1.29 
DOCKED: USER  keepresnum = 1 
DOCKED: USER  
DOCKED: REMARK  Name = 
DOCKED: REMARK  6 active torsions:
DOCKED: REMARK  status: ('A' for Active; 'I' for Inactive)
DOCKED: REMARK    1  A    between atoms: C_2  and  C_5
DOCKED: REMARK    2  A    between atoms: C_5  and  C_6
DOCKED: REMARK    3  A    between atoms: C_6  and  C_7
DOCKED: REMARK    4  A    between atoms: C_7  and  C_8
DOCKED: REMARK    5  A    between atoms: C_8  and  C_9
DOCKED: REMARK    6  A    between atoms: C_9  and  N_10
DOCKED: REMARK                            x       y       z     vdW  Elec       q    Type
DOCKED: REMARK                         _______ _______ _______ _____ _____    ______ ____
DOCKED: USER                              x       y       z     vdW  Elec       q    Type
DOCKED: USER                           _______ _______ _______ _____ _____    ______ ____
DOCKED: ROOT
DOCKED: ATOM      1  N   UNL     1      37.645  15.423 119.466 -0.19 -0.00    +0.000 N 
DOCKED: ATOM      2  C   UNL     1      39.032  15.786 119.341 -0.17 -0.00    +0.000 C 
DOCKED: ATOM      3  C   UNL     1      39.721  15.643 118.037 -0.10 -0.00    +0.000 A 
DOCKED: ATOM      4  C   UNL     1      41.067  16.023 117.894 -0.15 -0.00    +0.000 A 
DOCKED: ATOM      5  C   UNL     1      41.717  15.888 116.667 -0.25 -0.00    +0.000 A 
DOCKED: ATOM      6  C   UNL     1      41.037  15.372 115.564 -0.26 -0.00    +0.000 A 
DOCKED: ATOM      7  C   UNL     1      39.694  14.984 115.681 -0.30 -0.00    +0.000 A 
DOCKED: ATOM      8  C   UNL     1      39.012  14.463 114.573 -0.20 -0.00    +0.000 A 
DOCKED: ATOM      9  C   UNL     1      37.678  14.073 114.689 -0.32 -0.00    +0.000 A 
DOCKED: ATOM     10  C   UNL     1      37.011  14.202 115.909 -0.29 -0.00    +0.000 A 
DOCKED: ATOM     11  C   UNL     1      37.673  14.723 117.035 -0.23 -0.00    +0.000 A 
DOCKED: ATOM     12  C   UNL     1      39.025  15.118 116.925 -0.18 -0.00    +0.000 A 
DOCKED: ATOM     13  O   UNL     1      39.664  16.225 120.341 -0.17 -0.00    +0.000 OA
DOCKED: ATOM     14  C   UNL     1      36.965  14.858 118.328 -0.27 -0.00    +0.000 C 
DOCKED: ATOM     15  O   UNL     1      35.767  14.475 118.433 -0.28 -0.00    +0.000 OA
DOCKED: ATOM     16  CM  UNL     1      38.325  15.263 118.223 +0.00 -0.00    +0.000 AC
DOCKED: ATOM     17  CM  UNL     1      40.377  15.505 116.794 +0.00 -0.00    +0.000 AC
DOCKED: ATOM     18  CM  UNL     1      38.349  14.594 115.801 +0.00 -0.00    +0.000 AC
DOCKED: ENDROOT
DOCKED: BRANCH   1  16
DOCKED: ATOM     19  C   UNL     1      36.962  15.527 120.763 -0.21 -0.00    +0.000 C 
DOCKED: BRANCH  16  17
DOCKED: ATOM     20  C   UNL     1      37.177  14.248 121.578 -0.36 -0.00    +0.000 C 
DOCKED: BRANCH  17  18
DOCKED: ATOM     21  C   UNL     1      37.869  13.168 120.739 -0.46 -0.00    +0.000 C 
DOCKED: BRANCH  18  19
DOCKED: ATOM     22  C   UNL     1      37.100  11.840 120.810 -0.51 -0.00    +0.000 C 
DOCKED: BRANCH  19  20
DOCKED: ATOM     23  C   UNL     1      37.060  11.265 122.232 -0.57 -0.00    +0.000 C 
DOCKED: BRANCH  20  22
DOCKED: ATOM     24  O   UNL     1      37.024   9.146 121.128 -2.72 -0.00    +0.000 OA
DOCKED: ATOM     25  C   UNL     1      37.038   9.764 122.226 -0.59 -0.00    +0.000 C 
DOCKED: ATOM     26  N   UNL     1      37.066   9.035 123.455 -0.58 -0.00    +0.000 N 
DOCKED: ATOM     27  O   UNL     1      37.063   7.682 123.449 -2.67 -0.00    +0.000 OA
DOCKED: ATOM     28  H   UNL     1      37.088   9.520 124.312 -0.55 -0.00    +0.000 HD
DOCKED: ENDBRANCH  20  22
DOCKED: ENDBRANCH  19  20
DOCKED: ENDBRANCH  18  19
DOCKED: ENDBRANCH  17  18
DOCKED: ENDBRANCH  16  17
DOCKED: ENDBRANCH   1  16
DOCKED: TORSDOF 6DOCKED: TER
DOCKED: ENDMDL
________________________________________________________________________________


	BEGINNING GENETIC ALGORITHM DOCKING 85 of 100
Run: 85 Seed: 1186900242 2007883339 [ Run 85 of 100 GA/GALS ]
Beginning LAMARCKIAN GENETIC ALGORITHM (LGA), with a maximum of 2500000 energy evaluations.

Final-Value: -15.466


	FINAL GENETIC ALGORITHM DOCKED STATE
	_______________________________________________


Detailed state:  trans 37.644 15.143 121.748 quatxyzw -0.314854 0.676342 0.665903 -0.001020 center -0.023 0.069 -0.054 ntor 6 -91.8675 -33.8725 69.3048 -150.7752 65.6780 -153.3086
State:	 37.644  15.143 121.748  -0.315  0.676  0.666 -179.883    -91.87  -33.87   69.30 -150.78   65.68 -153.31

DOCKED: MODEL       85
DOCKED: USER    Run = 85
DOCKED: USER    DPF = ligand_dock.biased.dpf
DOCKED: USER  
DOCKED: USER    Estimated Free Energy of Binding    =  -12.67 kcal/mol  [=(1)+(2)+(3)-(4)]
DOCKED: USER    Estimated Inhibition Constant, Ki   =  514.20 pM (picomolar)  [Temperature = 298.15 K]
DOCKED: USER    
DOCKED: USER    (1) Final Intermolecular Energy     =  -14.46 kcal/mol
DOCKED: USER        vdW + Hbond + desolv Energy     =  -14.46 kcal/mol
DOCKED: USER        Electrostatic Energy            =   +0.00 kcal/mol
DOCKED: USER    (2) Final Total Internal Energy     =   -1.00 kcal/mol
DOCKED: USER    (3) Torsional Free Energy           =   +1.79 kcal/mol
DOCKED: USER    (4) Unbound System's Energy  [=(2)] =   -1.00 kcal/mol
DOCKED: USER    
DOCKED: USER    
DOCKED: USER    NEWDPF move ligand.dum.pdbqt
DOCKED: USER    NEWDPF about -0.023000 0.069000 -0.054000
DOCKED: USER    NEWDPF tran0 37.643834 15.142759 121.748183
DOCKED: USER    NEWDPF quaternion0 -0.314854 0.676342 0.665903 -0.001020
DOCKED: USER    NEWDPF axisangle0 -0.314854 0.676342 0.665904 -179.883164
DOCKED: USER    NEWDPF quat0 -0.314854 0.676342 0.665904 -179.883164
DOCKED: USER    NEWDPF dihe0 -91.87 -33.87 69.30 -150.78 65.68 -153.31 
DOCKED: USER  keepresnum = 1 
DOCKED: USER  
DOCKED: REMARK  Name = 
DOCKED: REMARK  6 active torsions:
DOCKED: REMARK  status: ('A' for Active; 'I' for Inactive)
DOCKED: REMARK    1  A    between atoms: C_2  and  C_5
DOCKED: REMARK    2  A    between atoms: C_5  and  C_6
DOCKED: REMARK    3  A    between atoms: C_6  and  C_7
DOCKED: REMARK    4  A    between atoms: C_7  and  C_8
DOCKED: REMARK    5  A    between atoms: C_8  and  C_9
DOCKED: REMARK    6  A    between atoms: C_9  and  N_10
DOCKED: REMARK                            x       y       z     vdW  Elec       q    Type
DOCKED: REMARK                         _______ _______ _______ _____ _____    ______ ____
DOCKED: USER                              x       y       z     vdW  Elec       q    Type
DOCKED: USER                           _______ _______ _______ _____ _____    ______ ____
DOCKED: ROOT
DOCKED: ATOM      1  N   UNL     1      37.852  15.261 122.636 -0.33 -0.00    +0.000 N 
DOCKED: ATOM      2  C   UNL     1      39.183  14.813 122.318 -0.43 -0.00    +0.000 C 
DOCKED: ATOM      3  C   UNL     1      40.354  15.634 122.705 -0.35 -0.00    +0.000 A 
DOCKED: ATOM      4  C   UNL     1      41.660  15.193 122.428 -0.48 -0.00    +0.000 A 
DOCKED: ATOM      5  C   UNL     1      42.763  15.967 122.793 -0.39 -0.00    +0.000 A 
DOCKED: ATOM      6  C   UNL     1      42.582  17.190 123.437 -0.30 -0.00    +0.000 A 
DOCKED: ATOM      7  C   UNL     1      41.290  17.653 123.724 -0.29 -0.00    +0.000 A 
DOCKED: ATOM      8  C   UNL     1      41.109  18.883 124.370 -0.21 -0.00    +0.000 A 
DOCKED: ATOM      9  C   UNL     1      39.824  19.346 124.652 -0.13 -0.00    +0.000 A 
DOCKED: ATOM     10  C   UNL     1      38.708  18.586 124.296 -0.16 -0.00    +0.000 A 
DOCKED: ATOM     11  C   UNL     1      38.863  17.348 123.649 -0.21 -0.00    +0.000 A 
DOCKED: ATOM     12  C   UNL     1      40.162  16.873 123.358 -0.22 -0.00    +0.000 A 
DOCKED: ATOM     13  O   UNL     1      39.354  13.722 121.707 -0.70 -0.00    +0.000 OA
DOCKED: ATOM     14  C   UNL     1      37.679  16.543 123.270 -0.28 -0.00    +0.000 C 
DOCKED: ATOM     15  O   UNL     1      36.519  16.982 123.502 -0.29 -0.00    +0.000 OA
DOCKED: ATOM     16  CM  UNL     1      38.985  16.057 122.980 +0.00 -0.00    +0.000 AC
DOCKED: ATOM     17  CM  UNL     1      41.469  16.418 123.074 +0.00 -0.00    +0.000 AC
DOCKED: ATOM     18  CM  UNL     1      39.993  18.115 124.009 +0.00 -0.00    +0.000 AC
DOCKED: ENDROOT
DOCKED: BRANCH   1  16
DOCKED: ATOM     19  C   UNL     1      36.683  14.472 122.224 -0.34 -0.00    +0.000 C 
DOCKED: BRANCH  16  17
DOCKED: ATOM     20  C   UNL     1      35.884  14.028 123.454 -0.54 -0.00    +0.000 C 
DOCKED: BRANCH  17  18
DOCKED: ATOM     21  C   UNL     1      35.919  12.505 123.615 -0.62 -0.00    +0.000 C 
DOCKED: BRANCH  18  19
DOCKED: ATOM     22  C   UNL     1      37.222  11.922 123.048 -0.58 -0.00    +0.000 C 
DOCKED: BRANCH  19  20
DOCKED: ATOM     23  C   UNL     1      36.997  11.166 121.731 -0.54 -0.00    +0.000 C 
DOCKED: BRANCH  20  22
DOCKED: ATOM     24  O   UNL     1      36.975   8.912 120.935 -2.69 -0.00    +0.000 OA
DOCKED: ATOM     25  C   UNL     1      36.998   9.678 121.936 -0.60 -0.00    +0.000 C 
DOCKED: ATOM     26  N   UNL     1      37.059   9.129 123.254 -0.62 -0.00    +0.000 N 
DOCKED: ATOM     27  O   UNL     1      37.077   7.789 123.438 -2.66 -0.00    +0.000 OA
DOCKED: ATOM     28  H   UNL     1      37.089   9.730 124.034 -0.52 -0.00    +0.000 HD
DOCKED: ENDBRANCH  20  22
DOCKED: ENDBRANCH  19  20
DOCKED: ENDBRANCH  18  19
DOCKED: ENDBRANCH  17  18
DOCKED: ENDBRANCH  16  17
DOCKED: ENDBRANCH   1  16
DOCKED: TORSDOF 6DOCKED: TER
DOCKED: ENDMDL
________________________________________________________________________________


	BEGINNING GENETIC ALGORITHM DOCKING 86 of 100
Run: 86 Seed: 1154058851 1614035418 [ Run 86 of 100 GA/GALS ]
Beginning LAMARCKIAN GENETIC ALGORITHM (LGA), with a maximum of 2500000 energy evaluations.

Final-Value: -12.952


	FINAL GENETIC ALGORITHM DOCKED STATE
	_______________________________________________


Detailed state:  trans 38.225 15.188 122.490 quatxyzw -0.083250 0.376499 -0.630361 -0.673768 center -0.023 0.069 -0.054 ntor 6 113.0052 -37.3454 118.2889 10.3497 -33.9036 10.9415
State:	 38.225  15.188 122.490  -0.113  0.510 -0.853 -95.283    113.01  -37.35  118.29   10.35  -33.90   10.94

DOCKED: MODEL       86
DOCKED: USER    Run = 86
DOCKED: USER    DPF = ligand_dock.biased.dpf
DOCKED: USER  
DOCKED: USER    Estimated Free Energy of Binding    =  -10.46 kcal/mol  [=(1)+(2)+(3)-(4)]
DOCKED: USER    Estimated Inhibition Constant, Ki   =   21.67 nM (nanomolar)  [Temperature = 298.15 K]
DOCKED: USER    
DOCKED: USER    (1) Final Intermolecular Energy     =  -12.25 kcal/mol
DOCKED: USER        vdW + Hbond + desolv Energy     =  -12.25 kcal/mol
DOCKED: USER        Electrostatic Energy            =   +0.00 kcal/mol
DOCKED: USER    (2) Final Total Internal Energy     =   -0.71 kcal/mol
DOCKED: USER    (3) Torsional Free Energy           =   +1.79 kcal/mol
DOCKED: USER    (4) Unbound System's Energy  [=(2)] =   -0.71 kcal/mol
DOCKED: USER    
DOCKED: USER    
DOCKED: USER    NEWDPF move ligand.dum.pdbqt
DOCKED: USER    NEWDPF about -0.023000 0.069000 -0.054000
DOCKED: USER    NEWDPF tran0 38.224914 15.188216 122.489619
DOCKED: USER    NEWDPF quaternion0 -0.083250 0.376499 -0.630361 -0.673768
DOCKED: USER    NEWDPF axisangle0 -0.112661 0.509511 -0.853057 -95.282883
DOCKED: USER    NEWDPF quat0 -0.112661 0.509511 -0.853057 -95.282883
DOCKED: USER    NEWDPF dihe0 113.01 -37.35 118.29 10.35 -33.90 10.94 
DOCKED: USER  keepresnum = 1 
DOCKED: USER  
DOCKED: REMARK  Name = 
DOCKED: REMARK  6 active torsions:
DOCKED: REMARK  status: ('A' for Active; 'I' for Inactive)
DOCKED: REMARK    1  A    between atoms: C_2  and  C_5
DOCKED: REMARK    2  A    between atoms: C_5  and  C_6
DOCKED: REMARK    3  A    between atoms: C_6  and  C_7
DOCKED: REMARK    4  A    between atoms: C_7  and  C_8
DOCKED: REMARK    5  A    between atoms: C_8  and  C_9
DOCKED: REMARK    6  A    between atoms: C_9  and  N_10
DOCKED: REMARK                            x       y       z     vdW  Elec       q    Type
DOCKED: REMARK                         _______ _______ _______ _____ _____    ______ ____
DOCKED: USER                              x       y       z     vdW  Elec       q    Type
DOCKED: USER                           _______ _______ _______ _____ _____    ______ ____
DOCKED: ROOT
DOCKED: ATOM      1  N   UNL     1      38.772  15.891 122.260 -0.25 -0.00    +0.000 N 
DOCKED: ATOM      2  C   UNL     1      37.622  16.747 122.389 -0.22 -0.00    +0.000 C 
DOCKED: ATOM      3  C   UNL     1      37.688  17.952 123.248 -0.15 -0.00    +0.000 A 
DOCKED: ATOM      4  C   UNL     1      36.582  18.813 123.358 -0.16 -0.00    +0.000 A 
DOCKED: ATOM      5  C   UNL     1      36.644  19.948 124.167 -0.14 -0.00    +0.000 A 
DOCKED: ATOM      6  C   UNL     1      37.806  20.243 124.879 -0.08 -0.00    +0.000 A 
DOCKED: ATOM      7  C   UNL     1      38.923  19.399 124.787 -0.11 -0.00    +0.000 A 
DOCKED: ATOM      8  C   UNL     1      40.090  19.694 125.504 -0.13 -0.00    +0.000 A 
DOCKED: ATOM      9  C   UNL     1      41.200  18.854 125.416 -0.23 -0.00    +0.000 A 
DOCKED: ATOM     10  C   UNL     1      41.158  17.714 124.611 -0.29 -0.00    +0.000 A 
DOCKED: ATOM     11  C   UNL     1      39.999  17.397 123.881 -0.21 -0.00    +0.000 A 
DOCKED: ATOM     12  C   UNL     1      38.870  18.243 123.966 -0.17 -0.00    +0.000 A 
DOCKED: ATOM     13  O   UNL     1      36.556  16.471 121.773 -0.24 -0.00    +0.000 OA
DOCKED: ATOM     14  C   UNL     1      39.954  16.187 123.028 -0.26 -0.00    +0.000 C 
DOCKED: ATOM     15  O   UNL     1      40.952  15.416 122.977 -0.66 -0.00    +0.000 OA
DOCKED: ATOM     16  CM  UNL     1      38.816  17.038 123.105 +0.00 -0.00    +0.000 AC
DOCKED: ATOM     17  CM  UNL     1      37.752  19.100 124.067 +0.00 -0.00    +0.000 AC
DOCKED: ATOM     18  CM  UNL     1      40.040  18.550 124.694 +0.00 -0.00    +0.000 AC
DOCKED: ENDROOT
DOCKED: BRANCH   1  16
DOCKED: ATOM     19  C   UNL     1      38.706  14.673 121.439 -0.36 -0.00    +0.000 C 
DOCKED: BRANCH  16  17
DOCKED: ATOM     20  C   UNL     1      37.946  13.573 122.186 -0.47 -0.00    +0.000 C 
DOCKED: BRANCH  17  18
DOCKED: ATOM     21  C   UNL     1      37.145  12.697 121.215 -0.51 -0.00    +0.000 C 
DOCKED: BRANCH  18  19
DOCKED: ATOM     22  C   UNL     1      36.185  11.770 121.975 -0.52 -0.00    +0.000 C 
DOCKED: BRANCH  19  20
DOCKED: ATOM     23  C   UNL     1      36.920  10.852 122.961 -0.64 -0.00    +0.000 C 
DOCKED: BRANCH  20  22
DOCKED: ATOM     24  O   UNL     1      37.065   9.217 121.223 -2.72 -0.00    +0.000 OA
DOCKED: ATOM     25  C   UNL     1      36.985   9.437 122.462 -0.64 -0.00    +0.000 C 
DOCKED: ATOM     26  N   UNL     1      36.989   8.345 123.383 -0.70 -0.00    +0.000 N 
DOCKED: ATOM     27  O   UNL     1      37.065   7.070 122.934 -1.93 -0.00    +0.000 OA
DOCKED: ATOM     28  H   UNL     1      36.938   8.520 124.350 -0.45 -0.00    +0.000 HD
DOCKED: ENDBRANCH  20  22
DOCKED: ENDBRANCH  19  20
DOCKED: ENDBRANCH  18  19
DOCKED: ENDBRANCH  17  18
DOCKED: ENDBRANCH  16  17
DOCKED: ENDBRANCH   1  16
DOCKED: TORSDOF 6DOCKED: TER
DOCKED: ENDMDL
________________________________________________________________________________


	BEGINNING GENETIC ALGORITHM DOCKING 87 of 100
Run: 87 Seed: 1118035165 1177211540 [ Run 87 of 100 GA/GALS ]
Beginning LAMARCKIAN GENETIC ALGORITHM (LGA), with a maximum of 2500000 energy evaluations.

Final-Value: -14.800


	FINAL GENETIC ALGORITHM DOCKED STATE
	_______________________________________________


Detailed state:  trans 36.052 16.118 121.733 quatxyzw -0.651515 0.044987 0.631643 0.417769 center -0.023 0.069 -0.054 ntor 6 -8.0628 166.5152 -40.0004 65.4097 -50.8624 -155.8741
State:	 36.052  16.118 121.733  -0.717  0.050  0.695 130.612     -8.06  166.52  -40.00   65.41  -50.86 -155.87

DOCKED: MODEL       87
DOCKED: USER    Run = 87
DOCKED: USER    DPF = ligand_dock.biased.dpf
DOCKED: USER  
DOCKED: USER    Estimated Free Energy of Binding    =  -12.17 kcal/mol  [=(1)+(2)+(3)-(4)]
DOCKED: USER    Estimated Inhibition Constant, Ki   =    1.20 nM (nanomolar)  [Temperature = 298.15 K]
DOCKED: USER    
DOCKED: USER    (1) Final Intermolecular Energy     =  -13.96 kcal/mol
DOCKED: USER        vdW + Hbond + desolv Energy     =  -13.96 kcal/mol
DOCKED: USER        Electrostatic Energy            =   +0.00 kcal/mol
DOCKED: USER    (2) Final Total Internal Energy     =   -0.84 kcal/mol
DOCKED: USER    (3) Torsional Free Energy           =   +1.79 kcal/mol
DOCKED: USER    (4) Unbound System's Energy  [=(2)] =   -0.84 kcal/mol
DOCKED: USER    
DOCKED: USER    
DOCKED: USER    NEWDPF move ligand.dum.pdbqt
DOCKED: USER    NEWDPF about -0.023000 0.069000 -0.054000
DOCKED: USER    NEWDPF tran0 36.052208 16.118106 121.733331
DOCKED: USER    NEWDPF quaternion0 -0.651515 0.044987 0.631643 0.417769
DOCKED: USER    NEWDPF axisangle0 -0.717091 0.049515 0.695219 130.612307
DOCKED: USER    NEWDPF quat0 -0.717091 0.049515 0.695219 130.612307
DOCKED: USER    NEWDPF dihe0 -8.06 166.52 -40.00 65.41 -50.86 -155.87 
DOCKED: USER  keepresnum = 1 
DOCKED: USER  
DOCKED: REMARK  Name = 
DOCKED: REMARK  6 active torsions:
DOCKED: REMARK  status: ('A' for Active; 'I' for Inactive)
DOCKED: REMARK    1  A    between atoms: C_2  and  C_5
DOCKED: REMARK    2  A    between atoms: C_5  and  C_6
DOCKED: REMARK    3  A    between atoms: C_6  and  C_7
DOCKED: REMARK    4  A    between atoms: C_7  and  C_8
DOCKED: REMARK    5  A    between atoms: C_8  and  C_9
DOCKED: REMARK    6  A    between atoms: C_9  and  N_10
DOCKED: REMARK                            x       y       z     vdW  Elec       q    Type
DOCKED: REMARK                         _______ _______ _______ _____ _____    ______ ____
DOCKED: USER                              x       y       z     vdW  Elec       q    Type
DOCKED: USER                           _______ _______ _______ _____ _____    ______ ____
DOCKED: ROOT
DOCKED: ATOM      1  N   UNL     1      36.333  16.051 122.606 -0.29 -0.00    +0.000 N 
DOCKED: ATOM      2  C   UNL     1      36.598  17.466 122.563 -0.22 -0.00    +0.000 C 
DOCKED: ATOM      3  C   UNL     1      36.029  18.358 123.600 -0.21 -0.00    +0.000 A 
DOCKED: ATOM      4  C   UNL     1      36.306  19.737 123.586 -0.17 -0.00    +0.000 A 
DOCKED: ATOM      5  C   UNL     1      35.769  20.578 124.562 -0.15 -0.00    +0.000 A 
DOCKED: ATOM      6  C   UNL     1      34.950  20.060 125.564 -0.16 -0.00    +0.000 A 
DOCKED: ATOM      7  C   UNL     1      34.658  18.689 125.599 -0.26 -0.00    +0.000 A 
DOCKED: ATOM      8  C   UNL     1      33.832  18.169 126.605 -0.28 -0.00    +0.000 A 
DOCKED: ATOM      9  C   UNL     1      33.539  16.806 126.639 -0.36 -0.00    +0.000 A 
DOCKED: ATOM     10  C   UNL     1      34.066  15.948 125.672 -0.37 -0.00    +0.000 A 
DOCKED: ATOM     11  C   UNL     1      34.898  16.445 124.652 -0.42 -0.00    +0.000 A 
DOCKED: ATOM     12  C   UNL     1      35.199  17.825 124.612 -0.30 -0.00    +0.000 A 
DOCKED: ATOM     13  O   UNL     1      37.314  17.948 121.642 -0.12 -0.00    +0.000 OA
DOCKED: ATOM     14  C   UNL     1      35.457  15.535 123.626 -0.50 -0.00    +0.000 C 
DOCKED: ATOM     15  O   UNL     1      35.162  14.308 123.646 -0.61 -0.00    +0.000 OA
DOCKED: ATOM     16  CM  UNL     1      35.768  16.923 123.583 -0.04 -0.00    +0.000 AC
DOCKED: ATOM     17  CM  UNL     1      35.485  19.208 124.587 -0.08 -0.00    +0.000 AC
DOCKED: ATOM     18  CM  UNL     1      34.365  17.314 125.630 -0.27 -0.00    +0.000 AC
DOCKED: ENDROOT
DOCKED: BRANCH   1  16
DOCKED: ATOM     19  C   UNL     1      36.863  15.162 121.563 -0.24 -0.00    +0.000 C 
DOCKED: BRANCH  16  17
DOCKED: ATOM     20  C   UNL     1      37.847  14.159 122.172 -0.45 -0.00    +0.000 C 
DOCKED: BRANCH  17  18
DOCKED: ATOM     21  C   UNL     1      37.500  12.724 121.758 -0.50 -0.00    +0.000 C 
DOCKED: BRANCH  18  19
DOCKED: ATOM     22  C   UNL     1      37.065  11.892 122.973 -0.65 -0.00    +0.000 C 
DOCKED: BRANCH  19  20
DOCKED: ATOM     23  C   UNL     1      35.939  10.907 122.631 -0.67 -0.00    +0.000 C 
DOCKED: BRANCH  20  22
DOCKED: ATOM     24  O   UNL     1      36.826   9.210 121.201 -2.67 -0.00    +0.000 OA
DOCKED: ATOM     25  C   UNL     1      36.468   9.527 122.367 -0.71 -0.00    +0.000 C 
DOCKED: ATOM     26  N   UNL     1      36.598   8.585 123.434 -0.63 -0.00    +0.000 N 
DOCKED: ATOM     27  O   UNL     1      37.091   7.347 123.199 -2.35 -0.00    +0.000 OA
DOCKED: ATOM     28  H   UNL     1      36.329   8.839 124.347 -0.28 -0.00    +0.000 HD
DOCKED: ENDBRANCH  20  22
DOCKED: ENDBRANCH  19  20
DOCKED: ENDBRANCH  18  19
DOCKED: ENDBRANCH  17  18
DOCKED: ENDBRANCH  16  17
DOCKED: ENDBRANCH   1  16
DOCKED: TORSDOF 6DOCKED: TER
DOCKED: ENDMDL
________________________________________________________________________________


	BEGINNING GENETIC ALGORITHM DOCKING 88 of 100
Run: 88 Seed: 1256511909 1193630659 [ Run 88 of 100 GA/GALS ]
Beginning LAMARCKIAN GENETIC ALGORITHM (LGA), with a maximum of 2500000 energy evaluations.

Final-Value: -14.254


	FINAL GENETIC ALGORITHM DOCKED STATE
	_______________________________________________


Detailed state:  trans 36.737 15.226 122.903 quatxyzw -0.609800 0.355732 0.551036 0.444926 center -0.023 0.069 -0.054 ntor 6 -31.6821 164.0281 -18.1947 -172.7212 34.2635 37.7035
State:	 36.737  15.226 122.903  -0.681  0.397  0.615 127.163    -31.68  164.03  -18.19 -172.72   34.26   37.70

DOCKED: MODEL       88
DOCKED: USER    Run = 88
DOCKED: USER    DPF = ligand_dock.biased.dpf
DOCKED: USER  
DOCKED: USER    Estimated Free Energy of Binding    =  -11.75 kcal/mol  [=(1)+(2)+(3)-(4)]
DOCKED: USER    Estimated Inhibition Constant, Ki   =    2.46 nM (nanomolar)  [Temperature = 298.15 K]
DOCKED: USER    
DOCKED: USER    (1) Final Intermolecular Energy     =  -13.54 kcal/mol
DOCKED: USER        vdW + Hbond + desolv Energy     =  -13.54 kcal/mol
DOCKED: USER        Electrostatic Energy            =   +0.00 kcal/mol
DOCKED: USER    (2) Final Total Internal Energy     =   -0.72 kcal/mol
DOCKED: USER    (3) Torsional Free Energy           =   +1.79 kcal/mol
DOCKED: USER    (4) Unbound System's Energy  [=(2)] =   -0.72 kcal/mol
DOCKED: USER    
DOCKED: USER    
DOCKED: USER    NEWDPF move ligand.dum.pdbqt
DOCKED: USER    NEWDPF about -0.023000 0.069000 -0.054000
DOCKED: USER    NEWDPF tran0 36.737400 15.226300 122.903347
DOCKED: USER    NEWDPF quaternion0 -0.609800 0.355732 0.551036 0.444926
DOCKED: USER    NEWDPF axisangle0 -0.680909 0.397214 0.615292 127.162845
DOCKED: USER    NEWDPF quat0 -0.680909 0.397214 0.615292 127.162845
DOCKED: USER    NEWDPF dihe0 -31.68 164.03 -18.19 -172.72 34.26 37.70 
DOCKED: USER  keepresnum = 1 
DOCKED: USER  
DOCKED: REMARK  Name = 
DOCKED: REMARK  6 active torsions:
DOCKED: REMARK  status: ('A' for Active; 'I' for Inactive)
DOCKED: REMARK    1  A    between atoms: C_2  and  C_5
DOCKED: REMARK    2  A    between atoms: C_5  and  C_6
DOCKED: REMARK    3  A    between atoms: C_6  and  C_7
DOCKED: REMARK    4  A    between atoms: C_7  and  C_8
DOCKED: REMARK    5  A    between atoms: C_8  and  C_9
DOCKED: REMARK    6  A    between atoms: C_9  and  N_10
DOCKED: REMARK                            x       y       z     vdW  Elec       q    Type
DOCKED: REMARK                         _______ _______ _______ _____ _____    ______ ____
DOCKED: USER                              x       y       z     vdW  Elec       q    Type
DOCKED: USER                           _______ _______ _______ _____ _____    ______ ____
DOCKED: ROOT
DOCKED: ATOM      1  N   UNL     1      36.774  15.539 123.767 -0.37 -0.00    +0.000 N 
DOCKED: ATOM      2  C   UNL     1      37.538  16.652 123.265 -0.27 -0.00    +0.000 C 
DOCKED: ATOM      3  C   UNL     1      37.118  18.038 123.575 -0.17 -0.00    +0.000 A 
DOCKED: ATOM      4  C   UNL     1      37.873  19.132 123.116 -0.09 -0.00    +0.000 A 
DOCKED: ATOM      5  C   UNL     1      37.478  20.439 123.407 -0.09 -0.00    +0.000 A 
DOCKED: ATOM      6  C   UNL     1      36.326  20.675 124.157 -0.14 -0.00    +0.000 A 
DOCKED: ATOM      7  C   UNL     1      35.556  19.601 124.625 -0.18 -0.00    +0.000 A 
DOCKED: ATOM      8  C   UNL     1      34.397  19.839 125.377 -0.13 -0.00    +0.000 A 
DOCKED: ATOM      9  C   UNL     1      33.629  18.771 125.840 -0.28 -0.00    +0.000 A 
DOCKED: ATOM     10  C   UNL     1      34.008  17.457 125.560 -0.37 -0.00    +0.000 A 
DOCKED: ATOM     11  C   UNL     1      35.167  17.192 124.808 -0.33 -0.00    +0.000 A 
DOCKED: ATOM     12  C   UNL     1      35.950  18.269 124.335 -0.22 -0.00    +0.000 A 
DOCKED: ATOM     13  O   UNL     1      38.564  16.447 122.559 -0.24 -0.00    +0.000 OA
DOCKED: ATOM     14  C   UNL     1      35.568  15.798 124.511 -0.37 -0.00    +0.000 C 
DOCKED: ATOM     15  O   UNL     1      34.851  14.838 124.908 -0.57 -0.00    +0.000 OA
DOCKED: ATOM     16  CM  UNL     1      36.364  16.878 124.036 -0.03 -0.00    +0.000 AC
DOCKED: ATOM     17  CM  UNL     1      36.717  19.359 123.869 +0.00 -0.00    +0.000 AC
DOCKED: ATOM     18  CM  UNL     1      34.784  18.522 125.091 -0.32 -0.00    +0.000 AC
DOCKED: ENDROOT
DOCKED: BRANCH   1  16
DOCKED: ATOM     19  C   UNL     1      37.161  14.160 123.436 -0.49 -0.00    +0.000 C 
DOCKED: BRANCH  16  17
DOCKED: ATOM     20  C   UNL     1      37.376  14.019 121.926 -0.43 -0.00    +0.000 C 
DOCKED: BRANCH  17  18
DOCKED: ATOM     21  C   UNL     1      36.950  12.631 121.435 -0.51 -0.00    +0.000 C 
DOCKED: BRANCH  18  19
DOCKED: ATOM     22  C   UNL     1      36.257  11.841 122.554 -0.63 -0.00    +0.000 C 
DOCKED: BRANCH  19  20
DOCKED: ATOM     23  C   UNL     1      35.497  10.619 122.020 -0.43 -0.00    +0.000 C 
DOCKED: BRANCH  20  22
DOCKED: ATOM     24  O   UNL     1      36.726   8.813 121.048 -2.59 -0.00    +0.000 OA
DOCKED: ATOM     25  C   UNL     1      36.324   9.368 122.106 -0.68 -0.00    +0.000 C 
DOCKED: ATOM     26  N   UNL     1      36.683   8.825 123.379 -0.61 -0.00    +0.000 N 
DOCKED: ATOM     27  O   UNL     1      37.442   7.707 123.456 -2.60 -0.00    +0.000 OA
DOCKED: ATOM     28  H   UNL     1      36.377   9.267 124.203 -0.37 -0.00    +0.000 HD
DOCKED: ENDBRANCH  20  22
DOCKED: ENDBRANCH  19  20
DOCKED: ENDBRANCH  18  19
DOCKED: ENDBRANCH  17  18
DOCKED: ENDBRANCH  16  17
DOCKED: ENDBRANCH   1  16
DOCKED: TORSDOF 6DOCKED: TER
DOCKED: ENDMDL
________________________________________________________________________________


	BEGINNING GENETIC ALGORITHM DOCKING 89 of 100
Run: 89 Seed: 1586394867 340599216 [ Run 89 of 100 GA/GALS ]
Beginning LAMARCKIAN GENETIC ALGORITHM (LGA), with a maximum of 2500000 energy evaluations.

Final-Value: -14.604


	FINAL GENETIC ALGORITHM DOCKED STATE
	_______________________________________________


Detailed state:  trans 35.073 16.407 123.071 quatxyzw 0.599724 -0.172779 -0.663498 -0.412613 center -0.023 0.069 -0.054 ntor 6 -66.5939 178.2407 -34.0768 80.8533 4.1888 -157.7676
State:	 35.073  16.407 123.071   0.658 -0.190 -0.728 -131.262    -66.59  178.24  -34.08   80.85    4.19 -157.77

DOCKED: MODEL       89
DOCKED: USER    Run = 89
DOCKED: USER    DPF = ligand_dock.biased.dpf
DOCKED: USER  
DOCKED: USER    Estimated Free Energy of Binding    =  -12.15 kcal/mol  [=(1)+(2)+(3)-(4)]
DOCKED: USER    Estimated Inhibition Constant, Ki   =    1.24 nM (nanomolar)  [Temperature = 298.15 K]
DOCKED: USER    
DOCKED: USER    (1) Final Intermolecular Energy     =  -13.94 kcal/mol
DOCKED: USER        vdW + Hbond + desolv Energy     =  -13.94 kcal/mol
DOCKED: USER        Electrostatic Energy            =   +0.00 kcal/mol
DOCKED: USER    (2) Final Total Internal Energy     =   -0.66 kcal/mol
DOCKED: USER    (3) Torsional Free Energy           =   +1.79 kcal/mol
DOCKED: USER    (4) Unbound System's Energy  [=(2)] =   -0.66 kcal/mol
DOCKED: USER    
DOCKED: USER    
DOCKED: USER    NEWDPF move ligand.dum.pdbqt
DOCKED: USER    NEWDPF about -0.023000 0.069000 -0.054000
DOCKED: USER    NEWDPF tran0 35.072990 16.406975 123.071474
DOCKED: USER    NEWDPF quaternion0 0.599724 -0.172779 -0.663498 -0.412613
DOCKED: USER    NEWDPF axisangle0 0.658382 -0.189678 -0.728393 -131.261842
DOCKED: USER    NEWDPF quat0 0.658382 -0.189678 -0.728393 -131.261842
DOCKED: USER    NEWDPF dihe0 -66.59 178.24 -34.08 80.85 4.19 -157.77 
DOCKED: USER  keepresnum = 1 
DOCKED: USER  
DOCKED: REMARK  Name = 
DOCKED: REMARK  6 active torsions:
DOCKED: REMARK  status: ('A' for Active; 'I' for Inactive)
DOCKED: REMARK    1  A    between atoms: C_2  and  C_5
DOCKED: REMARK    2  A    between atoms: C_5  and  C_6
DOCKED: REMARK    3  A    between atoms: C_6  and  C_7
DOCKED: REMARK    4  A    between atoms: C_7  and  C_8
DOCKED: REMARK    5  A    between atoms: C_8  and  C_9
DOCKED: REMARK    6  A    between atoms: C_9  and  N_10
DOCKED: REMARK                            x       y       z     vdW  Elec       q    Type
DOCKED: REMARK                         _______ _______ _______ _____ _____    ______ ____
DOCKED: USER                              x       y       z     vdW  Elec       q    Type
DOCKED: USER                           _______ _______ _______ _____ _____    ______ ____
DOCKED: ROOT
DOCKED: ATOM      1  N   UNL     1      35.352  16.455 123.947 -0.39 -0.00    +0.000 N 
DOCKED: ATOM      2  C   UNL     1      35.896  17.751 123.636 -0.29 -0.00    +0.000 C 
DOCKED: ATOM      3  C   UNL     1      35.540  18.923 124.469 -0.22 -0.00    +0.000 A 
DOCKED: ATOM      4  C   UNL     1      36.090  20.188 124.195 -0.16 -0.00    +0.000 A 
DOCKED: ATOM      5  C   UNL     1      35.754  21.292 124.979 -0.14 -0.00    +0.000 A 
DOCKED: ATOM      6  C   UNL     1      34.866  21.155 126.046 -0.13 -0.00    +0.000 A 
DOCKED: ATOM      7  C   UNL     1      34.304  19.904 126.339 -0.17 -0.00    +0.000 A 
DOCKED: ATOM      8  C   UNL     1      33.410  19.766 127.410 -0.15 -0.00    +0.000 A 
DOCKED: ATOM      9  C   UNL     1      32.847  18.523 127.700 -0.21 -0.00    +0.000 A 
DOCKED: ATOM     10  C   UNL     1      33.171  17.406 126.928 -0.31 -0.00    +0.000 A 
DOCKED: ATOM     11  C   UNL     1      34.066  17.518 125.848 -0.36 -0.00    +0.000 A 
DOCKED: ATOM     12  C   UNL     1      34.640  18.775 125.548 -0.25 -0.00    +0.000 A 
DOCKED: ATOM     13  O   UNL     1      36.676  17.891 122.654 -0.18 -0.00    +0.000 OA
DOCKED: ATOM     14  C   UNL     1      34.409  16.333 125.029 -0.51 -0.00    +0.000 C 
DOCKED: ATOM     15  O   UNL     1      33.873  15.219 125.279 -0.62 -0.00    +0.000 OA
DOCKED: ATOM     16  CM  UNL     1      34.994  17.595 124.725 -0.42 -0.00    +0.000 AC
DOCKED: ATOM     17  CM  UNL     1      35.199  20.040 125.263 -0.01 -0.00    +0.000 AC
DOCKED: ATOM     18  CM  UNL     1      33.739  18.649 126.629 -0.02 -0.00    +0.000 AC
DOCKED: ENDROOT
DOCKED: BRANCH   1  16
DOCKED: ATOM     19  C   UNL     1      35.670  15.292 123.105 -0.40 -0.00    +0.000 C 
DOCKED: BRANCH  16  17
DOCKED: ATOM     20  C   UNL     1      36.483  14.268 123.903 -0.43 -0.00    +0.000 C 
DOCKED: BRANCH  17  18
DOCKED: ATOM     21  C   UNL     1      36.914  13.094 123.017 -0.59 -0.00    +0.000 C 
DOCKED: BRANCH  18  19
DOCKED: ATOM     22  C   UNL     1      35.977  11.892 123.205 -0.67 -0.00    +0.000 C 
DOCKED: BRANCH  19  20
DOCKED: ATOM     23  C   UNL     1      35.846  11.050 121.927 -0.46 -0.00    +0.000 C 
DOCKED: BRANCH  20  22
DOCKED: ATOM     24  O   UNL     1      37.066   9.188 121.059 -2.73 -0.00    +0.000 OA
DOCKED: ATOM     25  C   UNL     1      36.526   9.719 122.066 -0.66 -0.00    +0.000 C 
DOCKED: ATOM     26  N   UNL     1      36.590   9.068 123.337 -0.58 -0.00    +0.000 N 
DOCKED: ATOM     27  O   UNL     1      37.217   7.876 123.465 -2.59 -0.00    +0.000 OA
DOCKED: ATOM     28  H   UNL     1      36.177   9.490 124.125 -0.30 -0.00    +0.000 HD
DOCKED: ENDBRANCH  20  22
DOCKED: ENDBRANCH  19  20
DOCKED: ENDBRANCH  18  19
DOCKED: ENDBRANCH  17  18
DOCKED: ENDBRANCH  16  17
DOCKED: ENDBRANCH   1  16
DOCKED: TORSDOF 6DOCKED: TER
DOCKED: ENDMDL
________________________________________________________________________________


	BEGINNING GENETIC ALGORITHM DOCKING 90 of 100
Run: 90 Seed: 1688879973 1796168054 [ Run 90 of 100 GA/GALS ]
Beginning LAMARCKIAN GENETIC ALGORITHM (LGA), with a maximum of 2500000 energy evaluations.

Final-Value: -14.423


	FINAL GENETIC ALGORITHM DOCKED STATE
	_______________________________________________


Detailed state:  trans 36.954 14.909 120.016 quatxyzw 0.410911 0.565546 0.646093 0.306389 center -0.023 0.069 -0.054 ntor 6 -91.0691 -144.5524 165.0077 -66.5889 7.2968 175.4784
State:	 36.954  14.909 120.016   0.432  0.594  0.679 144.316    -91.07 -144.55  165.01  -66.59    7.30  175.48

DOCKED: MODEL       90
DOCKED: USER    Run = 90
DOCKED: USER    DPF = ligand_dock.biased.dpf
DOCKED: USER  
DOCKED: USER    Estimated Free Energy of Binding    =  -11.70 kcal/mol  [=(1)+(2)+(3)-(4)]
DOCKED: USER    Estimated Inhibition Constant, Ki   =    2.65 nM (nanomolar)  [Temperature = 298.15 K]
DOCKED: USER    
DOCKED: USER    (1) Final Intermolecular Energy     =  -13.49 kcal/mol
DOCKED: USER        vdW + Hbond + desolv Energy     =  -13.49 kcal/mol
DOCKED: USER        Electrostatic Energy            =   +0.00 kcal/mol
DOCKED: USER    (2) Final Total Internal Energy     =   -0.93 kcal/mol
DOCKED: USER    (3) Torsional Free Energy           =   +1.79 kcal/mol
DOCKED: USER    (4) Unbound System's Energy  [=(2)] =   -0.93 kcal/mol
DOCKED: USER    
DOCKED: USER    
DOCKED: USER    NEWDPF move ligand.dum.pdbqt
DOCKED: USER    NEWDPF about -0.023000 0.069000 -0.054000
DOCKED: USER    NEWDPF tran0 36.954221 14.909176 120.015559
DOCKED: USER    NEWDPF quaternion0 0.410911 0.565546 0.646093 0.306389
DOCKED: USER    NEWDPF axisangle0 0.431671 0.594119 0.678736 144.316453
DOCKED: USER    NEWDPF quat0 0.431671 0.594119 0.678736 144.316453
DOCKED: USER    NEWDPF dihe0 -91.07 -144.55 165.01 -66.59 7.30 175.48 
DOCKED: USER  keepresnum = 1 
DOCKED: USER  
DOCKED: REMARK  Name = 
DOCKED: REMARK  6 active torsions:
DOCKED: REMARK  status: ('A' for Active; 'I' for Inactive)
DOCKED: REMARK    1  A    between atoms: C_2  and  C_5
DOCKED: REMARK    2  A    between atoms: C_5  and  C_6
DOCKED: REMARK    3  A    between atoms: C_6  and  C_7
DOCKED: REMARK    4  A    between atoms: C_7  and  C_8
DOCKED: REMARK    5  A    between atoms: C_8  and  C_9
DOCKED: REMARK    6  A    between atoms: C_9  and  N_10
DOCKED: REMARK                            x       y       z     vdW  Elec       q    Type
DOCKED: REMARK                         _______ _______ _______ _____ _____    ______ ____
DOCKED: USER                              x       y       z     vdW  Elec       q    Type
DOCKED: USER                           _______ _______ _______ _____ _____    ______ ____
DOCKED: ROOT
DOCKED: ATOM      1  N   UNL     1      37.822  14.668 119.830 -0.25 -0.00    +0.000 N 
DOCKED: ATOM      2  C   UNL     1      37.301  13.850 118.766 -0.39 -0.00    +0.000 C 
DOCKED: ATOM      3  C   UNL     1      37.837  13.992 117.393 -0.30 -0.00    +0.000 A 
DOCKED: ATOM      4  C   UNL     1      37.359  13.177 116.351 -0.31 -0.00    +0.000 A 
DOCKED: ATOM      5  C   UNL     1      37.863  13.311 115.057 -0.42 -0.00    +0.000 A 
DOCKED: ATOM      6  C   UNL     1      38.850  14.257 114.780 -0.29 -0.00    +0.000 A 
DOCKED: ATOM      7  C   UNL     1      39.343  15.082 115.801 -0.26 -0.00    +0.000 A 
DOCKED: ATOM      8  C   UNL     1      40.332  16.034 115.522 -0.21 -0.00    +0.000 A 
DOCKED: ATOM      9  C   UNL     1      40.821  16.858 116.536 -0.12 -0.00    +0.000 A 
DOCKED: ATOM     10  C   UNL     1      40.329  16.739 117.838 -0.10 -0.00    +0.000 A 
DOCKED: ATOM     11  C   UNL     1      39.337  15.790 118.143 -0.13 -0.00    +0.000 A 
DOCKED: ATOM     12  C   UNL     1      38.837  14.953 117.120 -0.17 -0.00    +0.000 A 
DOCKED: ATOM     13  O   UNL     1      36.387  13.013 119.002 -0.46 -0.00    +0.000 OA
DOCKED: ATOM     14  C   UNL     1      38.816  15.665 119.524 -0.18 -0.00    +0.000 C 
DOCKED: ATOM     15  O   UNL     1      39.241  16.435 120.429 -0.14 -0.00    +0.000 OA
DOCKED: ATOM     16  CM  UNL     1      38.311  14.816 118.499 +0.00 -0.00    +0.000 AC
DOCKED: ATOM     17  CM  UNL     1      38.348  14.128 116.083 +0.00 -0.00    +0.000 AC
DOCKED: ATOM     18  CM  UNL     1      39.834  15.910 116.826 +0.00 -0.00    +0.000 AC
DOCKED: ENDROOT
DOCKED: BRANCH   1  16
DOCKED: ATOM     19  C   UNL     1      37.272  14.561 121.189 -0.32 -0.00    +0.000 C 
DOCKED: BRANCH  16  17
DOCKED: ATOM     20  C   UNL     1      38.007  13.468 121.973 -0.45 -0.00    +0.000 C 
DOCKED: BRANCH  17  18
DOCKED: ATOM     21  C   UNL     1      37.336  13.215 123.328 -0.57 -0.00    +0.000 C 
DOCKED: BRANCH  18  19
DOCKED: ATOM     22  C   UNL     1      36.721  11.809 123.382 -0.69 -0.00    +0.000 C 
DOCKED: BRANCH  19  20
DOCKED: ATOM     23  C   UNL     1      36.675  11.140 122.001 -0.62 -0.00    +0.000 C 
DOCKED: BRANCH  20  22
DOCKED: ATOM     24  O   UNL     1      37.010   8.976 121.044 -2.70 -0.00    +0.000 OA
DOCKED: ATOM     25  C   UNL     1      36.859   9.653 122.096 -0.65 -0.00    +0.000 C 
DOCKED: ATOM     26  N   UNL     1      36.896   9.008 123.371 -0.60 -0.00    +0.000 N 
DOCKED: ATOM     27  O   UNL     1      37.079   7.670 123.457 -2.66 -0.00    +0.000 OA
DOCKED: ATOM     28  H   UNL     1      36.789   9.541 124.192 -0.51 -0.00    +0.000 HD
DOCKED: ENDBRANCH  20  22
DOCKED: ENDBRANCH  19  20
DOCKED: ENDBRANCH  18  19
DOCKED: ENDBRANCH  17  18
DOCKED: ENDBRANCH  16  17
DOCKED: ENDBRANCH   1  16
DOCKED: TORSDOF 6DOCKED: TER
DOCKED: ENDMDL
________________________________________________________________________________


	BEGINNING GENETIC ALGORITHM DOCKING 91 of 100
Run: 91 Seed: 1687362925 1800675081 [ Run 91 of 100 GA/GALS ]
Beginning LAMARCKIAN GENETIC ALGORITHM (LGA), with a maximum of 2500000 energy evaluations.

Final-Value: -14.348


	FINAL GENETIC ALGORITHM DOCKED STATE
	_______________________________________________


Detailed state:  trans 36.587 15.755 122.679 quatxyzw -0.690033 0.340361 0.581434 0.264467 center -0.023 0.069 -0.054 ntor 6 2.3990 3.8825 61.9753 127.4237 6.5415 -152.7601
State:	 36.587  15.755 122.679  -0.716  0.353  0.603 149.329      2.40    3.88   61.98  127.42    6.54 -152.76

DOCKED: MODEL       91
DOCKED: USER    Run = 91
DOCKED: USER    DPF = ligand_dock.biased.dpf
DOCKED: USER  
DOCKED: USER    Estimated Free Energy of Binding    =  -11.81 kcal/mol  [=(1)+(2)+(3)-(4)]
DOCKED: USER    Estimated Inhibition Constant, Ki   =    2.20 nM (nanomolar)  [Temperature = 298.15 K]
DOCKED: USER    
DOCKED: USER    (1) Final Intermolecular Energy     =  -13.60 kcal/mol
DOCKED: USER        vdW + Hbond + desolv Energy     =  -13.60 kcal/mol
DOCKED: USER        Electrostatic Energy            =   +0.00 kcal/mol
DOCKED: USER    (2) Final Total Internal Energy     =   -0.75 kcal/mol
DOCKED: USER    (3) Torsional Free Energy           =   +1.79 kcal/mol
DOCKED: USER    (4) Unbound System's Energy  [=(2)] =   -0.75 kcal/mol
DOCKED: USER    
DOCKED: USER    
DOCKED: USER    NEWDPF move ligand.dum.pdbqt
DOCKED: USER    NEWDPF about -0.023000 0.069000 -0.054000
DOCKED: USER    NEWDPF tran0 36.586687 15.755473 122.678732
DOCKED: USER    NEWDPF quaternion0 -0.690033 0.340361 0.581434 0.264467
DOCKED: USER    NEWDPF axisangle0 -0.715509 0.352927 0.602901 149.329488
DOCKED: USER    NEWDPF quat0 -0.715509 0.352927 0.602901 149.329488
DOCKED: USER    NEWDPF dihe0 2.40 3.88 61.98 127.42 6.54 -152.76 
DOCKED: USER  keepresnum = 1 
DOCKED: USER  
DOCKED: REMARK  Name = 
DOCKED: REMARK  6 active torsions:
DOCKED: REMARK  status: ('A' for Active; 'I' for Inactive)
DOCKED: REMARK    1  A    between atoms: C_2  and  C_5
DOCKED: REMARK    2  A    between atoms: C_5  and  C_6
DOCKED: REMARK    3  A    between atoms: C_6  and  C_7
DOCKED: REMARK    4  A    between atoms: C_7  and  C_8
DOCKED: REMARK    5  A    between atoms: C_8  and  C_9
DOCKED: REMARK    6  A    between atoms: C_9  and  N_10
DOCKED: REMARK                            x       y       z     vdW  Elec       q    Type
DOCKED: REMARK                         _______ _______ _______ _____ _____    ______ ____
DOCKED: USER                              x       y       z     vdW  Elec       q    Type
DOCKED: USER                           _______ _______ _______ _____ _____    ______ ____
DOCKED: ROOT
DOCKED: ATOM      1  N   UNL     1      36.498  15.772 123.594 -0.37 -0.00    +0.000 N 
DOCKED: ATOM      2  C   UNL     1      37.470  16.835 123.605 -0.26 -0.00    +0.000 C 
DOCKED: ATOM      3  C   UNL     1      37.169  18.107 124.301 -0.18 -0.00    +0.000 A 
DOCKED: ATOM      4  C   UNL     1      38.121  19.140 124.346 -0.12 -0.00    +0.000 A 
DOCKED: ATOM      5  C   UNL     1      37.838  20.340 125.001 -0.07 -0.00    +0.000 A 
DOCKED: ATOM      6  C   UNL     1      36.603  20.528 125.620 -0.09 -0.00    +0.000 A 
DOCKED: ATOM      7  C   UNL     1      35.635  19.513 125.589 -0.17 -0.00    +0.000 A 
DOCKED: ATOM      8  C   UNL     1      34.393  19.704 126.210 -0.18 -0.00    +0.000 A 
DOCKED: ATOM      9  C   UNL     1      33.429  18.696 126.177 -0.28 -0.00    +0.000 A 
DOCKED: ATOM     10  C   UNL     1      33.694  17.490 125.527 -0.33 -0.00    +0.000 A 
DOCKED: ATOM     11  C   UNL     1      34.933  17.273 124.897 -0.35 -0.00    +0.000 A 
DOCKED: ATOM     12  C   UNL     1      35.914  18.290 124.926 -0.22 -0.00    +0.000 A 
DOCKED: ATOM     13  O   UNL     1      38.578  16.684 123.020 -0.27 -0.00    +0.000 OA
DOCKED: ATOM     14  C   UNL     1      35.214  15.994 124.207 -0.50 -0.00    +0.000 C 
DOCKED: ATOM     15  O   UNL     1      34.325  15.099 124.155 -0.68 -0.00    +0.000 OA
DOCKED: ATOM     16  CM  UNL     1      36.208  17.011 124.237 -0.07 -0.00    +0.000 AC
DOCKED: ATOM     17  CM  UNL     1      36.880  19.320 124.964 -0.00 -0.00    +0.000 AC
DOCKED: ATOM     18  CM  UNL     1      34.666  18.495 125.555 -0.27 -0.00    +0.000 AC
DOCKED: ENDROOT
DOCKED: BRANCH   1  16
DOCKED: ATOM     19  C   UNL     1      36.773  14.520 122.876 -0.46 -0.00    +0.000 C 
DOCKED: BRANCH  16  17
DOCKED: ATOM     20  C   UNL     1      36.748  13.336 123.847 -0.45 -0.00    +0.000 C 
DOCKED: BRANCH  17  18
DOCKED: ATOM     21  C   UNL     1      37.188  12.042 123.153 -0.61 -0.00    +0.000 C 
DOCKED: BRANCH  18  19
DOCKED: ATOM     22  C   UNL     1      36.381  11.807 121.868 -0.56 -0.00    +0.000 C 
DOCKED: BRANCH  19  20
DOCKED: ATOM     23  C   UNL     1      35.500  10.553 121.955 -0.38 -0.00    +0.000 C 
DOCKED: BRANCH  20  22
DOCKED: ATOM     24  O   UNL     1      36.875   8.821 121.050 -2.63 -0.00    +0.000 OA
DOCKED: ATOM     25  C   UNL     1      36.321   9.302 122.075 -0.68 -0.00    +0.000 C 
DOCKED: ATOM     26  N   UNL     1      36.505   8.676 123.346 -0.63 -0.00    +0.000 N 
DOCKED: ATOM     27  O   UNL     1      37.259   7.558 123.456 -2.53 -0.00    +0.000 OA
DOCKED: ATOM     28  H   UNL     1      36.081   9.060 124.147 -0.25 -0.00    +0.000 HD
DOCKED: ENDBRANCH  20  22
DOCKED: ENDBRANCH  19  20
DOCKED: ENDBRANCH  18  19
DOCKED: ENDBRANCH  17  18
DOCKED: ENDBRANCH  16  17
DOCKED: ENDBRANCH   1  16
DOCKED: TORSDOF 6DOCKED: TER
DOCKED: ENDMDL
________________________________________________________________________________


	BEGINNING GENETIC ALGORITHM DOCKING 92 of 100
Run: 92 Seed: 1690159461 2075368700 [ Run 92 of 100 GA/GALS ]
Beginning LAMARCKIAN GENETIC ALGORITHM (LGA), with a maximum of 2500000 energy evaluations.

Final-Value: -13.461


	FINAL GENETIC ALGORITHM DOCKED STATE
	_______________________________________________


Detailed state:  trans 38.472 14.475 121.857 quatxyzw -0.250160 0.932505 0.084941 0.246250 center -0.023 0.069 -0.054 ntor 6 35.4313 -95.8066 176.4010 -45.9489 -157.1429 -18.1092
State:	 38.472  14.475 121.857  -0.258  0.962  0.088 151.489     35.43  -95.81  176.40  -45.95 -157.14  -18.11

DOCKED: MODEL       92
DOCKED: USER    Run = 92
DOCKED: USER    DPF = ligand_dock.biased.dpf
DOCKED: USER  
DOCKED: USER    Estimated Free Energy of Binding    =  -10.75 kcal/mol  [=(1)+(2)+(3)-(4)]
DOCKED: USER    Estimated Inhibition Constant, Ki   =   13.14 nM (nanomolar)  [Temperature = 298.15 K]
DOCKED: USER    
DOCKED: USER    (1) Final Intermolecular Energy     =  -12.54 kcal/mol
DOCKED: USER        vdW + Hbond + desolv Energy     =  -12.54 kcal/mol
DOCKED: USER        Electrostatic Energy            =   +0.00 kcal/mol
DOCKED: USER    (2) Final Total Internal Energy     =   -0.92 kcal/mol
DOCKED: USER    (3) Torsional Free Energy           =   +1.79 kcal/mol
DOCKED: USER    (4) Unbound System's Energy  [=(2)] =   -0.92 kcal/mol
DOCKED: USER    
DOCKED: USER    
DOCKED: USER    NEWDPF move ligand.dum.pdbqt
DOCKED: USER    NEWDPF about -0.023000 0.069000 -0.054000
DOCKED: USER    NEWDPF tran0 38.472050 14.475459 121.856897
DOCKED: USER    NEWDPF quaternion0 -0.250160 0.932505 0.084941 0.246250
DOCKED: USER    NEWDPF axisangle0 -0.258108 0.962133 0.087639 151.488592
DOCKED: USER    NEWDPF quat0 -0.258108 0.962133 0.087639 151.488592
DOCKED: USER    NEWDPF dihe0 35.43 -95.81 176.40 -45.95 -157.14 -18.11 
DOCKED: USER  keepresnum = 1 
DOCKED: USER  
DOCKED: REMARK  Name = 
DOCKED: REMARK  6 active torsions:
DOCKED: REMARK  status: ('A' for Active; 'I' for Inactive)
DOCKED: REMARK    1  A    between atoms: C_2  and  C_5
DOCKED: REMARK    2  A    between atoms: C_5  and  C_6
DOCKED: REMARK    3  A    between atoms: C_6  and  C_7
DOCKED: REMARK    4  A    between atoms: C_7  and  C_8
DOCKED: REMARK    5  A    between atoms: C_8  and  C_9
DOCKED: REMARK    6  A    between atoms: C_9  and  N_10
DOCKED: REMARK                            x       y       z     vdW  Elec       q    Type
DOCKED: REMARK                         _______ _______ _______ _____ _____    ______ ____
DOCKED: USER                              x       y       z     vdW  Elec       q    Type
DOCKED: USER                           _______ _______ _______ _____ _____    ______ ____
DOCKED: ROOT
DOCKED: ATOM      1  N   UNL     1      38.661  15.375 121.878 -0.27 -0.00    +0.000 N 
DOCKED: ATOM      2  C   UNL     1      40.031  15.018 122.137 -0.42 -0.00    +0.000 C 
DOCKED: ATOM      3  C   UNL     1      41.114  15.572 121.291 -0.25 -0.00    +0.000 A 
DOCKED: ATOM      4  C   UNL     1      42.458  15.255 121.553 -0.20 -0.00    +0.000 A 
DOCKED: ATOM      5  C   UNL     1      43.479  15.776 120.756 -0.24 -0.00    +0.000 A 
DOCKED: ATOM      6  C   UNL     1      43.176  16.620 119.688 -0.15 -0.00    +0.000 A 
DOCKED: ATOM      7  C   UNL     1      41.843  16.950 119.405 -0.11 -0.00    +0.000 A 
DOCKED: ATOM      8  C   UNL     1      41.539  17.796 118.329 -0.05 -0.00    +0.000 A 
DOCKED: ATOM      9  C   UNL     1      40.213  18.122 118.046 -0.03 -0.00    +0.000 A 
DOCKED: ATOM     10  C   UNL     1      39.178  17.611 118.831 -0.04 -0.00    +0.000 A 
DOCKED: ATOM     11  C   UNL     1      39.457  16.761 119.917 -0.10 -0.00    +0.000 A 
DOCKED: ATOM     12  C   UNL     1      40.798  16.426 120.210 -0.14 -0.00    +0.000 A 
DOCKED: ATOM     13  O   UNL     1      40.312  14.230 123.083 -0.86 -0.00    +0.000 OA
DOCKED: ATOM     14  C   UNL     1      38.359  16.219 120.749 -0.17 -0.00    +0.000 C 
DOCKED: ATOM     15  O   UNL     1      37.160  16.494 120.468 -0.17 -0.00    +0.000 OA
DOCKED: ATOM     16  CM  UNL     1      39.708  15.881 121.053 +0.00 -0.00    +0.000 AC
DOCKED: ATOM     17  CM  UNL     1      42.145  16.100 120.484 +0.00 -0.00    +0.000 AC
DOCKED: ATOM     18  CM  UNL     1      40.505  17.278 119.123 +0.00 -0.00    +0.000 AC
DOCKED: ENDROOT
DOCKED: BRANCH   1  16
DOCKED: ATOM     19  C   UNL     1      37.576  14.803 122.688 -0.42 -0.00    +0.000 C 
DOCKED: BRANCH  16  17
DOCKED: ATOM     20  C   UNL     1      36.819  13.742 121.883 -0.36 -0.00    +0.000 C 
DOCKED: BRANCH  17  18
DOCKED: ATOM     21  C   UNL     1      37.688  13.181 120.753 -0.47 -0.00    +0.000 C 
DOCKED: BRANCH  18  19
DOCKED: ATOM     22  C   UNL     1      37.599  11.648 120.700 -0.39 -0.00    +0.000 C 
DOCKED: BRANCH  19  20
DOCKED: ATOM     23  C   UNL     1      36.680  11.080 121.790 -0.58 -0.00    +0.000 C 
DOCKED: BRANCH  20  22
DOCKED: ATOM     24  O   UNL     1      36.970   8.855 120.969 -2.68 -0.00    +0.000 OA
DOCKED: ATOM     25  C   UNL     1      36.884   9.605 121.978 -0.64 -0.00    +0.000 C 
DOCKED: ATOM     26  N   UNL     1      37.014   9.054 123.291 -0.62 -0.00    +0.000 N 
DOCKED: ATOM     27  O   UNL     1      37.215   7.727 123.459 -2.66 -0.00    +0.000 OA
DOCKED: ATOM     28  H   UNL     1      36.959   9.644 124.077 -0.52 -0.00    +0.000 HD
DOCKED: ENDBRANCH  20  22
DOCKED: ENDBRANCH  19  20
DOCKED: ENDBRANCH  18  19
DOCKED: ENDBRANCH  17  18
DOCKED: ENDBRANCH  16  17
DOCKED: ENDBRANCH   1  16
DOCKED: TORSDOF 6DOCKED: TER
DOCKED: ENDMDL
________________________________________________________________________________


	BEGINNING GENETIC ALGORITHM DOCKING 93 of 100
Run: 93 Seed: 192847870 2107549480 [ Run 93 of 100 GA/GALS ]
Beginning LAMARCKIAN GENETIC ALGORITHM (LGA), with a maximum of 2500000 energy evaluations.

Final-Value: -13.477


	FINAL GENETIC ALGORITHM DOCKED STATE
	_______________________________________________


Detailed state:  trans 38.241 14.292 120.758 quatxyzw -0.888719 0.396528 -0.194054 -0.123638 center -0.023 0.069 -0.054 ntor 6 -45.6239 151.9712 178.6174 -1.3761 95.5797 171.3650
State:	 38.241  14.292 120.758  -0.896  0.400 -0.196 -165.796    -45.62  151.97  178.62   -1.38   95.58  171.37

DOCKED: MODEL       93
DOCKED: USER    Run = 93
DOCKED: USER    DPF = ligand_dock.biased.dpf
DOCKED: USER  
DOCKED: USER    Estimated Free Energy of Binding    =  -10.80 kcal/mol  [=(1)+(2)+(3)-(4)]
DOCKED: USER    Estimated Inhibition Constant, Ki   =   12.03 nM (nanomolar)  [Temperature = 298.15 K]
DOCKED: USER    
DOCKED: USER    (1) Final Intermolecular Energy     =  -12.59 kcal/mol
DOCKED: USER        vdW + Hbond + desolv Energy     =  -12.59 kcal/mol
DOCKED: USER        Electrostatic Energy            =   +0.00 kcal/mol
DOCKED: USER    (2) Final Total Internal Energy     =   -0.88 kcal/mol
DOCKED: USER    (3) Torsional Free Energy           =   +1.79 kcal/mol
DOCKED: USER    (4) Unbound System's Energy  [=(2)] =   -0.88 kcal/mol
DOCKED: USER    
DOCKED: USER    
DOCKED: USER    NEWDPF move ligand.dum.pdbqt
DOCKED: USER    NEWDPF about -0.023000 0.069000 -0.054000
DOCKED: USER    NEWDPF tran0 38.240827 14.292152 120.757521
DOCKED: USER    NEWDPF quaternion0 -0.888719 0.396528 -0.194054 -0.123638
DOCKED: USER    NEWDPF axisangle0 -0.895591 0.399594 -0.195554 -165.795726
DOCKED: USER    NEWDPF quat0 -0.895591 0.399594 -0.195554 -165.795726
DOCKED: USER    NEWDPF dihe0 -45.62 151.97 178.62 -1.38 95.58 171.37 
DOCKED: USER  keepresnum = 1 
DOCKED: USER  
DOCKED: REMARK  Name = 
DOCKED: REMARK  6 active torsions:
DOCKED: REMARK  status: ('A' for Active; 'I' for Inactive)
DOCKED: REMARK    1  A    between atoms: C_2  and  C_5
DOCKED: REMARK    2  A    between atoms: C_5  and  C_6
DOCKED: REMARK    3  A    between atoms: C_6  and  C_7
DOCKED: REMARK    4  A    between atoms: C_7  and  C_8
DOCKED: REMARK    5  A    between atoms: C_8  and  C_9
DOCKED: REMARK    6  A    between atoms: C_9  and  N_10
DOCKED: REMARK                            x       y       z     vdW  Elec       q    Type
DOCKED: REMARK                         _______ _______ _______ _____ _____    ______ ____
DOCKED: USER                              x       y       z     vdW  Elec       q    Type
DOCKED: USER                           _______ _______ _______ _____ _____    ______ ____
DOCKED: ROOT
DOCKED: ATOM      1  N   UNL     1      37.385  14.273 120.422 -0.30 -0.00    +0.000 N 
DOCKED: ATOM      2  C   UNL     1      37.058  15.307 121.371 -0.27 -0.00    +0.000 C 
DOCKED: ATOM      3  C   UNL     1      36.410  16.557 120.910 -0.16 -0.00    +0.000 A 
DOCKED: ATOM      4  C   UNL     1      36.059  17.560 121.830 -0.20 -0.00    +0.000 A 
DOCKED: ATOM      5  C   UNL     1      35.449  18.738 121.396 -0.21 -0.00    +0.000 A 
DOCKED: ATOM      6  C   UNL     1      35.181  18.935 120.042 -0.20 -0.00    +0.000 A 
DOCKED: ATOM      7  C   UNL     1      35.523  17.950 119.105 -0.14 -0.00    +0.000 A 
DOCKED: ATOM      8  C   UNL     1      35.256  18.149 117.743 -0.09 -0.00    +0.000 A 
DOCKED: ATOM      9  C   UNL     1      35.599  17.171 116.810 -0.08 -0.00    +0.000 A 
DOCKED: ATOM     10  C   UNL     1      36.209  15.985 117.224 -0.14 -0.00    +0.000 A 
DOCKED: ATOM     11  C   UNL     1      36.487  15.761 118.584 -0.17 -0.00    +0.000 A 
DOCKED: ATOM     12  C   UNL     1      36.143  16.748 119.535 -0.14 -0.00    +0.000 A 
DOCKED: ATOM     13  O   UNL     1      37.326  15.150 122.594 -0.37 -0.00    +0.000 OA
DOCKED: ATOM     14  C   UNL     1      37.134  14.504 119.023 -0.31 -0.00    +0.000 C 
DOCKED: ATOM     15  O   UNL     1      37.469  13.637 118.168 -0.40 -0.00    +0.000 OA
DOCKED: ATOM     16  CM  UNL     1      36.786  15.492 119.986 +0.00 -0.00    +0.000 AC
DOCKED: ATOM     17  CM  UNL     1      35.794  17.748 120.470 +0.00 -0.00    +0.000 AC
DOCKED: ATOM     18  CM  UNL     1      35.869  16.961 118.166 +0.00 -0.00    +0.000 AC
DOCKED: ENDROOT
DOCKED: BRANCH   1  16
DOCKED: ATOM     19  C   UNL     1      38.060  13.045 120.864 -0.46 -0.00    +0.000 C 
DOCKED: BRANCH  16  17
DOCKED: ATOM     20  C   UNL     1      37.035  12.041 121.400 -0.55 -0.00    +0.000 C 
DOCKED: BRANCH  17  18
DOCKED: ATOM     21  C   UNL     1      36.711  12.316 122.873 -0.64 -0.00    +0.000 C 
DOCKED: BRANCH  18  19
DOCKED: ATOM     22  C   UNL     1      35.663  11.324 123.399 -0.61 -0.00    +0.000 C 
DOCKED: BRANCH  19  20
DOCKED: ATOM     23  C   UNL     1      35.249  10.296 122.337 -0.62 -0.00    +0.000 C 
DOCKED: BRANCH  20  22
DOCKED: ATOM     24  O   UNL     1      36.739   8.839 121.167 -2.62 -0.00    +0.000 OA
DOCKED: ATOM     25  C   UNL     1      36.213   9.147 122.270 -0.71 -0.00    +0.000 C 
DOCKED: ATOM     26  N   UNL     1      36.560   8.423 123.453 -0.65 -0.00    +0.000 N 
DOCKED: ATOM     27  O   UNL     1      37.441   7.398 123.394 -2.33 -0.00    +0.000 OA
DOCKED: ATOM     28  H   UNL     1      36.156   8.673 124.315 -0.21 -0.00    +0.000 HD
DOCKED: ENDBRANCH  20  22
DOCKED: ENDBRANCH  19  20
DOCKED: ENDBRANCH  18  19
DOCKED: ENDBRANCH  17  18
DOCKED: ENDBRANCH  16  17
DOCKED: ENDBRANCH   1  16
DOCKED: TORSDOF 6DOCKED: TER
DOCKED: ENDMDL
________________________________________________________________________________


	BEGINNING GENETIC ALGORITHM DOCKING 94 of 100
Run: 94 Seed: 1579268709 89201296 [ Run 94 of 100 GA/GALS ]
Beginning LAMARCKIAN GENETIC ALGORITHM (LGA), with a maximum of 2500000 energy evaluations.

Final-Value: -14.665


	FINAL GENETIC ALGORITHM DOCKED STATE
	_______________________________________________


Detailed state:  trans 38.471 15.358 121.722 quatxyzw -0.886400 0.140631 -0.406153 0.171924 center -0.023 0.069 -0.054 ntor 6 -130.3458 -132.2957 105.7382 -45.9443 166.4793 -167.5758
State:	 38.471  15.358 121.722  -0.900  0.143 -0.412 160.201   -130.35 -132.30  105.74  -45.94  166.48 -167.58

DOCKED: MODEL       94
DOCKED: USER    Run = 94
DOCKED: USER    DPF = ligand_dock.biased.dpf
DOCKED: USER  
DOCKED: USER    Estimated Free Energy of Binding    =  -11.61 kcal/mol  [=(1)+(2)+(3)-(4)]
DOCKED: USER    Estimated Inhibition Constant, Ki   =    3.08 nM (nanomolar)  [Temperature = 298.15 K]
DOCKED: USER    
DOCKED: USER    (1) Final Intermolecular Energy     =  -13.40 kcal/mol
DOCKED: USER        vdW + Hbond + desolv Energy     =  -13.40 kcal/mol
DOCKED: USER        Electrostatic Energy            =   +0.00 kcal/mol
DOCKED: USER    (2) Final Total Internal Energy     =   -1.26 kcal/mol
DOCKED: USER    (3) Torsional Free Energy           =   +1.79 kcal/mol
DOCKED: USER    (4) Unbound System's Energy  [=(2)] =   -1.26 kcal/mol
DOCKED: USER    
DOCKED: USER    
DOCKED: USER    NEWDPF move ligand.dum.pdbqt
DOCKED: USER    NEWDPF about -0.023000 0.069000 -0.054000
DOCKED: USER    NEWDPF tran0 38.471149 15.357524 121.722030
DOCKED: USER    NEWDPF quaternion0 -0.886400 0.140631 -0.406153 0.171924
DOCKED: USER    NEWDPF axisangle0 -0.899798 0.142756 -0.412292 160.200561
DOCKED: USER    NEWDPF quat0 -0.899798 0.142756 -0.412292 160.200561
DOCKED: USER    NEWDPF dihe0 -130.35 -132.30 105.74 -45.94 166.48 -167.58 
DOCKED: USER  keepresnum = 1 
DOCKED: USER  
DOCKED: REMARK  Name = 
DOCKED: REMARK  6 active torsions:
DOCKED: REMARK  status: ('A' for Active; 'I' for Inactive)
DOCKED: REMARK    1  A    between atoms: C_2  and  C_5
DOCKED: REMARK    2  A    between atoms: C_5  and  C_6
DOCKED: REMARK    3  A    between atoms: C_6  and  C_7
DOCKED: REMARK    4  A    between atoms: C_7  and  C_8
DOCKED: REMARK    5  A    between atoms: C_8  and  C_9
DOCKED: REMARK    6  A    between atoms: C_9  and  N_10
DOCKED: REMARK                            x       y       z     vdW  Elec       q    Type
DOCKED: REMARK                         _______ _______ _______ _____ _____    ______ ____
DOCKED: USER                              x       y       z     vdW  Elec       q    Type
DOCKED: USER                           _______ _______ _______ _____ _____    ______ ____
DOCKED: ROOT
DOCKED: ATOM      1  N   UNL     1      37.772  14.825 121.451 -0.28 -0.00    +0.000 N 
DOCKED: ATOM      2  C   UNL     1      37.001  16.030 121.289 -0.22 -0.00    +0.000 C 
DOCKED: ATOM      3  C   UNL     1      36.311  16.302 120.006 -0.13 -0.00    +0.000 A 
DOCKED: ATOM      4  C   UNL     1      35.530  17.459 119.846 -0.16 -0.00    +0.000 A 
DOCKED: ATOM      5  C   UNL     1      34.881  17.716 118.637 -0.15 -0.00    +0.000 A 
DOCKED: ATOM      6  C   UNL     1      35.000  16.825 117.571 -0.13 -0.00    +0.000 A 
DOCKED: ATOM      7  C   UNL     1      35.775  15.664 117.705 -0.18 -0.00    +0.000 A 
DOCKED: ATOM      8  C   UNL     1      35.897  14.770 116.633 -0.25 -0.00    +0.000 A 
DOCKED: ATOM      9  C   UNL     1      36.670  13.616 116.764 -0.33 -0.00    +0.000 A 
DOCKED: ATOM     10  C   UNL     1      37.327  13.342 117.966 -0.37 -0.00    +0.000 A 
DOCKED: ATOM     11  C   UNL     1      37.219  14.223 119.057 -0.31 -0.00    +0.000 A 
DOCKED: ATOM     12  C   UNL     1      36.438  15.394 118.930 -0.17 -0.00    +0.000 A 
DOCKED: ATOM     13  O   UNL     1      36.912  16.857 122.238 -0.21 -0.00    +0.000 OA
DOCKED: ATOM     14  C   UNL     1      37.916  13.932 120.330 -0.38 -0.00    +0.000 C 
DOCKED: ATOM     15  O   UNL     1      38.638  12.901 120.431 -0.42 -0.00    +0.000 OA
DOCKED: ATOM     16  CM  UNL     1      37.127  15.110 120.211 +0.00 -0.00    +0.000 AC
DOCKED: ATOM     17  CM  UNL     1      35.656  16.560 118.782 +0.00 -0.00    +0.000 AC
DOCKED: ATOM     18  CM  UNL     1      36.554  14.501 117.842 +0.00 -0.00    +0.000 AC
DOCKED: ENDROOT
DOCKED: BRANCH   1  16
DOCKED: ATOM     19  C   UNL     1      38.489  14.564 122.707 -0.45 -0.00    +0.000 C 
DOCKED: BRANCH  16  17
DOCKED: ATOM     20  C   UNL     1      37.751  13.500 123.526 -0.36 -0.00    +0.000 C 
DOCKED: BRANCH  17  18
DOCKED: ATOM     21  C   UNL     1      36.338  13.266 122.982 -0.56 -0.00    +0.000 C 
DOCKED: BRANCH  18  19
DOCKED: ATOM     22  C   UNL     1      36.032  11.765 122.876 -0.65 -0.00    +0.000 C 
DOCKED: BRANCH  19  20
DOCKED: ATOM     23  C   UNL     1      36.819  11.088 121.746 -0.56 -0.00    +0.000 C 
DOCKED: BRANCH  20  22
DOCKED: ATOM     24  O   UNL     1      36.985   8.842 120.947 -2.69 -0.00    +0.000 OA
DOCKED: ATOM     25  C   UNL     1      36.921   9.604 121.949 -0.63 -0.00    +0.000 C 
DOCKED: ATOM     26  N   UNL     1      36.979   9.056 123.268 -0.62 -0.00    +0.000 N 
DOCKED: ATOM     27  O   UNL     1      37.088   7.720 123.450 -2.69 -0.00    +0.000 OA
DOCKED: ATOM     28  H   UNL     1      36.940   9.655 124.048 -0.51 -0.00    +0.000 HD
DOCKED: ENDBRANCH  20  22
DOCKED: ENDBRANCH  19  20
DOCKED: ENDBRANCH  18  19
DOCKED: ENDBRANCH  17  18
DOCKED: ENDBRANCH  16  17
DOCKED: ENDBRANCH   1  16
DOCKED: TORSDOF 6DOCKED: TER
DOCKED: ENDMDL
________________________________________________________________________________


	BEGINNING GENETIC ALGORITHM DOCKING 95 of 100
Run: 95 Seed: 1945687114 1771393327 [ Run 95 of 100 GA/GALS ]
Beginning LAMARCKIAN GENETIC ALGORITHM (LGA), with a maximum of 2500000 energy evaluations.

Final-Value: -13.378


	FINAL GENETIC ALGORITHM DOCKED STATE
	_______________________________________________


Detailed state:  trans 38.425 15.931 120.723 quatxyzw -0.020108 -0.008893 -0.984950 -0.171434 center -0.023 0.069 -0.054 ntor 6 13.6445 166.9054 -6.9750 116.4537 -30.8537 -178.4287
State:	 38.425  15.931 120.723  -0.020 -0.009 -1.000 -160.258     13.64  166.91   -6.98  116.45  -30.85 -178.43

DOCKED: MODEL       95
DOCKED: USER    Run = 95
DOCKED: USER    DPF = ligand_dock.biased.dpf
DOCKED: USER  
DOCKED: USER    Estimated Free Energy of Binding    =  -10.80 kcal/mol  [=(1)+(2)+(3)-(4)]
DOCKED: USER    Estimated Inhibition Constant, Ki   =   12.13 nM (nanomolar)  [Temperature = 298.15 K]
DOCKED: USER    
DOCKED: USER    (1) Final Intermolecular Energy     =  -12.59 kcal/mol
DOCKED: USER        vdW + Hbond + desolv Energy     =  -12.59 kcal/mol
DOCKED: USER        Electrostatic Energy            =   +0.00 kcal/mol
DOCKED: USER    (2) Final Total Internal Energy     =   -0.79 kcal/mol
DOCKED: USER    (3) Torsional Free Energy           =   +1.79 kcal/mol
DOCKED: USER    (4) Unbound System's Energy  [=(2)] =   -0.79 kcal/mol
DOCKED: USER    
DOCKED: USER    
DOCKED: USER    NEWDPF move ligand.dum.pdbqt
DOCKED: USER    NEWDPF about -0.023000 0.069000 -0.054000
DOCKED: USER    NEWDPF tran0 38.424642 15.930608 120.722880
DOCKED: USER    NEWDPF quaternion0 -0.020108 -0.008893 -0.984950 -0.171434
DOCKED: USER    NEWDPF axisangle0 -0.020411 -0.009026 -0.999751 -160.257536
DOCKED: USER    NEWDPF quat0 -0.020411 -0.009026 -0.999751 -160.257536
DOCKED: USER    NEWDPF dihe0 13.64 166.91 -6.98 116.45 -30.85 -178.43 
DOCKED: USER  keepresnum = 1 
DOCKED: USER  
DOCKED: REMARK  Name = 
DOCKED: REMARK  6 active torsions:
DOCKED: REMARK  status: ('A' for Active; 'I' for Inactive)
DOCKED: REMARK    1  A    between atoms: C_2  and  C_5
DOCKED: REMARK    2  A    between atoms: C_5  and  C_6
DOCKED: REMARK    3  A    between atoms: C_6  and  C_7
DOCKED: REMARK    4  A    between atoms: C_7  and  C_8
DOCKED: REMARK    5  A    between atoms: C_8  and  C_9
DOCKED: REMARK    6  A    between atoms: C_9  and  N_10
DOCKED: REMARK                            x       y       z     vdW  Elec       q    Type
DOCKED: REMARK                         _______ _______ _______ _____ _____    ______ ____
DOCKED: USER                              x       y       z     vdW  Elec       q    Type
DOCKED: USER                           _______ _______ _______ _____ _____    ______ ____
DOCKED: ROOT
DOCKED: ATOM      1  N   UNL     1      39.214  15.469 120.624 -0.21 -0.00    +0.000 N 
DOCKED: ATOM      2  C   UNL     1      39.603  16.466 119.661 -0.13 -0.00    +0.000 C 
DOCKED: ATOM      3  C   UNL     1      40.899  17.168 119.803 -0.09 -0.00    +0.000 A 
DOCKED: ATOM      4  C   UNL     1      41.304  18.121 118.852 -0.04 -0.00    +0.000 A 
DOCKED: ATOM      5  C   UNL     1      42.525  18.784 118.987 -0.02 -0.00    +0.000 A 
DOCKED: ATOM      6  C   UNL     1      43.360  18.508 120.069 -0.04 -0.00    +0.000 A 
DOCKED: ATOM      7  C   UNL     1      42.979  17.563 121.032 -0.13 -0.00    +0.000 A 
DOCKED: ATOM      8  C   UNL     1      43.817  17.287 122.121 -0.26 -0.00    +0.000 A 
DOCKED: ATOM      9  C   UNL     1      43.436  16.350 123.081 -0.25 -0.00    +0.000 A 
DOCKED: ATOM     10  C   UNL     1      42.219  15.676 122.964 -0.39 +0.00    +0.000 A 
DOCKED: ATOM     11  C   UNL     1      41.361  15.934 121.880 -0.32 -0.00    +0.000 A 
DOCKED: ATOM     12  C   UNL     1      41.739  16.883 120.904 -0.15 -0.00    +0.000 A 
DOCKED: ATOM     13  O   UNL     1      38.839  16.744 118.695 -0.10 -0.00    +0.000 OA
DOCKED: ATOM     14  C   UNL     1      40.070  15.220 121.756 -0.37 -0.00    +0.000 C 
DOCKED: ATOM     15  O   UNL     1      39.719  14.395 122.645 -0.90 -0.00    +0.000 OA
DOCKED: ATOM     16  CM  UNL     1      40.447  16.171 120.767 +0.00 -0.00    +0.000 AC
DOCKED: ATOM     17  CM  UNL     1      42.135  17.838 119.941 +0.00 -0.00    +0.000 AC
DOCKED: ATOM     18  CM  UNL     1      42.592  16.615 121.997 +0.00 -0.00    +0.000 AC
DOCKED: ENDROOT
DOCKED: BRANCH   1  16
DOCKED: ATOM     19  C   UNL     1      37.914  14.793 120.512 -0.30 -0.00    +0.000 C 
DOCKED: BRANCH  16  17
DOCKED: ATOM     20  C   UNL     1      38.067  13.477 119.744 -0.29 -0.00    +0.000 C 
DOCKED: BRANCH  17  18
DOCKED: ATOM     21  C   UNL     1      37.051  12.435 120.224 -0.46 -0.00    +0.000 C 
DOCKED: BRANCH  18  19
DOCKED: ATOM     22  C   UNL     1      37.290  12.073 121.698 -0.51 -0.00    +0.000 C 
DOCKED: BRANCH  19  20
DOCKED: ATOM     23  C   UNL     1      36.232  11.101 122.238 -0.64 -0.00    +0.000 C 
DOCKED: BRANCH  20  22
DOCKED: ATOM     24  O   UNL     1      36.935   9.108 121.123 -2.69 -0.00    +0.000 OA
DOCKED: ATOM     25  C   UNL     1      36.720   9.681 122.224 -0.69 -0.00    +0.000 C 
DOCKED: ATOM     26  N   UNL     1      36.972   8.991 123.450 -0.58 -0.00    +0.000 N 
DOCKED: ATOM     27  O   UNL     1      37.428   7.717 123.437 -2.59 -0.00    +0.000 OA
DOCKED: ATOM     28  H   UNL     1      36.814   9.446 124.309 -0.43 -0.00    +0.000 HD
DOCKED: ENDBRANCH  20  22
DOCKED: ENDBRANCH  19  20
DOCKED: ENDBRANCH  18  19
DOCKED: ENDBRANCH  17  18
DOCKED: ENDBRANCH  16  17
DOCKED: ENDBRANCH   1  16
DOCKED: TORSDOF 6DOCKED: TER
DOCKED: ENDMDL
________________________________________________________________________________


	BEGINNING GENETIC ALGORITHM DOCKING 96 of 100
Run: 96 Seed: 1987438492 2026458297 [ Run 96 of 100 GA/GALS ]
Beginning LAMARCKIAN GENETIC ALGORITHM (LGA), with a maximum of 2500000 energy evaluations.

Final-Value: -13.916


	FINAL GENETIC ALGORITHM DOCKED STATE
	_______________________________________________


Detailed state:  trans 39.135 16.161 121.724 quatxyzw -0.290964 -0.231817 -0.922295 -0.104754 center -0.023 0.069 -0.054 ntor 6 -121.4049 -110.2347 128.9195 23.2431 0.7153 165.0033
State:	 39.135  16.161 121.724  -0.293 -0.233 -0.927 -167.974   -121.40 -110.23  128.92   23.24    0.72  165.00

DOCKED: MODEL       96
DOCKED: USER    Run = 96
DOCKED: USER    DPF = ligand_dock.biased.dpf
DOCKED: USER  
DOCKED: USER    Estimated Free Energy of Binding    =  -11.45 kcal/mol  [=(1)+(2)+(3)-(4)]
DOCKED: USER    Estimated Inhibition Constant, Ki   =    4.07 nM (nanomolar)  [Temperature = 298.15 K]
DOCKED: USER    
DOCKED: USER    (1) Final Intermolecular Energy     =  -13.24 kcal/mol
DOCKED: USER        vdW + Hbond + desolv Energy     =  -13.24 kcal/mol
DOCKED: USER        Electrostatic Energy            =   +0.00 kcal/mol
DOCKED: USER    (2) Final Total Internal Energy     =   -0.68 kcal/mol
DOCKED: USER    (3) Torsional Free Energy           =   +1.79 kcal/mol
DOCKED: USER    (4) Unbound System's Energy  [=(2)] =   -0.68 kcal/mol
DOCKED: USER    
DOCKED: USER    
DOCKED: USER    NEWDPF move ligand.dum.pdbqt
DOCKED: USER    NEWDPF about -0.023000 0.069000 -0.054000
DOCKED: USER    NEWDPF tran0 39.134975 16.161271 121.723925
DOCKED: USER    NEWDPF quaternion0 -0.290964 -0.231817 -0.922295 -0.104754
DOCKED: USER    NEWDPF axisangle0 -0.292573 -0.233100 -0.927397 -167.974038
DOCKED: USER    NEWDPF quat0 -0.292573 -0.233100 -0.927397 -167.974038
DOCKED: USER    NEWDPF dihe0 -121.40 -110.23 128.92 23.24 0.72 165.00 
DOCKED: USER  keepresnum = 1 
DOCKED: USER  
DOCKED: REMARK  Name = 
DOCKED: REMARK  6 active torsions:
DOCKED: REMARK  status: ('A' for Active; 'I' for Inactive)
DOCKED: REMARK    1  A    between atoms: C_2  and  C_5
DOCKED: REMARK    2  A    between atoms: C_5  and  C_6
DOCKED: REMARK    3  A    between atoms: C_6  and  C_7
DOCKED: REMARK    4  A    between atoms: C_7  and  C_8
DOCKED: REMARK    5  A    between atoms: C_8  and  C_9
DOCKED: REMARK    6  A    between atoms: C_9  and  N_10
DOCKED: REMARK                            x       y       z     vdW  Elec       q    Type
DOCKED: REMARK                         _______ _______ _______ _____ _____    ______ ____
DOCKED: USER                              x       y       z     vdW  Elec       q    Type
DOCKED: USER                           _______ _______ _______ _____ _____    ______ ____
DOCKED: ROOT
DOCKED: ATOM      1  N   UNL     1      39.803  15.547 121.576 -0.27 -0.00    +0.000 N 
DOCKED: ATOM      2  C   UNL     1      39.685  15.850 120.173 -0.19 -0.00    +0.000 C 
DOCKED: ATOM      3  C   UNL     1      40.886  16.228 119.393 -0.12 -0.00    +0.000 A 
DOCKED: ATOM      4  C   UNL     1      40.789  16.496 118.017 -0.12 -0.00    +0.000 A 
DOCKED: ATOM      5  C   UNL     1      41.920  16.853 117.282 -0.13 -0.00    +0.000 A 
DOCKED: ATOM      6  C   UNL     1      43.164  16.949 117.905 -0.12 -0.00    +0.000 A 
DOCKED: ATOM      7  C   UNL     1      43.287  16.688 119.278 -0.14 -0.00    +0.000 A 
DOCKED: ATOM      8  C   UNL     1      44.536  16.787 119.905 -0.15 -0.00    +0.000 A 
DOCKED: ATOM      9  C   UNL     1      44.659  16.530 121.271 -0.23 -0.00    +0.000 A 
DOCKED: ATOM     10  C   UNL     1      43.539  16.171 122.023 -0.23 -0.00    +0.000 A 
DOCKED: ATOM     11  C   UNL     1      42.274  16.064 121.417 -0.28 -0.00    +0.000 A 
DOCKED: ATOM     12  C   UNL     1      42.143  16.323 120.034 -0.16 -0.00    +0.000 A 
DOCKED: ATOM     13  O   UNL     1      38.558  15.796 119.607 -0.17 -0.00    +0.000 OA
DOCKED: ATOM     14  C   UNL     1      41.087  15.684 122.215 -0.42 -0.00    +0.000 C 
DOCKED: ATOM     15  O   UNL     1      41.201  15.483 123.456 -0.86 +0.00    +0.000 OA
DOCKED: ATOM     16  CM  UNL     1      40.948  15.939 120.822 +0.00 -0.00    +0.000 AC
DOCKED: ATOM     17  CM  UNL     1      42.032  16.590 118.651 +0.00 -0.00    +0.000 AC
DOCKED: ATOM     18  CM  UNL     1      43.407  16.427 120.655 +0.00 -0.00    +0.000 AC
DOCKED: ENDROOT
DOCKED: BRANCH   1  16
DOCKED: ATOM     19  C   UNL     1      38.612  15.206 122.367 -0.37 -0.00    +0.000 C 
DOCKED: BRANCH  16  17
DOCKED: ATOM     20  C   UNL     1      38.189  13.760 122.090 -0.46 -0.00    +0.000 C 
DOCKED: BRANCH  17  18
DOCKED: ATOM     21  C   UNL     1      36.938  13.387 122.893 -0.56 -0.00    +0.000 C 
DOCKED: BRANCH  18  19
DOCKED: ATOM     22  C   UNL     1      36.845  11.867 123.091 -0.67 -0.00    +0.000 C 
DOCKED: BRANCH  19  20
DOCKED: ATOM     23  C   UNL     1      37.070  11.094 121.784 -0.53 -0.00    +0.000 C 
DOCKED: BRANCH  20  22
DOCKED: ATOM     24  O   UNL     1      36.697   8.868 120.999 -2.61 -0.00    +0.000 OA
DOCKED: ATOM     25  C   UNL     1      36.950   9.611 121.985 -0.63 -0.00    +0.000 C 
DOCKED: ATOM     26  N   UNL     1      37.152   9.038 123.279 -0.59 -0.00    +0.000 N 
DOCKED: ATOM     27  O   UNL     1      37.060   7.700 123.456 -2.68 -0.00    +0.000 OA
DOCKED: ATOM     28  H   UNL     1      37.361   9.620 124.045 -0.55 -0.00    +0.000 HD
DOCKED: ENDBRANCH  20  22
DOCKED: ENDBRANCH  19  20
DOCKED: ENDBRANCH  18  19
DOCKED: ENDBRANCH  17  18
DOCKED: ENDBRANCH  16  17
DOCKED: ENDBRANCH   1  16
DOCKED: TORSDOF 6DOCKED: TER
DOCKED: ENDMDL
________________________________________________________________________________


	BEGINNING GENETIC ALGORITHM DOCKING 97 of 100
Run: 97 Seed: 1188379395 1849039324 [ Run 97 of 100 GA/GALS ]
Beginning LAMARCKIAN GENETIC ALGORITHM (LGA), with a maximum of 2500000 energy evaluations.

Final-Value: -13.947


	FINAL GENETIC ALGORITHM DOCKED STATE
	_______________________________________________


Detailed state:  trans 37.918 15.011 120.830 quatxyzw -0.437032 0.598585 -0.544581 0.392595 center -0.023 0.069 -0.054 ntor 6 -142.6726 -87.8510 138.3439 -30.8914 40.5912 -17.0678
State:	 37.918  15.011 120.830  -0.475  0.651 -0.592 133.768   -142.67  -87.85  138.34  -30.89   40.59  -17.07

DOCKED: MODEL       97
DOCKED: USER    Run = 97
DOCKED: USER    DPF = ligand_dock.biased.dpf
DOCKED: USER  
DOCKED: USER    Estimated Free Energy of Binding    =  -11.18 kcal/mol  [=(1)+(2)+(3)-(4)]
DOCKED: USER    Estimated Inhibition Constant, Ki   =    6.38 nM (nanomolar)  [Temperature = 298.15 K]
DOCKED: USER    
DOCKED: USER    (1) Final Intermolecular Energy     =  -12.97 kcal/mol
DOCKED: USER        vdW + Hbond + desolv Energy     =  -12.97 kcal/mol
DOCKED: USER        Electrostatic Energy            =   +0.00 kcal/mol
DOCKED: USER    (2) Final Total Internal Energy     =   -0.98 kcal/mol
DOCKED: USER    (3) Torsional Free Energy           =   +1.79 kcal/mol
DOCKED: USER    (4) Unbound System's Energy  [=(2)] =   -0.98 kcal/mol
DOCKED: USER    
DOCKED: USER    
DOCKED: USER    NEWDPF move ligand.dum.pdbqt
DOCKED: USER    NEWDPF about -0.023000 0.069000 -0.054000
DOCKED: USER    NEWDPF tran0 37.918392 15.011359 120.829824
DOCKED: USER    NEWDPF quaternion0 -0.437032 0.598585 -0.544581 0.392595
DOCKED: USER    NEWDPF axisangle0 -0.475183 0.650840 -0.592122 133.767865
DOCKED: USER    NEWDPF quat0 -0.475183 0.650840 -0.592122 133.767865
DOCKED: USER    NEWDPF dihe0 -142.67 -87.85 138.34 -30.89 40.59 -17.07 
DOCKED: USER  keepresnum = 1 
DOCKED: USER  
DOCKED: REMARK  Name = 
DOCKED: REMARK  6 active torsions:
DOCKED: REMARK  status: ('A' for Active; 'I' for Inactive)
DOCKED: REMARK    1  A    between atoms: C_2  and  C_5
DOCKED: REMARK    2  A    between atoms: C_5  and  C_6
DOCKED: REMARK    3  A    between atoms: C_6  and  C_7
DOCKED: REMARK    4  A    between atoms: C_7  and  C_8
DOCKED: REMARK    5  A    between atoms: C_8  and  C_9
DOCKED: REMARK    6  A    between atoms: C_9  and  N_10
DOCKED: REMARK                            x       y       z     vdW  Elec       q    Type
DOCKED: REMARK                         _______ _______ _______ _____ _____    ______ ____
DOCKED: USER                              x       y       z     vdW  Elec       q    Type
DOCKED: USER                           _______ _______ _______ _____ _____    ______ ____
DOCKED: ROOT
DOCKED: ATOM      1  N   UNL     1      37.435  15.166 120.063 -0.22 -0.00    +0.000 N 
DOCKED: ATOM      2  C   UNL     1      38.437  16.136 119.703 -0.15 -0.00    +0.000 C 
DOCKED: ATOM      3  C   UNL     1      39.097  16.063 118.379 -0.12 -0.00    +0.000 A 
DOCKED: ATOM      4  C   UNL     1      40.054  17.023 118.004 -0.08 -0.00    +0.000 A 
DOCKED: ATOM      5  C   UNL     1      40.677  16.954 116.757 -0.10 -0.00    +0.000 A 
DOCKED: ATOM      6  C   UNL     1      40.358  15.930 115.866 -0.22 -0.00    +0.000 A 
DOCKED: ATOM      7  C   UNL     1      39.408  14.960 116.217 -0.26 -0.00    +0.000 A 
DOCKED: ATOM      8  C   UNL     1      39.089  13.929 115.322 -0.40 -0.00    +0.000 A 
DOCKED: ATOM      9  C   UNL     1      38.146  12.962 115.672 -0.45 -0.00    +0.000 A 
DOCKED: ATOM     10  C   UNL     1      37.512  13.014 116.915 -0.31 -0.00    +0.000 A 
DOCKED: ATOM     11  C   UNL     1      37.814  14.039 117.829 -0.29 -0.00    +0.000 A 
DOCKED: ATOM     12  C   UNL     1      38.768  15.022 117.482 -0.14 -0.00    +0.000 A 
DOCKED: ATOM     13  O   UNL     1      38.754  17.048 120.515 -0.09 -0.00    +0.000 OA
DOCKED: ATOM     14  C   UNL     1      37.141  14.093 119.147 -0.36 -0.00    +0.000 C 
DOCKED: ATOM     15  O   UNL     1      36.312  13.197 119.468 -0.40 -0.00    +0.000 OA
DOCKED: ATOM     16  CM  UNL     1      38.097  15.089 118.802 +0.00 -0.00    +0.000 AC
DOCKED: ATOM     17  CM  UNL     1      39.727  15.992 117.117 +0.00 -0.00    +0.000 AC
DOCKED: ATOM     18  CM  UNL     1      38.456  13.987 116.573 +0.00 -0.00    +0.000 AC
DOCKED: ENDROOT
DOCKED: BRANCH   1  16
DOCKED: ATOM     19  C   UNL     1      36.800  15.208 121.387 -0.20 -0.00    +0.000 C 
DOCKED: BRANCH  16  17
DOCKED: ATOM     20  C   UNL     1      37.363  14.097 122.279 -0.46 -0.00    +0.000 C 
DOCKED: BRANCH  17  18
DOCKED: ATOM     21  C   UNL     1      36.255  13.442 123.112 -0.55 -0.00    +0.000 C 
DOCKED: BRANCH  18  19
DOCKED: ATOM     22  C   UNL     1      36.575  11.966 123.389 -0.69 -0.00    +0.000 C 
DOCKED: BRANCH  19  20
DOCKED: ATOM     23  C   UNL     1      37.224  11.274 122.182 -0.39 -0.00    +0.000 C 
DOCKED: BRANCH  20  22
DOCKED: ATOM     24  O   UNL     1      36.711   9.176 121.159 -2.63 -0.00    +0.000 OA
DOCKED: ATOM     25  C   UNL     1      37.021   9.787 122.216 -0.60 -0.00    +0.000 C 
DOCKED: ATOM     26  N   UNL     1      37.211   9.060 123.432 -0.53 -0.00    +0.000 N 
DOCKED: ATOM     27  O   UNL     1      37.045   7.717 123.459 -2.69 -0.00    +0.000 OA
DOCKED: ATOM     28  H   UNL     1      37.464   9.538 124.254 -0.64 -0.00    +0.000 HD
DOCKED: ENDBRANCH  20  22
DOCKED: ENDBRANCH  19  20
DOCKED: ENDBRANCH  18  19
DOCKED: ENDBRANCH  17  18
DOCKED: ENDBRANCH  16  17
DOCKED: ENDBRANCH   1  16
DOCKED: TORSDOF 6DOCKED: TER
DOCKED: ENDMDL
________________________________________________________________________________


	BEGINNING GENETIC ALGORITHM DOCKING 98 of 100
Run: 98 Seed: 232180310 69957353 [ Run 98 of 100 GA/GALS ]
Beginning LAMARCKIAN GENETIC ALGORITHM (LGA), with a maximum of 2500000 energy evaluations.

Final-Value: -14.522


	FINAL GENETIC ALGORITHM DOCKED STATE
	_______________________________________________


Detailed state:  trans 37.249 15.082 122.368 quatxyzw -0.715926 0.288704 0.551959 0.315344 center -0.023 0.069 -0.054 ntor 6 121.3264 -55.1576 96.2577 -157.2749 40.0598 11.1846
State:	 37.249  15.082 122.368  -0.754  0.304  0.582 143.237    121.33  -55.16   96.26 -157.27   40.06   11.18

DOCKED: MODEL       98
DOCKED: USER    Run = 98
DOCKED: USER    DPF = ligand_dock.biased.dpf
DOCKED: USER  
DOCKED: USER    Estimated Free Energy of Binding    =  -12.10 kcal/mol  [=(1)+(2)+(3)-(4)]
DOCKED: USER    Estimated Inhibition Constant, Ki   =    1.36 nM (nanomolar)  [Temperature = 298.15 K]
DOCKED: USER    
DOCKED: USER    (1) Final Intermolecular Energy     =  -13.89 kcal/mol
DOCKED: USER        vdW + Hbond + desolv Energy     =  -13.89 kcal/mol
DOCKED: USER        Electrostatic Energy            =   +0.00 kcal/mol
DOCKED: USER    (2) Final Total Internal Energy     =   -0.64 kcal/mol
DOCKED: USER    (3) Torsional Free Energy           =   +1.79 kcal/mol
DOCKED: USER    (4) Unbound System's Energy  [=(2)] =   -0.64 kcal/mol
DOCKED: USER    
DOCKED: USER    
DOCKED: USER    NEWDPF move ligand.dum.pdbqt
DOCKED: USER    NEWDPF about -0.023000 0.069000 -0.054000
DOCKED: USER    NEWDPF tran0 37.249337 15.082169 122.367616
DOCKED: USER    NEWDPF quaternion0 -0.715926 0.288704 0.551959 0.315344
DOCKED: USER    NEWDPF axisangle0 -0.754418 0.304226 0.581636 143.236820
DOCKED: USER    NEWDPF quat0 -0.754418 0.304226 0.581636 143.236820
DOCKED: USER    NEWDPF dihe0 121.33 -55.16 96.26 -157.27 40.06 11.18 
DOCKED: USER  keepresnum = 1 
DOCKED: USER  
DOCKED: REMARK  Name = 
DOCKED: REMARK  6 active torsions:
DOCKED: REMARK  status: ('A' for Active; 'I' for Inactive)
DOCKED: REMARK    1  A    between atoms: C_2  and  C_5
DOCKED: REMARK    2  A    between atoms: C_5  and  C_6
DOCKED: REMARK    3  A    between atoms: C_6  and  C_7
DOCKED: REMARK    4  A    between atoms: C_7  and  C_8
DOCKED: REMARK    5  A    between atoms: C_8  and  C_9
DOCKED: REMARK    6  A    between atoms: C_9  and  N_10
DOCKED: REMARK                            x       y       z     vdW  Elec       q    Type
DOCKED: REMARK                         _______ _______ _______ _____ _____    ______ ____
DOCKED: USER                              x       y       z     vdW  Elec       q    Type
DOCKED: USER                           _______ _______ _______ _____ _____    ______ ____
DOCKED: ROOT
DOCKED: ATOM      1  N   UNL     1      37.150  15.099 123.282 -0.39 -0.00    +0.000 N 
DOCKED: ATOM      2  C   UNL     1      37.935  16.306 123.282 -0.29 -0.00    +0.000 C 
DOCKED: ATOM      3  C   UNL     1      37.424  17.523 123.954 -0.20 -0.00    +0.000 A 
DOCKED: ATOM      4  C   UNL     1      38.194  18.698 123.987 -0.14 -0.00    +0.000 A 
DOCKED: ATOM      5  C   UNL     1      37.713  19.845 124.620 -0.09 -0.00    +0.000 A 
DOCKED: ATOM      6  C   UNL     1      36.457  19.839 125.227 -0.13 -0.00    +0.000 A 
DOCKED: ATOM      7  C   UNL     1      35.668  18.680 125.206 -0.21 -0.00    +0.000 A 
DOCKED: ATOM      8  C   UNL     1      34.406  18.675 125.814 -0.26 -0.00    +0.000 A 
DOCKED: ATOM      9  C   UNL     1      33.619  17.523 125.791 -0.30 -0.00    +0.000 A 
DOCKED: ATOM     10  C   UNL     1      34.084  16.366 125.164 -0.44 -0.00    +0.000 A 
DOCKED: ATOM     11  C   UNL     1      35.348  16.345 124.547 -0.36 -0.00    +0.000 A 
DOCKED: ATOM     12  C   UNL     1      36.150  17.508 124.566 -0.24 -0.00    +0.000 A 
DOCKED: ATOM     13  O   UNL     1      39.059  16.329 122.708 -0.27 -0.00    +0.000 OA
DOCKED: ATOM     14  C   UNL     1      35.840  15.117 123.882 -0.50 -0.00    +0.000 C 
DOCKED: ATOM     15  O   UNL     1      35.110  14.088 123.838 -0.64 -0.00    +0.000 OA
DOCKED: ATOM     16  CM  UNL     1      36.655  16.284 123.902 -0.00 -0.00    +0.000 AC
DOCKED: ATOM     17  CM  UNL     1      36.935  18.682 124.594 -0.01 -0.00    +0.000 AC
DOCKED: ATOM     18  CM  UNL     1      34.879  17.516 125.182 -0.45 -0.00    +0.000 AC
DOCKED: ENDROOT
DOCKED: BRANCH   1  16
DOCKED: ATOM     19  C   UNL     1      37.632  13.897 122.587 -0.50 -0.00    +0.000 C 
DOCKED: BRANCH  16  17
DOCKED: ATOM     20  C   UNL     1      37.444  14.049 121.074 -0.39 -0.00    +0.000 C 
DOCKED: BRANCH  17  18
DOCKED: ATOM     21  C   UNL     1      36.972  12.735 120.442 -0.46 -0.00    +0.000 C 
DOCKED: BRANCH  18  19
DOCKED: ATOM     22  C   UNL     1      36.286  11.839 121.483 -0.44 -0.00    +0.000 C 
DOCKED: BRANCH  19  20
DOCKED: ATOM     23  C   UNL     1      37.297  11.070 122.346 -0.26 -0.00    +0.000 C 
DOCKED: BRANCH  20  22
DOCKED: ATOM     24  O   UNL     1      36.779   9.046 121.187 -2.64 -0.00    +0.000 OA
DOCKED: ATOM     25  C   UNL     1      37.066   9.588 122.288 -0.60 -0.00    +0.000 C 
DOCKED: ATOM     26  N   UNL     1      37.202   8.787 123.464 -0.58 -0.00    +0.000 N 
DOCKED: ATOM     27  O   UNL     1      37.011   7.449 123.407 -2.46 -0.00    +0.000 OA
DOCKED: ATOM     28  H   UNL     1      37.437   9.212 124.320 -0.64 -0.00    +0.000 HD
DOCKED: ENDBRANCH  20  22
DOCKED: ENDBRANCH  19  20
DOCKED: ENDBRANCH  18  19
DOCKED: ENDBRANCH  17  18
DOCKED: ENDBRANCH  16  17
DOCKED: ENDBRANCH   1  16
DOCKED: TORSDOF 6DOCKED: TER
DOCKED: ENDMDL
________________________________________________________________________________


	BEGINNING GENETIC ALGORITHM DOCKING 99 of 100
Run: 99 Seed: 995706651 1337084319 [ Run 99 of 100 GA/GALS ]
Beginning LAMARCKIAN GENETIC ALGORITHM (LGA), with a maximum of 2500000 energy evaluations.

Final-Value: -13.962


	FINAL GENETIC ALGORITHM DOCKED STATE
	_______________________________________________


Detailed state:  trans 38.286 15.529 120.399 quatxyzw 0.621559 -0.474419 -0.615343 0.099722 center -0.023 0.069 -0.054 ntor 6 -58.7201 177.4333 -157.3054 -31.4425 159.6610 178.5291
State:	 38.286  15.529 120.399   0.625 -0.477 -0.618 168.554    -58.72  177.43 -157.31  -31.44  159.66  178.53

DOCKED: MODEL       99
DOCKED: USER    Run = 99
DOCKED: USER    DPF = ligand_dock.biased.dpf
DOCKED: USER  
DOCKED: USER    Estimated Free Energy of Binding    =  -11.22 kcal/mol  [=(1)+(2)+(3)-(4)]
DOCKED: USER    Estimated Inhibition Constant, Ki   =    5.92 nM (nanomolar)  [Temperature = 298.15 K]
DOCKED: USER    
DOCKED: USER    (1) Final Intermolecular Energy     =  -13.01 kcal/mol
DOCKED: USER        vdW + Hbond + desolv Energy     =  -13.01 kcal/mol
DOCKED: USER        Electrostatic Energy            =   +0.00 kcal/mol
DOCKED: USER    (2) Final Total Internal Energy     =   -0.95 kcal/mol
DOCKED: USER    (3) Torsional Free Energy           =   +1.79 kcal/mol
DOCKED: USER    (4) Unbound System's Energy  [=(2)] =   -0.95 kcal/mol
DOCKED: USER    
DOCKED: USER    
DOCKED: USER    NEWDPF move ligand.dum.pdbqt
DOCKED: USER    NEWDPF about -0.023000 0.069000 -0.054000
DOCKED: USER    NEWDPF tran0 38.286432 15.529289 120.399193
DOCKED: USER    NEWDPF quaternion0 0.621559 -0.474419 -0.615343 0.099722
DOCKED: USER    NEWDPF axisangle0 0.624673 -0.476796 -0.618425 168.553676
DOCKED: USER    NEWDPF quat0 0.624673 -0.476796 -0.618425 168.553676
DOCKED: USER    NEWDPF dihe0 -58.72 177.43 -157.31 -31.44 159.66 178.53 
DOCKED: USER  keepresnum = 1 
DOCKED: USER  
DOCKED: REMARK  Name = 
DOCKED: REMARK  6 active torsions:
DOCKED: REMARK  status: ('A' for Active; 'I' for Inactive)
DOCKED: REMARK    1  A    between atoms: C_2  and  C_5
DOCKED: REMARK    2  A    between atoms: C_5  and  C_6
DOCKED: REMARK    3  A    between atoms: C_6  and  C_7
DOCKED: REMARK    4  A    between atoms: C_7  and  C_8
DOCKED: REMARK    5  A    between atoms: C_8  and  C_9
DOCKED: REMARK    6  A    between atoms: C_9  and  N_10
DOCKED: REMARK                            x       y       z     vdW  Elec       q    Type
DOCKED: REMARK                         _______ _______ _______ _____ _____    ______ ____
DOCKED: USER                              x       y       z     vdW  Elec       q    Type
DOCKED: USER                           _______ _______ _______ _____ _____    ______ ____
DOCKED: ROOT
DOCKED: ATOM      1  N   UNL     1      37.965  15.377 121.247 -0.23 -0.00    +0.000 N 
DOCKED: ATOM      2  C   UNL     1      39.320  15.503 121.716 -0.31 -0.00    +0.000 C 
DOCKED: ATOM      3  C   UNL     1      39.640  16.444 122.815 -0.24 -0.00    +0.000 A 
DOCKED: ATOM      4  C   UNL     1      40.954  16.553 123.302 -0.27 -0.00    +0.000 A 
DOCKED: ATOM      5  C   UNL     1      41.255  17.440 124.337 -0.27 -0.00    +0.000 A 
DOCKED: ATOM      6  C   UNL     1      40.255  18.231 124.900 -0.27 -0.00    +0.000 A 
DOCKED: ATOM      7  C   UNL     1      38.936  18.141 124.431 -0.19 -0.00    +0.000 A 
DOCKED: ATOM      8  C   UNL     1      37.931  18.938 124.996 -0.15 -0.00    +0.000 A 
DOCKED: ATOM      9  C   UNL     1      36.620  18.852 124.527 -0.17 -0.00    +0.000 A 
DOCKED: ATOM     10  C   UNL     1      36.298  17.970 123.493 -0.21 -0.00    +0.000 A 
DOCKED: ATOM     11  C   UNL     1      37.289  17.159 122.911 -0.19 -0.00    +0.000 A 
DOCKED: ATOM     12  C   UNL     1      38.619  17.242 123.380 -0.21 -0.00    +0.000 A 
DOCKED: ATOM     13  O   UNL     1      40.238  14.814 121.191 -0.49 -0.00    +0.000 OA
DOCKED: ATOM     14  C   UNL     1      36.947  16.225 121.814 -0.24 -0.00    +0.000 C 
DOCKED: ATOM     15  O   UNL     1      35.765  16.175 121.375 -0.16 -0.00    +0.000 OA
DOCKED: ATOM     16  CM  UNL     1      38.288  16.300 122.285 +0.00 -0.00    +0.000 AC
DOCKED: ATOM     17  CM  UNL     1      39.943  17.342 123.861 +0.00 -0.00    +0.000 AC
DOCKED: ATOM     18  CM  UNL     1      37.615  18.051 123.956 +0.00 -0.00    +0.000 AC
DOCKED: ENDROOT
DOCKED: BRANCH   1  16
DOCKED: ATOM     19  C   UNL     1      37.643  14.473 120.134 -0.32 -0.00    +0.000 C 
DOCKED: BRANCH  16  17
DOCKED: ATOM     20  C   UNL     1      37.279  13.084 120.667 -0.47 -0.00    +0.000 C 
DOCKED: BRANCH  17  18
DOCKED: ATOM     21  C   UNL     1      37.823  12.878 122.086 -0.42 -0.00    +0.000 C 
DOCKED: BRANCH  18  19
DOCKED: ATOM     22  C   UNL     1      36.907  11.947 122.895 -0.65 -0.00    +0.000 C 
DOCKED: BRANCH  19  20
DOCKED: ATOM     23  C   UNL     1      36.108  10.993 121.997 -0.58 -0.00    +0.000 C 
DOCKED: BRANCH  20  22
DOCKED: ATOM     24  O   UNL     1      36.692   8.865 121.080 -2.61 -0.00    +0.000 OA
DOCKED: ATOM     25  C   UNL     1      36.596   9.578 122.114 -0.68 -0.00    +0.000 C 
DOCKED: ATOM     26  N   UNL     1      36.983   9.049 123.385 -0.59 -0.00    +0.000 N 
DOCKED: ATOM     27  O   UNL     1      37.439   7.779 123.488 -2.56 -0.00    +0.000 OA
DOCKED: ATOM     28  H   UNL     1      36.918   9.612 124.190 -0.54 -0.00    +0.000 HD
DOCKED: ENDBRANCH  20  22
DOCKED: ENDBRANCH  19  20
DOCKED: ENDBRANCH  18  19
DOCKED: ENDBRANCH  17  18
DOCKED: ENDBRANCH  16  17
DOCKED: ENDBRANCH   1  16
DOCKED: TORSDOF 6DOCKED: TER
DOCKED: ENDMDL
________________________________________________________________________________


	BEGINNING GENETIC ALGORITHM DOCKING 100 of 100
Run: 100 Seed: 268986111 1090220653 [ Run 100 of 100 GA/GALS ]
Beginning LAMARCKIAN GENETIC ALGORITHM (LGA), with a maximum of 2500000 energy evaluations.

Final-Value: -13.294


	FINAL GENETIC ALGORITHM DOCKED STATE
	_______________________________________________


Detailed state:  trans 37.496 14.503 122.380 quatxyzw 0.656658 -0.321835 -0.515148 -0.447041 center -0.023 0.069 -0.054 ntor 6 -172.6722 23.7192 69.7601 163.1979 80.5214 -0.1342
State:	 37.496  14.503 122.380   0.734 -0.360 -0.576 -126.892   -172.67   23.72   69.76  163.20   80.52   -0.13

DOCKED: MODEL      100
DOCKED: USER    Run = 100
DOCKED: USER    DPF = ligand_dock.biased.dpf
DOCKED: USER  
DOCKED: USER    Estimated Free Energy of Binding    =  -10.60 kcal/mol  [=(1)+(2)+(3)-(4)]
DOCKED: USER    Estimated Inhibition Constant, Ki   =   17.05 nM (nanomolar)  [Temperature = 298.15 K]
DOCKED: USER    
DOCKED: USER    (1) Final Intermolecular Energy     =  -12.39 kcal/mol
DOCKED: USER        vdW + Hbond + desolv Energy     =  -12.39 kcal/mol
DOCKED: USER        Electrostatic Energy            =   +0.00 kcal/mol
DOCKED: USER    (2) Final Total Internal Energy     =   -0.91 kcal/mol
DOCKED: USER    (3) Torsional Free Energy           =   +1.79 kcal/mol
DOCKED: USER    (4) Unbound System's Energy  [=(2)] =   -0.91 kcal/mol
DOCKED: USER    
DOCKED: USER    
DOCKED: USER    NEWDPF move ligand.dum.pdbqt
DOCKED: USER    NEWDPF about -0.023000 0.069000 -0.054000
DOCKED: USER    NEWDPF tran0 37.496203 14.503277 122.380035
DOCKED: USER    NEWDPF quaternion0 0.656658 -0.321835 -0.515148 -0.447041
DOCKED: USER    NEWDPF axisangle0 0.734095 -0.359788 -0.575897 -126.891967
DOCKED: USER    NEWDPF quat0 0.734095 -0.359788 -0.575897 -126.891967
DOCKED: USER    NEWDPF dihe0 -172.67 23.72 69.76 163.20 80.52 -0.13 
DOCKED: USER  keepresnum = 1 
DOCKED: USER  
DOCKED: REMARK  Name = 
DOCKED: REMARK  6 active torsions:
DOCKED: REMARK  status: ('A' for Active; 'I' for Inactive)
DOCKED: REMARK    1  A    between atoms: C_2  and  C_5
DOCKED: REMARK    2  A    between atoms: C_5  and  C_6
DOCKED: REMARK    3  A    between atoms: C_6  and  C_7
DOCKED: REMARK    4  A    between atoms: C_7  and  C_8
DOCKED: REMARK    5  A    between atoms: C_8  and  C_9
DOCKED: REMARK    6  A    between atoms: C_9  and  N_10
DOCKED: REMARK                            x       y       z     vdW  Elec       q    Type
DOCKED: REMARK                         _______ _______ _______ _____ _____    ______ ____
DOCKED: USER                              x       y       z     vdW  Elec       q    Type
DOCKED: USER                           _______ _______ _______ _____ _____    ______ ____
DOCKED: ROOT
DOCKED: ATOM      1  N   UNL     1      37.446  14.771 123.259 -0.41 -0.00    +0.000 N 
DOCKED: ATOM      2  C   UNL     1      38.111  15.984 122.861 -0.31 -0.00    +0.000 C 
DOCKED: ATOM      3  C   UNL     1      37.523  17.299 123.207 -0.19 -0.00    +0.000 A 
DOCKED: ATOM      4  C   UNL     1      38.179  18.491 122.852 -0.10 -0.00    +0.000 A 
DOCKED: ATOM      5  C   UNL     1      37.625  19.730 123.178 -0.09 -0.00    +0.000 A 
DOCKED: ATOM      6  C   UNL     1      36.411  19.801 123.860 -0.16 -0.00    +0.000 A 
DOCKED: ATOM      7  C   UNL     1      35.737  18.626 124.225 -0.22 -0.00    +0.000 A 
DOCKED: ATOM      8  C   UNL     1      34.515  18.698 124.909 -0.27 -0.00    +0.000 A 
DOCKED: ATOM      9  C   UNL     1      33.842  17.530 125.268 -0.34 -0.00    +0.000 A 
DOCKED: ATOM     10  C   UNL     1      34.381  16.281 124.952 -0.46 -0.00    +0.000 A 
DOCKED: ATOM     11  C   UNL     1      35.605  16.183 124.268 -0.37 -0.00    +0.000 A 
DOCKED: ATOM     12  C   UNL     1      36.292  17.362 123.899 -0.25 -0.00    +0.000 A 
DOCKED: ATOM     13  O   UNL     1      39.195  15.930 122.216 -0.27 -0.00    +0.000 OA
DOCKED: ATOM     14  C   UNL     1      36.175  14.858 123.932 -0.46 -0.00    +0.000 C 
DOCKED: ATOM     15  O   UNL     1      35.546  13.807 124.234 -0.62 -0.00    +0.000 OA
DOCKED: ATOM     16  CM  UNL     1      36.875  16.041 123.562 +0.00 -0.00    +0.000 AC
DOCKED: ATOM     17  CM  UNL     1      36.961  18.552 123.537 -0.00 -0.00    +0.000 AC
DOCKED: ATOM     18  CM  UNL     1      35.062  17.447 124.587 -0.39 -0.00    +0.000 AC
DOCKED: ENDROOT
DOCKED: BRANCH   1  16
DOCKED: ATOM     19  C   UNL     1      38.002  13.461 122.889 -0.47 -0.00    +0.000 C 
DOCKED: BRANCH  16  17
DOCKED: ATOM     20  C   UNL     1      37.484  13.037 121.511 -0.49 -0.00    +0.000 C 
DOCKED: BRANCH  17  18
DOCKED: ATOM     21  C   UNL     1      36.324  12.043 121.639 -0.48 -0.00    +0.000 C 
DOCKED: BRANCH  18  19
DOCKED: ATOM     22  C   UNL     1      36.269  11.442 123.052 -0.70 -0.00    +0.000 C 
DOCKED: BRANCH  19  20
DOCKED: ATOM     23  C   UNL     1      36.734   9.980 123.080 -0.66 -0.00    +0.000 C 
DOCKED: BRANCH  20  22
DOCKED: ATOM     24  O   UNL     1      36.867   8.841 120.984 -2.66 -0.00    +0.000 OA
DOCKED: ATOM     25  C   UNL     1      36.140   9.184 121.954 -0.65 -0.00    +0.000 C 
DOCKED: ATOM     26  N   UNL     1      34.768   8.788 121.994 -0.58 -0.00    +0.000 N 
DOCKED: ATOM     27  O   UNL     1      34.237   8.056 120.987 -0.63 -0.00    +0.000 OA
DOCKED: ATOM     28  H   UNL     1      34.205   9.047 122.759 -0.17 -0.00    +0.000 HD
DOCKED: ENDBRANCH  20  22
DOCKED: ENDBRANCH  19  20
DOCKED: ENDBRANCH  18  19
DOCKED: ENDBRANCH  17  18
DOCKED: ENDBRANCH  16  17
DOCKED: ENDBRANCH   1  16
DOCKED: TORSDOF 6DOCKED: TER
DOCKED: ENDMDL
________________________________________________________________________________

DPF> analysis                             # perform a ranked cluster analysis


		CLUSTER ANALYSIS OF CONFORMATIONS
		_________________________________

Number of conformations = 100

RMSD cluster analysis will be performed using the ligand atoms only (28 / 28 total atoms).

Outputting structurally similar clusters, ranked in order of increasing energy.


________________________________________________________________________________

Number of distinct conformational clusters found = 8,  out of 100 runs,
Using an rmsd-tolerance of 2.0 A


	CLUSTERING HISTOGRAM
	____________________

________________________________________________________________________________
     |           |     |           |     |                                    
Clus | Lowest    | Run | Mean      | Num | Histogram                          
-ter | Binding   |     | Binding   | in  |                                    
Rank | Energy    |     | Energy    | Clus|    5    10   15   20   25   30   35
_____|___________|_____|___________|_____|____:____|____:____|____:____|____:___
   1 |    -12.72 |  13 |    -11.90 |  43 |###########################################
   2 |    -12.67 |  85 |    -11.72 |  23 |#######################
   3 |    -12.43 |  83 |    -12.43 |   1 |#
   4 |    -11.70 |  90 |    -11.16 |   9 |#########
   5 |    -11.68 |  49 |    -11.14 |  14 |##############
   6 |    -11.63 |  58 |    -11.13 |   8 |########
   7 |    -11.15 |  56 |    -11.15 |   1 |#
   8 |     -9.55 |  51 |     -9.55 |   1 |#
_____|___________|_____|___________|_____|______________________________________


Number of multi-member conformational clusters found = 5, out of 100 runs.

	RMSD TABLE
	__________

_____________________________________________________________________
     |      |      |           |         |                 |
Rank | Sub- | Run  | Binding   | Cluster | Reference       | Grep
     | Rank |      | Energy    | RMSD    | RMSD            | Pattern
_____|______|______|___________|_________|_________________|___________
   1      1     13      -12.72      0.00    128.63           RANKING
   1      2     43      -12.65      1.60    128.85           RANKING
   1      3     74      -12.64      1.55    128.70           RANKING
   1      4     12      -12.62      0.46    128.58           RANKING
   1      5     72      -12.45      0.93    128.37           RANKING
   1      6     54      -12.44      0.66    128.45           RANKING
   1      7     27      -12.40      0.92    128.29           RANKING
   1      8     39      -12.35      1.44    128.80           RANKING
   1      9     36      -12.30      1.02    128.16           RANKING
   1     10     52      -12.29      0.88    128.54           RANKING
   1     11     33      -12.22      1.06    128.05           RANKING
   1     12     24      -12.19      0.46    128.71           RANKING
   1     13     87      -12.17      1.11    128.34           RANKING
   1     14     89      -12.15      1.44    129.01           RANKING
   1     15     40      -12.12      0.57    128.80           RANKING
   1     16     17      -12.11      0.85    128.26           RANKING
   1     17     11      -12.10      1.27    128.98           RANKING
   1     18     98      -12.10      0.74    128.43           RANKING
   1     19     25      -12.07      1.18    128.27           RANKING
   1     20     82      -11.95      1.20    128.49           RANKING
   1     21     16      -11.94      1.94    128.18           RANKING
   1     22      6      -11.90      1.55    128.32           RANKING
   1     23     41      -11.90      1.80    128.44           RANKING
   1     24      4      -11.90      1.97    128.42           RANKING
   1     25      9      -11.88      0.74    128.94           RANKING
   1     26     18      -11.85      1.17    128.30           RANKING
   1     27     53      -11.83      0.74    128.88           RANKING
   1     28     91      -11.81      0.75    128.78           RANKING
   1     29     81      -11.79      1.23    129.24           RANKING
   1     30      5      -11.78      0.94    128.89           RANKING
   1     31     88      -11.75      0.95    128.41           RANKING
   1     32     64      -11.74      1.75    127.98           RANKING
   1     33     31      -11.61      1.24    128.91           RANKING
   1     34     32      -11.60      1.08    128.85           RANKING
   1     35      1      -11.54      0.84    128.90           RANKING
   1     36     77      -11.43      0.97    128.80           RANKING
   1     37     46      -11.41      1.36    128.39           RANKING
   1     38     68      -11.38      1.51    128.19           RANKING
   1     39     99      -11.22      1.91    128.06           RANKING
   1     40     80      -11.21      1.58    128.15           RANKING
   1     41     42      -11.08      1.78    127.90           RANKING
   1     42    100      -10.60      1.34    127.91           RANKING
   1     43     86      -10.46      1.83    128.67           RANKING
   2      1     85      -12.67      0.00    128.58           RANKING
   2      2     67      -12.64      0.70    128.71           RANKING
   2      3     29      -12.57      0.62    128.67           RANKING
   2      4     37      -12.52      0.47    128.54           RANKING
   2      5     62      -12.52      0.69    128.65           RANKING
   2      6     59      -12.31      0.66    128.70           RANKING
   2      7      7      -12.08      0.94    128.52           RANKING
   2      8     30      -11.98      0.79    128.54           RANKING
   2      9     73      -11.89      0.90    128.66           RANKING
   2     10     35      -11.75      1.22    128.54           RANKING
   2     11     44      -11.68      0.83    128.87           RANKING
   2     12     66      -11.68      1.06    128.14           RANKING
   2     13     34      -11.62      1.10    128.53           RANKING
   2     14     79      -11.61      1.32    128.35           RANKING
   2     15     69      -11.55      1.40    128.53           RANKING
   2     16     21      -11.50      0.74    128.56           RANKING
   2     17      3      -11.42      1.32    128.14           RANKING
   2     18     75      -11.33      0.59    128.67           RANKING
   2     19     45      -11.26      1.42    128.02           RANKING
   2     20     28      -11.25      1.15    128.70           RANKING
   2     21     38      -11.06      1.15    128.59           RANKING
   2     22     50      -10.64      0.97    128.37           RANKING
   2     23     20      -10.01      1.98    127.25           RANKING
   3      1     83      -12.43      0.00    126.33           RANKING
   4      1     90      -11.70      0.00    124.64           RANKING
   4      2     26      -11.65      0.57    124.45           RANKING
   4      3      8      -11.50      0.92    124.00           RANKING
   4      4     14      -11.49      0.58    124.43           RANKING
   4      5     63      -11.40      0.52    124.74           RANKING
   4      6     97      -11.18      0.57    124.87           RANKING
   4      7     15      -10.99      1.36    125.45           RANKING
   4      8     84      -10.80      0.82    124.40           RANKING
   4      9      2       -9.75      0.97    124.70           RANKING
   5      1     49      -11.68      0.00    125.49           RANKING
   5      2     94      -11.61      0.70    125.34           RANKING
   5      3     22      -11.58      0.40    125.33           RANKING
   5      4     19      -11.54      0.57    125.41           RANKING
   5      5     47      -11.47      0.58    125.13           RANKING
   5      6     48      -11.18      1.50    126.26           RANKING
   5      7     61      -11.16      1.81    125.92           RANKING
   5      8     60      -11.02      1.77    126.09           RANKING
   5      9     70      -10.98      1.00    125.25           RANKING
   5     10     23      -10.85      0.89    125.26           RANKING
   5     11     78      -10.83      1.03    125.92           RANKING
   5     12     93      -10.80      1.36    125.49           RANKING
   5     13     10      -10.75      1.34    125.19           RANKING
   5     14     57      -10.45      1.87    123.99           RANKING
   6      1     58      -11.63      0.00    126.90           RANKING
   6      2     96      -11.45      0.80    127.11           RANKING
   6      3     55      -11.33      0.57    126.67           RANKING
   6      4     65      -11.15      0.99    126.87           RANKING
   6      5     71      -11.05      0.88    126.64           RANKING
   6      6     76      -10.89      1.26    127.07           RANKING
   6      7     95      -10.80      1.57    127.20           RANKING
   6      8     92      -10.75      1.13    126.77           RANKING
   7      1     56      -11.15      0.00    127.46           RANKING
   8      1     51       -9.55      0.00    130.36           RANKING
_______________________________________________________________________



	INFORMATION ENTROPY ANALYSIS FOR THIS CLUSTERING
	________________________________________________


Information entropy for this clustering = 0.33  (rmstol = 2.00 Angstrom)

_______________________________________________________________________


	STATISTICAL MECHANICAL ANALYSIS
	_______________________________


Partition function, Q =   101.98            at Temperature, T = 298.15 K
Free energy,        A ~ -2740.07 kcal/mol   at Temperature, T = 298.15 K
Internal energy,    U =   -11.60 kcal/mol   at Temperature, T = 298.15 K
Entropy,            S =     9.15 kcal/mol/K at Temperature, T = 298.15 K

_______________________________________________________________________


	LOWEST ENERGY DOCKED CONFORMATION from EACH CLUSTER
	___________________________________________________



Keeping original residue number (specified in the input PDBQ file) for outputting.

MODEL       13
USER    Run = 13
USER    Cluster Rank = 1
USER    Number of conformations in this cluster = 43
USER  
USER    RMSD from reference structure       = 128.628 A
USER  
USER    Estimated Free Energy of Binding    =  -12.72 kcal/mol  [=(1)+(2)+(3)-(4)]
USER    Estimated Inhibition Constant, Ki   =  471.33 pM (picomolar)  [Temperature = 298.15 K]
USER    
USER    (1) Final Intermolecular Energy     =  -14.51 kcal/mol
USER        vdW + Hbond + desolv Energy     =  -14.51 kcal/mol
USER        Electrostatic Energy            =   +0.00 kcal/mol
USER    (2) Final Total Internal Energy     =   -0.97 kcal/mol
USER    (3) Torsional Free Energy           =   +1.79 kcal/mol
USER    (4) Unbound System's Energy  [=(2)] =   -0.97 kcal/mol
USER    
USER    
USER  
USER    DPF = ligand_dock.biased.dpf
USER    NEWDPF move	ligand.dum.pdbqt
USER    NEWDPF about	-0.023000 0.069000 -0.054000
USER    NEWDPF tran0	36.641599 14.455466 123.410842
USER    NEWDPF axisangle0	-0.535996 0.681781 -0.497879 -91.485467
USER    NEWDPF quaternion0	-0.383887 0.488301 -0.356588 -0.697881
USER    NEWDPF dihe0	-109.10 165.38 -152.97 -113.93 -102.20 -3.04 
USER  
USER                              x       y       z    vdW   Elec        q     RMS 
ATOM      1  N   UNL     1      36.491  15.272 123.014 -0.38 -0.00    +0.000    128.628
ATOM      2  C   UNL     1      35.309  15.378 123.829 -0.54 -0.00    +0.000    128.628
ATOM      3  C   UNL     1      35.089  16.583 124.663 -0.38 -0.00    +0.000    128.628
ATOM      4  C   UNL     1      33.924  16.713 125.438 -0.35 -0.00    +0.000    128.628
ATOM      5  C   UNL     1      33.717  17.847 126.224 -0.33 -0.00    +0.000    128.628
ATOM      6  C   UNL     1      34.667  18.867 126.251 -0.22 -0.00    +0.000    128.628
ATOM      7  C   UNL     1      35.839  18.761 125.488 -0.19 -0.00    +0.000    128.628
ATOM      8  C   UNL     1      36.795  19.786 125.517 -0.12 -0.00    +0.000    128.628
ATOM      9  C   UNL     1      37.962  19.680 124.760 -0.10 -0.00    +0.000    128.628
ATOM     10  C   UNL     1      38.186  18.553 123.967 -0.15 -0.00    +0.000    128.628
ATOM     11  C   UNL     1      37.242  17.512 123.920 -0.20 -0.00    +0.000    128.628
ATOM     12  C   UNL     1      36.058  17.612 124.684 -0.23 -0.00    +0.000    128.628
ATOM     13  O   UNL     1      34.458  14.446 123.834 -0.64 -0.00    +0.000    128.628
ATOM     14  C   UNL     1      37.481  16.317 123.079 -0.30 -0.00    +0.000    128.628
ATOM     15  O   UNL     1      38.553  16.214 122.421 -0.25 -0.00    +0.000    128.628
ATOM     16  CM  UNL     1      36.284  16.414 123.842 -0.01 -0.00    +0.000    128.628
ATOM     17  CM  UNL     1      34.882  17.731 125.458 -0.42 -0.00    +0.000    128.628
ATOM     18  CM  UNL     1      37.014  18.651 124.723 -0.01 -0.00    +0.000    128.628
ATOM     19  C   UNL     1      36.736  14.065 122.211 -0.38 -0.00    +0.000    128.628
ATOM     20  C   UNL     1      37.542  13.045 123.021 -0.56 -0.00    +0.000    128.628
ATOM     21  C   UNL     1      36.650  12.309 124.027 -0.53 -0.00    +0.000    128.628
ATOM     22  C   UNL     1      35.618  11.429 123.306 -0.60 -0.00    +0.000    128.628
ATOM     23  C   UNL     1      36.136  10.911 121.957 -0.57 -0.00    +0.000    128.628
ATOM     24  O   UNL     1      37.002   8.887 121.028 -2.69 -0.00    +0.000    128.628
ATOM     25  C   UNL     1      36.698   9.524 122.072 -0.69 -0.00    +0.000    128.628
ATOM     26  N   UNL     1      36.921   8.937 123.356 -0.61 -0.00    +0.000    128.628
ATOM     27  O   UNL     1      37.443   7.693 123.460 -2.58 -0.00    +0.000    128.628
ATOM     28  H   UNL     1      36.694   9.442 124.171 -0.48 -0.00    +0.000    128.628
TER
ENDMDL
MODEL       85
USER    Run = 85
USER    Cluster Rank = 2
USER    Number of conformations in this cluster = 23
USER  
USER    RMSD from reference structure       = 128.581 A
USER  
USER    Estimated Free Energy of Binding    =  -12.67 kcal/mol  [=(1)+(2)+(3)-(4)]
USER    Estimated Inhibition Constant, Ki   =  514.20 pM (picomolar)  [Temperature = 298.15 K]
USER    
USER    (1) Final Intermolecular Energy     =  -14.46 kcal/mol
USER        vdW + Hbond + desolv Energy     =  -14.46 kcal/mol
USER        Electrostatic Energy            =   +0.00 kcal/mol
USER    (2) Final Total Internal Energy     =   -1.00 kcal/mol
USER    (3) Torsional Free Energy           =   +1.79 kcal/mol
USER    (4) Unbound System's Energy  [=(2)] =   -1.00 kcal/mol
USER    
USER    
USER  
USER    DPF = ligand_dock.biased.dpf
USER    NEWDPF move	ligand.dum.pdbqt
USER    NEWDPF about	-0.023000 0.069000 -0.054000
USER    NEWDPF tran0	37.643834 15.142759 121.748183
USER    NEWDPF axisangle0	-0.314854 0.676342 0.665904 -179.883164
USER    NEWDPF quaternion0	-0.314854 0.676342 0.665903 -0.001020
USER    NEWDPF dihe0	-91.87 -33.87 69.30 -150.78 65.68 -153.31 
USER  
USER                              x       y       z    vdW   Elec        q     RMS 
ATOM      1  N   UNL     1      37.852  15.261 122.636 -0.33 -0.00    +0.000    128.581
ATOM      2  C   UNL     1      39.183  14.813 122.318 -0.43 -0.00    +0.000    128.581
ATOM      3  C   UNL     1      40.354  15.634 122.705 -0.35 -0.00    +0.000    128.581
ATOM      4  C   UNL     1      41.660  15.193 122.428 -0.48 -0.00    +0.000    128.581
ATOM      5  C   UNL     1      42.763  15.967 122.793 -0.39 -0.00    +0.000    128.581
ATOM      6  C   UNL     1      42.582  17.190 123.437 -0.30 -0.00    +0.000    128.581
ATOM      7  C   UNL     1      41.290  17.653 123.724 -0.29 -0.00    +0.000    128.581
ATOM      8  C   UNL     1      41.109  18.883 124.370 -0.21 -0.00    +0.000    128.581
ATOM      9  C   UNL     1      39.824  19.346 124.652 -0.13 -0.00    +0.000    128.581
ATOM     10  C   UNL     1      38.708  18.586 124.296 -0.16 -0.00    +0.000    128.581
ATOM     11  C   UNL     1      38.863  17.348 123.649 -0.21 -0.00    +0.000    128.581
ATOM     12  C   UNL     1      40.162  16.873 123.358 -0.22 -0.00    +0.000    128.581
ATOM     13  O   UNL     1      39.354  13.722 121.707 -0.70 -0.00    +0.000    128.581
ATOM     14  C   UNL     1      37.679  16.543 123.270 -0.28 -0.00    +0.000    128.581
ATOM     15  O   UNL     1      36.519  16.982 123.502 -0.29 -0.00    +0.000    128.581
ATOM     16  CM  UNL     1      38.985  16.057 122.980 +0.00 -0.00    +0.000    128.581
ATOM     17  CM  UNL     1      41.469  16.418 123.074 +0.00 -0.00    +0.000    128.581
ATOM     18  CM  UNL     1      39.993  18.115 124.009 +0.00 -0.00    +0.000    128.581
ATOM     19  C   UNL     1      36.683  14.472 122.224 -0.34 -0.00    +0.000    128.581
ATOM     20  C   UNL     1      35.884  14.028 123.454 -0.54 -0.00    +0.000    128.581
ATOM     21  C   UNL     1      35.919  12.505 123.615 -0.62 -0.00    +0.000    128.581
ATOM     22  C   UNL     1      37.222  11.922 123.048 -0.58 -0.00    +0.000    128.581
ATOM     23  C   UNL     1      36.997  11.166 121.731 -0.54 -0.00    +0.000    128.581
ATOM     24  O   UNL     1      36.975   8.912 120.935 -2.69 -0.00    +0.000    128.581
ATOM     25  C   UNL     1      36.998   9.678 121.936 -0.60 -0.00    +0.000    128.581
ATOM     26  N   UNL     1      37.059   9.129 123.254 -0.62 -0.00    +0.000    128.581
ATOM     27  O   UNL     1      37.077   7.789 123.438 -2.66 -0.00    +0.000    128.581
ATOM     28  H   UNL     1      37.089   9.730 124.034 -0.52 -0.00    +0.000    128.581
TER
ENDMDL
MODEL       83
USER    Run = 83
USER    Cluster Rank = 3
USER    Number of conformations in this cluster = 1
USER  
USER    RMSD from reference structure       = 126.334 A
USER  
USER    Estimated Free Energy of Binding    =  -12.43 kcal/mol  [=(1)+(2)+(3)-(4)]
USER    Estimated Inhibition Constant, Ki   =  771.41 pM (picomolar)  [Temperature = 298.15 K]
USER    
USER    (1) Final Intermolecular Energy     =  -14.22 kcal/mol
USER        vdW + Hbond + desolv Energy     =  -14.22 kcal/mol
USER        Electrostatic Energy            =   +0.00 kcal/mol
USER    (2) Final Total Internal Energy     =   -0.56 kcal/mol
USER    (3) Torsional Free Energy           =   +1.79 kcal/mol
USER    (4) Unbound System's Energy  [=(2)] =   -0.56 kcal/mol
USER    
USER    
USER  
USER    DPF = ligand_dock.biased.dpf
USER    NEWDPF move	ligand.dum.pdbqt
USER    NEWDPF about	-0.023000 0.069000 -0.054000
USER    NEWDPF tran0	35.954423 9.915862 122.596426
USER    NEWDPF axisangle0	-0.171791 0.568045 0.804868 111.629827
USER    NEWDPF quaternion0	-0.142110 0.469902 0.665809 0.561868
USER    NEWDPF dihe0	2.31 129.86 -144.57 -88.08 -34.99 48.41 
USER  
USER                              x       y       z    vdW   Elec        q     RMS 
ATOM      1  N   UNL     1      36.637  10.450 122.904 -0.62 -0.00    +0.000    126.334
ATOM      2  C   UNL     1      37.041  10.615 121.532 -0.45 -0.00    +0.000    126.334
ATOM      3  C   UNL     1      37.233  11.974 120.974 -0.46 -0.00    +0.000    126.334
ATOM      4  C   UNL     1      37.658  12.148 119.645 -0.31 -0.00    +0.000    126.334
ATOM      5  C   UNL     1      37.838  13.428 119.119 -0.26 -0.00    +0.000    126.334
ATOM      6  C   UNL     1      37.597  14.553 119.907 -0.27 -0.00    +0.000    126.334
ATOM      7  C   UNL     1      37.171  14.406 121.236 -0.28 -0.00    +0.000    126.334
ATOM      8  C   UNL     1      36.927  15.537 122.027 -0.26 -0.00    +0.000    126.334
ATOM      9  C   UNL     1      36.501  15.392 123.347 -0.37 -0.00    +0.000    126.334
ATOM     10  C   UNL     1      36.316  14.120 123.891 -0.43 -0.00    +0.000    126.334
ATOM     11  C   UNL     1      36.555  12.970 123.118 -0.55 -0.00    +0.000    126.334
ATOM     12  C   UNL     1      36.986  13.109 121.780 -0.42 -0.00    +0.000    126.334
ATOM     13  O   UNL     1      37.231   9.603 120.802 -2.26 -0.00    +0.000    126.334
ATOM     14  C   UNL     1      36.358  11.621 123.696 -0.70 -0.00    +0.000    126.334
ATOM     15  O   UNL     1      35.942  11.498 124.882 -0.35 -0.00    +0.000    126.334
ATOM     16  CM  UNL     1      36.797  11.754 122.349 +0.00 -0.00    +0.000    126.334
ATOM     17  CM  UNL     1      37.414  13.270 120.443 +0.00 -0.00    +0.000    126.334
ATOM     18  CM  UNL     1      36.743  14.256 122.567 +0.00 -0.00    +0.000    126.334
ATOM     19  C   UNL     1      36.409   9.108 123.457 -0.28 -0.00    +0.000    126.334
ATOM     20  C   UNL     1      35.719   8.218 122.418 -0.73 -0.00    +0.000    126.334
ATOM     21  C   UNL     1      36.204   6.768 122.523 -0.63 -0.00    +0.000    126.334
ATOM     22  C   UNL     1      35.297   5.951 123.456 -0.70 -0.00    +0.000    126.334
ATOM     23  C   UNL     1      33.816   6.320 123.298 -0.76 -0.00    +0.000    126.334
ATOM     24  O   UNL     1      33.600   6.855 120.978 -0.66 -0.00    +0.000    126.334
ATOM     25  C   UNL     1      33.320   6.050 121.907 -0.62 -0.00    +0.000    126.334
ATOM     26  N   UNL     1      32.563   4.871 121.625 -0.67 -0.00    +0.000    126.334
ATOM     27  O   UNL     1      32.131   4.619 120.367 -1.06 -0.00    +0.000    126.334
ATOM     28  H   UNL     1      32.355   4.237 122.349 -0.13 -0.00    +0.000    126.334
TER
ENDMDL
MODEL       90
USER    Run = 90
USER    Cluster Rank = 4
USER    Number of conformations in this cluster = 9
USER  
USER    RMSD from reference structure       = 124.641 A
USER  
USER    Estimated Free Energy of Binding    =  -11.70 kcal/mol  [=(1)+(2)+(3)-(4)]
USER    Estimated Inhibition Constant, Ki   =    2.65 nM (nanomolar)  [Temperature = 298.15 K]
USER    
USER    (1) Final Intermolecular Energy     =  -13.49 kcal/mol
USER        vdW + Hbond + desolv Energy     =  -13.49 kcal/mol
USER        Electrostatic Energy            =   +0.00 kcal/mol
USER    (2) Final Total Internal Energy     =   -0.93 kcal/mol
USER    (3) Torsional Free Energy           =   +1.79 kcal/mol
USER    (4) Unbound System's Energy  [=(2)] =   -0.93 kcal/mol
USER    
USER    
USER  
USER    DPF = ligand_dock.biased.dpf
USER    NEWDPF move	ligand.dum.pdbqt
USER    NEWDPF about	-0.023000 0.069000 -0.054000
USER    NEWDPF tran0	36.954221 14.909176 120.015559
USER    NEWDPF axisangle0	0.431671 0.594119 0.678736 144.316453
USER    NEWDPF quaternion0	0.410911 0.565546 0.646093 0.306389
USER    NEWDPF dihe0	-91.07 -144.55 165.01 -66.59 7.30 175.48 
USER  
USER                              x       y       z    vdW   Elec        q     RMS 
ATOM      1  N   UNL     1      37.822  14.668 119.830 -0.25 -0.00    +0.000    124.641
ATOM      2  C   UNL     1      37.301  13.850 118.766 -0.39 -0.00    +0.000    124.641
ATOM      3  C   UNL     1      37.837  13.992 117.393 -0.30 -0.00    +0.000    124.641
ATOM      4  C   UNL     1      37.359  13.177 116.351 -0.31 -0.00    +0.000    124.641
ATOM      5  C   UNL     1      37.863  13.311 115.057 -0.42 -0.00    +0.000    124.641
ATOM      6  C   UNL     1      38.850  14.257 114.780 -0.29 -0.00    +0.000    124.641
ATOM      7  C   UNL     1      39.343  15.082 115.801 -0.26 -0.00    +0.000    124.641
ATOM      8  C   UNL     1      40.332  16.034 115.522 -0.21 -0.00    +0.000    124.641
ATOM      9  C   UNL     1      40.821  16.858 116.536 -0.12 -0.00    +0.000    124.641
ATOM     10  C   UNL     1      40.329  16.739 117.838 -0.10 -0.00    +0.000    124.641
ATOM     11  C   UNL     1      39.337  15.790 118.143 -0.13 -0.00    +0.000    124.641
ATOM     12  C   UNL     1      38.837  14.953 117.120 -0.17 -0.00    +0.000    124.641
ATOM     13  O   UNL     1      36.387  13.013 119.002 -0.46 -0.00    +0.000    124.641
ATOM     14  C   UNL     1      38.816  15.665 119.524 -0.18 -0.00    +0.000    124.641
ATOM     15  O   UNL     1      39.241  16.435 120.429 -0.14 -0.00    +0.000    124.641
ATOM     16  CM  UNL     1      38.311  14.816 118.499 +0.00 -0.00    +0.000    124.641
ATOM     17  CM  UNL     1      38.348  14.128 116.083 +0.00 -0.00    +0.000    124.641
ATOM     18  CM  UNL     1      39.834  15.910 116.826 +0.00 -0.00    +0.000    124.641
ATOM     19  C   UNL     1      37.272  14.561 121.189 -0.32 -0.00    +0.000    124.641
ATOM     20  C   UNL     1      38.007  13.468 121.973 -0.45 -0.00    +0.000    124.641
ATOM     21  C   UNL     1      37.336  13.215 123.328 -0.57 -0.00    +0.000    124.641
ATOM     22  C   UNL     1      36.721  11.809 123.382 -0.69 -0.00    +0.000    124.641
ATOM     23  C   UNL     1      36.675  11.140 122.001 -0.62 -0.00    +0.000    124.641
ATOM     24  O   UNL     1      37.010   8.976 121.044 -2.70 -0.00    +0.000    124.641
ATOM     25  C   UNL     1      36.859   9.653 122.096 -0.65 -0.00    +0.000    124.641
ATOM     26  N   UNL     1      36.896   9.008 123.371 -0.60 -0.00    +0.000    124.641
ATOM     27  O   UNL     1      37.079   7.670 123.457 -2.66 -0.00    +0.000    124.641
ATOM     28  H   UNL     1      36.789   9.541 124.192 -0.51 -0.00    +0.000    124.641
TER
ENDMDL
MODEL       49
USER    Run = 49
USER    Cluster Rank = 5
USER    Number of conformations in this cluster = 14
USER  
USER    RMSD from reference structure       = 125.492 A
USER  
USER    Estimated Free Energy of Binding    =  -11.68 kcal/mol  [=(1)+(2)+(3)-(4)]
USER    Estimated Inhibition Constant, Ki   =    2.74 nM (nanomolar)  [Temperature = 298.15 K]
USER    
USER    (1) Final Intermolecular Energy     =  -13.47 kcal/mol
USER        vdW + Hbond + desolv Energy     =  -13.47 kcal/mol
USER        Electrostatic Energy            =   +0.00 kcal/mol
USER    (2) Final Total Internal Energy     =   -1.04 kcal/mol
USER    (3) Torsional Free Energy           =   +1.79 kcal/mol
USER    (4) Unbound System's Energy  [=(2)] =   -1.04 kcal/mol
USER    
USER    
USER  
USER    DPF = ligand_dock.biased.dpf
USER    NEWDPF move	ligand.dum.pdbqt
USER    NEWDPF about	-0.023000 0.069000 -0.054000
USER    NEWDPF tran0	37.688431 15.307173 122.281319
USER    NEWDPF axisangle0	-0.805924 0.206450 -0.554856 159.873108
USER    NEWDPF quaternion0	-0.793525 0.203274 -0.546319 0.174739
USER    NEWDPF dihe0	-127.79 173.89 -85.42 64.88 -72.78 -178.96 
USER  
USER                              x       y       z    vdW   Elec        q     RMS 
ATOM      1  N   UNL     1      37.075  14.826 121.793 -0.30 -0.00    +0.000    125.492
ATOM      2  C   UNL     1      36.521  16.085 121.367 -0.20 -0.00    +0.000    125.492
ATOM      3  C   UNL     1      36.335  16.362 119.924 -0.14 -0.00    +0.000    125.492
ATOM      4  C   UNL     1      35.766  17.574 119.496 -0.15 -0.00    +0.000    125.492
ATOM      5  C   UNL     1      35.591  17.836 118.137 -0.10 -0.00    +0.000    125.492
ATOM      6  C   UNL     1      35.980  16.896 117.183 -0.10 -0.00    +0.000    125.492
ATOM      7  C   UNL     1      36.550  15.679 117.584 -0.17 -0.00    +0.000    125.492
ATOM      8  C   UNL     1      36.943  14.734 116.626 -0.24 -0.00    +0.000    125.492
ATOM      9  C   UNL     1      37.514  13.526 117.023 -0.36 -0.00    +0.000    125.492
ATOM     10  C   UNL     1      37.697  13.245 118.379 -0.26 -0.00    +0.000    125.492
ATOM     11  C   UNL     1      37.310  14.176 119.360 -0.31 -0.00    +0.000    125.492
ATOM     12  C   UNL     1      36.732  15.403 118.964 -0.20 -0.00    +0.000    125.492
ATOM     13  O   UNL     1      36.195  16.954 122.222 -0.25 -0.00    +0.000    125.492
ATOM     14  C   UNL     1      37.505  13.878 120.797 -0.40 -0.00    +0.000    125.492
ATOM     15  O   UNL     1      38.050  12.795 121.148 -0.49 -0.00    +0.000    125.492
ATOM     16  CM  UNL     1      36.917  15.114 120.406 +0.00 -0.00    +0.000    125.492
ATOM     17  CM  UNL     1      36.159  16.625 118.548 +0.00 -0.00    +0.000    125.492
ATOM     18  CM  UNL     1      37.124  14.460 117.989 +0.00 -0.00    +0.000    125.492
ATOM     19  C   UNL     1      37.298  14.556 123.221 -0.46 -0.00    +0.000    125.492
ATOM     20  C   UNL     1      36.087  13.831 123.817 -0.56 -0.00    +0.000    125.492
ATOM     21  C   UNL     1      36.406  12.357 124.092 -0.54 -0.00    +0.000    125.492
ATOM     22  C   UNL     1      35.557  11.436 123.202 -0.59 -0.00    +0.000    125.492
ATOM     23  C   UNL     1      36.321  10.967 121.956 -0.60 -0.00    +0.000    125.492
ATOM     24  O   UNL     1      36.895   8.839 121.033 -2.66 -0.00    +0.000    125.492
ATOM     25  C   UNL     1      36.753   9.534 122.074 -0.68 -0.00    +0.000    125.492
ATOM     26  N   UNL     1      37.035   8.967 123.356 -0.62 -0.00    +0.000    125.492
ATOM     27  O   UNL     1      37.441   7.681 123.461 -2.57 -0.00    +0.000    125.492
ATOM     28  H   UNL     1      36.934   9.516 124.167 -0.54 -0.00    +0.000    125.492
TER
ENDMDL
MODEL       58
USER    Run = 58
USER    Cluster Rank = 6
USER    Number of conformations in this cluster = 8
USER  
USER    RMSD from reference structure       = 126.895 A
USER  
USER    Estimated Free Energy of Binding    =  -11.63 kcal/mol  [=(1)+(2)+(3)-(4)]
USER    Estimated Inhibition Constant, Ki   =    2.97 nM (nanomolar)  [Temperature = 298.15 K]
USER    
USER    (1) Final Intermolecular Energy     =  -13.42 kcal/mol
USER        vdW + Hbond + desolv Energy     =  -13.42 kcal/mol
USER        Electrostatic Energy            =   +0.00 kcal/mol
USER    (2) Final Total Internal Energy     =   -0.64 kcal/mol
USER    (3) Torsional Free Energy           =   +1.79 kcal/mol
USER    (4) Unbound System's Energy  [=(2)] =   -0.64 kcal/mol
USER    
USER    
USER  
USER    DPF = ligand_dock.biased.dpf
USER    NEWDPF move	ligand.dum.pdbqt
USER    NEWDPF about	-0.023000 0.069000 -0.054000
USER    NEWDPF tran0	38.772074 15.929571 122.184768
USER    NEWDPF axisangle0	0.402704 0.261963 0.877043 165.901938
USER    NEWDPF quaternion0	0.399660 0.259983 0.870414 0.122719
USER    NEWDPF dihe0	-72.54 163.49 -106.69 -23.55 -66.94 133.72 
USER  
USER                              x       y       z    vdW   Elec        q     RMS 
ATOM      1  N   UNL     1      39.400  15.304 121.940 -0.31 -0.00    +0.000    126.895
ATOM      2  C   UNL     1      38.955  15.482 120.582 -0.23 -0.00    +0.000    126.895
ATOM      3  C   UNL     1      39.936  15.788 119.515 -0.12 -0.00    +0.000    126.895
ATOM      4  C   UNL     1      39.519  15.933 118.180 -0.13 -0.00    +0.000    126.895
ATOM      5  C   UNL     1      40.442  16.223 117.175 -0.15 -0.00    +0.000    126.895
ATOM      6  C   UNL     1      41.794  16.374 117.483 -0.17 -0.00    +0.000    126.895
ATOM      7  C   UNL     1      42.236  16.235 118.807 -0.15 -0.00    +0.000    126.895
ATOM      8  C   UNL     1      43.594  16.389 119.117 -0.17 -0.00    +0.000    126.895
ATOM      9  C   UNL     1      44.033  16.255 120.434 -0.21 -0.00    +0.000    126.895
ATOM     10  C   UNL     1      43.125  15.965 121.453 -0.29 -0.00    +0.000    126.895
ATOM     11  C   UNL     1      41.757  15.805 121.168 -0.23 -0.00    +0.000    126.895
ATOM     12  C   UNL     1      41.304  15.940 119.836 -0.09 -0.00    +0.000    126.895
ATOM     13  O   UNL     1      37.730  15.378 120.299 -0.23 -0.00    +0.000    126.895
ATOM     14  C   UNL     1      40.794  15.497 122.250 -0.43 -0.00    +0.000    126.895
ATOM     15  O   UNL     1      41.195  15.408 123.443 -0.85 +0.00    +0.000    126.895
ATOM     16  CM  UNL     1      40.332  15.627 120.910 +0.00 -0.00    +0.000    126.895
ATOM     17  CM  UNL     1      40.872  16.082 118.499 +0.00 -0.00    +0.000    126.895
ATOM     18  CM  UNL     1      42.675  16.098 120.136 +0.00 -0.00    +0.000    126.895
ATOM     19  C   UNL     1      38.431  15.035 123.012 -0.35 -0.00    +0.000    126.895
ATOM     20  C   UNL     1      37.440  13.954 122.570 -0.49 -0.00    +0.000    126.895
ATOM     21  C   UNL     1      37.619  12.672 123.390 -0.47 -0.00    +0.000    126.895
ATOM     22  C   UNL     1      36.333  11.831 123.383 -0.70 -0.00    +0.000    126.895
ATOM     23  C   UNL     1      36.137  11.079 122.059 -0.60 -0.00    +0.000    126.895
ATOM     24  O   UNL     1      37.066   9.107 121.079 -2.73 -0.00    +0.000    126.895
ATOM     25  C   UNL     1      36.670   9.677 122.130 -0.68 -0.00    +0.000    126.895
ATOM     26  N   UNL     1      36.761   9.001 123.387 -0.58 -0.00    +0.000    126.895
ATOM     27  O   UNL     1      37.257   7.744 123.453 -2.64 -0.00    +0.000    126.895
ATOM     28  H   UNL     1      36.462   9.453 124.209 -0.40 -0.00    +0.000    126.895
TER
ENDMDL
MODEL       56
USER    Run = 56
USER    Cluster Rank = 7
USER    Number of conformations in this cluster = 1
USER  
USER    RMSD from reference structure       = 127.465 A
USER  
USER    Estimated Free Energy of Binding    =  -11.15 kcal/mol  [=(1)+(2)+(3)-(4)]
USER    Estimated Inhibition Constant, Ki   =    6.73 nM (nanomolar)  [Temperature = 298.15 K]
USER    
USER    (1) Final Intermolecular Energy     =  -12.94 kcal/mol
USER        vdW + Hbond + desolv Energy     =  -12.94 kcal/mol
USER        Electrostatic Energy            =   +0.00 kcal/mol
USER    (2) Final Total Internal Energy     =   -0.57 kcal/mol
USER    (3) Torsional Free Energy           =   +1.79 kcal/mol
USER    (4) Unbound System's Energy  [=(2)] =   -0.57 kcal/mol
USER    
USER    
USER  
USER    DPF = ligand_dock.biased.dpf
USER    NEWDPF move	ligand.dum.pdbqt
USER    NEWDPF about	-0.023000 0.069000 -0.054000
USER    NEWDPF tran0	37.322179 13.858338 123.952103
USER    NEWDPF axisangle0	-0.644627 0.261962 -0.718215 -113.478319
USER    NEWDPF quaternion0	-0.539026 0.219048 -0.600558 -0.548451
USER    NEWDPF dihe0	56.90 132.08 -55.17 -68.51 11.81 161.03 
USER  
USER                              x       y       z    vdW   Elec        q     RMS 
ATOM      1  N   UNL     1      37.438  14.149 123.087 -0.46 -0.00    +0.000    127.465
ATOM      2  C   UNL     1      36.137  14.758 123.184 -0.46 -0.00    +0.000    127.465
ATOM      3  C   UNL     1      35.962  16.190 122.850 -0.31 -0.00    +0.000    127.465
ATOM      4  C   UNL     1      34.692  16.789 122.910 -0.37 -0.00    +0.000    127.465
ATOM      5  C   UNL     1      34.527  18.138 122.596 -0.25 -0.00    +0.000    127.465
ATOM      6  C   UNL     1      35.623  18.912 122.217 -0.20 -0.00    +0.000    127.465
ATOM      7  C   UNL     1      36.902  18.339 122.150 -0.13 -0.00    +0.000    127.465
ATOM      8  C   UNL     1      38.004  19.117 121.771 -0.07 -0.00    +0.000    127.465
ATOM      9  C   UNL     1      39.276  18.548 121.708 -0.05 -0.00    +0.000    127.465
ATOM     10  C   UNL     1      39.461  17.200 122.018 -0.14 -0.00    +0.000    127.465
ATOM     11  C   UNL     1      38.371  16.398 122.399 -0.21 -0.00    +0.000    127.465
ATOM     12  C   UNL     1      37.079  16.967 122.467 -0.19 -0.00    +0.000    127.465
ATOM     13  O   UNL     1      35.144  14.073 123.556 -0.59 -0.00    +0.000    127.465
ATOM     14  C   UNL     1      38.568  14.968 122.729 -0.40 -0.00    +0.000    127.465
ATOM     15  O   UNL     1      39.727  14.468 122.698 -0.91 -0.00    +0.000    127.465
ATOM     16  CM  UNL     1      37.264  15.533 122.794 +0.00 -0.00    +0.000    127.465
ATOM     17  CM  UNL     1      35.797  17.556 122.531 +0.00 -0.00    +0.000    127.465
ATOM     18  CM  UNL     1      38.183  17.762 122.085 +0.00 -0.00    +0.000    127.465
ATOM     19  C   UNL     1      37.629  12.738 123.452 -0.48 -0.00    +0.000    127.465
ATOM     20  C   UNL     1      37.030  11.828 122.375 -0.60 -0.00    +0.000    127.465
ATOM     21  C   UNL     1      36.955  10.375 122.859 -0.61 -0.00    +0.000    127.465
ATOM     22  C   UNL     1      35.495   9.936 123.053 -0.62 -0.00    +0.000    127.465
ATOM     23  C   UNL     1      35.179   8.627 122.318 -0.67 -0.00    +0.000    127.465
ATOM     24  O   UNL     1      37.066   7.702 123.456 -2.69 -0.00    +0.000    127.465
ATOM     25  C   UNL     1      35.981   7.477 122.857 -0.77 -0.00    +0.000    127.465
ATOM     26  N   UNL     1      35.504   6.136 122.722 -0.66 -0.00    +0.000    127.465
ATOM     27  O   UNL     1      36.218   5.102 123.223 -1.06 -0.00    +0.000    127.465
ATOM     28  H   UNL     1      34.650   5.964 122.264 -0.04 -0.00    +0.000    127.465
TER
ENDMDL
MODEL       51
USER    Run = 51
USER    Cluster Rank = 8
USER    Number of conformations in this cluster = 1
USER  
USER    RMSD from reference structure       = 130.357 A
USER  
USER    Estimated Free Energy of Binding    =   -9.55 kcal/mol  [=(1)+(2)+(3)-(4)]
USER    Estimated Inhibition Constant, Ki   =   99.91 nM (nanomolar)  [Temperature = 298.15 K]
USER    
USER    (1) Final Intermolecular Energy     =  -11.34 kcal/mol
USER        vdW + Hbond + desolv Energy     =  -11.34 kcal/mol
USER        Electrostatic Energy            =   +0.00 kcal/mol
USER    (2) Final Total Internal Energy     =   -1.13 kcal/mol
USER    (3) Torsional Free Energy           =   +1.79 kcal/mol
USER    (4) Unbound System's Energy  [=(2)] =   -1.13 kcal/mol
USER    
USER    
USER  
USER    DPF = ligand_dock.biased.dpf
USER    NEWDPF move	ligand.dum.pdbqt
USER    NEWDPF about	-0.023000 0.069000 -0.054000
USER    NEWDPF tran0	32.323610 18.139380 127.649866
USER    NEWDPF axisangle0	0.296157 0.817056 0.494683 144.315232
USER    NEWDPF quaternion0	0.281913 0.777758 0.470890 0.306400
USER    NEWDPF dihe0	-180.00 168.10 179.38 -71.69 19.18 20.20 
USER  
USER                              x       y       z    vdW   Elec        q     RMS 
ATOM      1  N   UNL     1      33.236  18.256 127.633 -0.23 -0.00    +0.000    130.357
ATOM      2  C   UNL     1      33.322  16.983 126.965 -0.43 -0.00    +0.000    130.357
ATOM      3  C   UNL     1      34.065  16.865 125.689 -0.40 -0.00    +0.000    130.357
ATOM      4  C   UNL     1      34.183  15.622 125.043 -0.44 -0.00    +0.000    130.357
ATOM      5  C   UNL     1      34.882  15.511 123.840 -0.51 -0.00    +0.000    130.357
ATOM      6  C   UNL     1      35.473  16.634 123.263 -0.34 -0.00    +0.000    130.357
ATOM      7  C   UNL     1      35.369  17.886 123.887 -0.28 -0.00    +0.000    130.357
ATOM      8  C   UNL     1      35.961  19.015 123.305 -0.20 -0.00    +0.000    130.357
ATOM      9  C   UNL     1      35.855  20.261 123.924 -0.13 -0.00    +0.000    130.357
ATOM     10  C   UNL     1      35.160  20.392 125.127 -0.14 -0.00    +0.000    130.357
ATOM     11  C   UNL     1      34.558  19.274 125.732 -0.22 -0.00    +0.000    130.357
ATOM     12  C   UNL     1      34.661  18.009 125.110 -0.32 -0.00    +0.000    130.357
ATOM     13  O   UNL     1      32.764  15.967 127.465 -1.17 -0.00    +0.000    130.357
ATOM     14  C   UNL     1      33.820  19.415 127.008 -0.20 -0.00    +0.000    130.357
ATOM     15  O   UNL     1      33.703  20.551 127.545 -0.12 -0.00    +0.000    130.357
ATOM     16  CM  UNL     1      33.925  18.137 126.390 -0.07 -0.00    +0.000    130.357
ATOM     17  CM  UNL     1      34.772  16.754 124.472 -0.19 -0.00    +0.000    130.357
ATOM     18  CM  UNL     1      35.261  19.140 124.514 -0.10 -0.00    +0.000    130.357
ATOM     19  C   UNL     1      32.471  18.391 128.881 -0.20 -0.00    +0.000    130.357
ATOM     20  C   UNL     1      30.976  18.195 128.609 -0.35 -0.00    +0.000    130.357
ATOM     21  C   UNL     1      30.127  18.779 129.743 -0.33 -0.00    +0.000    130.357
ATOM     22  C   UNL     1      29.402  20.054 129.286 -0.33 -0.00    +0.000    130.357
ATOM     23  C   UNL     1      29.664  20.374 127.807 -0.37 -0.00    +0.000    130.357
ATOM     24  O   UNL     1      27.674  20.765 126.543 -0.58 -0.00    +0.000    130.357
ATOM     25  C   UNL     1      28.530  19.926 126.931 -0.57 -0.00    +0.000    130.357
ATOM     26  N   UNL     1      28.436  18.563 126.510 -0.68 -0.00    +0.000    130.357
ATOM     27  O   UNL     1      27.423  18.163 125.707 -1.94 -0.00    +0.000    130.357
ATOM     28  H   UNL     1      29.112  17.911 126.806 -0.50 -0.00    +0.000    130.357
TER
ENDMDL


AVSFLD: # AVS field file
AVSFLD: #
AVSFLD: # Created by AutoDock
AVSFLD: #
AVSFLD: ndim=2           # number of dimensions in the field
AVSFLD: nspace=1         # number of physical coordinates
AVSFLD: veclen=7         # vector size
AVSFLD: dim1=28          # atoms
AVSFLD: dim2=8           # conformations
AVSFLD: data=Real       # data type (byte,integer,Real,double)
AVSFLD: field=uniform    # field coordinate layout
AVSFLD: label= x y z vdW Elec q RMS
AVSFLD: variable 1 file = ligand_dock.biased.dlg.pdb filetype = ascii offset = 5 stride = 12
AVSFLD: variable 2 file = ligand_dock.biased.dlg.pdb filetype = ascii offset = 6 stride = 12
AVSFLD: variable 3 file = ligand_dock.biased.dlg.pdb filetype = ascii offset = 7 stride = 12
AVSFLD: variable 4 file = ligand_dock.biased.dlg.pdb filetype = ascii offset = 8 stride = 12
AVSFLD: variable 5 file = ligand_dock.biased.dlg.pdb filetype = ascii offset = 9 stride = 12
AVSFLD: variable 6 file = ligand_dock.biased.dlg.pdb filetype = ascii offset = 10 stride = 12
AVSFLD: variable 7 file = ligand_dock.biased.dlg.pdb filetype = ascii offset = 11 stride = 12
AVSFLD: # end of file

>>> Closing the docking parameter file (DPF)...
This docking finished at:			6:18 46" p.m., 11/08/2024


________________________________________________________________________________

autodock4: Successful Completion on "ThinkStation-P620"

Real= 11m 37.56s,  CPU= 11m 37.28s,  System= 0.18s
________________________________________________________________________________

