REMARK  Name = 
REMARK  5 active torsions:
REMARK  status: ('A' for Active; 'I' for Inactive)
REMARK    1  A    between atoms: S_2  and  N_3
REMARK    2  A    between atoms: S_2  and  C_10
REMARK    3  A    between atoms: N_3  and  C_4
REMARK    4  A    between atoms: C_12  and  C_13
REMARK    5  A    between atoms: C_14  and  C_15
REMARK                            x       y       z     vdW  Elec       q    Type
REMARK                         _______ _______ _______ _____ _____    ______ ____
ROOT
ATOM      1  C   UNL     1      -0.320  -2.102  -0.266  0.00  0.00     0.000 A 
ATOM      2  C   UNL     1       0.566  -1.028  -0.431  0.00  0.00     0.000 A 
ATOM      3  C   UNL     1       1.750  -0.952   0.332  0.00  0.00     0.000 A 
ATOM      4  C   UNL     1       2.017  -1.962   1.270  0.00  0.00     0.000 A 
ATOM      5  C   UNL     1       1.139  -3.038   1.427  0.00  0.00     0.000 A 
ATOM      6  C   UNL     1      -0.024  -3.111   0.659  0.00  0.00     0.000 A 
ATOM     25  CM  UNL     1       0.855  -2.032   0.498  1.00  0.00     0.000 AC
ENDROOT
BRANCH   1   8
ATOM      7  O   UNL     1      -2.851  -2.981  -0.494  0.00  0.00     0.000 OA
ATOM      8  S   UNL     1      -1.806  -2.172  -1.210  0.00  0.00     0.000 S 
ATOM      9  O   UNL     1      -1.506  -2.818  -2.532  0.00  0.00     0.000 OA
BRANCH   8  10
ATOM     10  N   UNL     1      -2.418  -0.570  -1.482  0.00  0.00     0.000 N 
ATOM     11  H   UNL     1      -2.620  -0.304  -2.408  0.00  0.00     0.000 HD
BRANCH  10  12
ATOM     12  C   UNL     1      -2.647   0.391  -0.436  0.00  0.00     0.000 A 
ATOM     13  C   UNL     1      -2.627   0.029   0.925  0.00  0.00     0.000 A 
ATOM     14  C   UNL     1      -2.844   0.993   1.915  0.00  0.00     0.000 A 
ATOM     15  C   UNL     1      -3.089   2.321   1.560  0.00  0.00     0.000 A 
ATOM     16  C   UNL     1      -3.120   2.688   0.213  0.00  0.00     0.000 A 
ATOM     17  C   UNL     1      -2.903   1.729  -0.780  0.00  0.00     0.000 A 
ATOM     26  CM  UNL     1      -2.872   1.359   0.566  1.00  0.00     0.000 AC
ENDBRANCH  10  12
ENDBRANCH   8  10
ENDBRANCH   1   8
BRANCH   3  18
ATOM     18  C   UNL     1       2.707   0.176   0.213  0.00  0.00     0.000 C 
ATOM     19  C   UNL     1       2.800   0.963  -0.870  0.00  0.00     0.000 C 
BRANCH  19  20
ATOM     20  C   UNL     1       3.754   2.086  -0.980  0.00  0.00     0.000 C 
ATOM     21  N   UNL     1       4.898   2.207  -0.126  0.00  0.00     0.000 N 
ATOM     22  O   UNL     1       5.683   3.307  -0.196  0.00  0.00     0.000 OA
ATOM     23  O   UNL     1       3.562   2.951  -1.876  0.00  0.00     0.000 OA
ATOM     24  H   UNL     1       5.113   1.489   0.513  0.00  0.00     0.000 HD
ENDBRANCH  19  20
ENDBRANCH   3  18
TORSDOF 5