          AutoDock 4.2 Release 4.2.6   
         (C) 1989-2012 The Scripps Research Institute
        AutoDock comes with ABSOLUTELY NO WARRANTY.
        AutoDock is free software, and you are welcome
        to redistribute it under certain conditions;
        for details type 'autodock4 -C'

                     main.cc  $Revision: 1.213 $

                   Compiled on Feb 20 2022 at 09:48:33


This file was created at:			6:07 09" p.m., 11/08/2024
                   on host:		"ThinkStation-P620"
Current Working Directory = "/home/antonio/Documenti/buccheri/IDROSSAMICO HDAC/HDAC 8/DP (copia)/Ligand_1"

      ________________________________________________________________

                   SETTING UP DEFAULT PARAMETER LIBRARY
      ________________________________________________________________


Random number generator was seeded with values 355259, 1731085629.
Docking parameter file (DPF) used for this docking:		ligand_dock.biased.dpf
DPF> parameter_file ad4_arom_params.dat

Using read_parameter_library() to try to open and read "ad4_arom_params.dat".

DPF> autodock_parameter_version 4.2       # used by autodock to validate parameter set

	Autodock parameter version 4.2.
DPF> outlev 1                             # diagnostic output level

Output Level = 1  ADT-COMPATIBLE OUTPUT DURING DOCKING.
DPF> intelec                              # calculate internal electrostatics

Electrostatic energies will be calculated for all non-bonds between moving atoms.
DPF> seed pid time                        # seeds for random generator

Random number generator was seeded with values 355259, 1731085629.
DPF> ligand_types A C OA N S HD AC

WARNING: pairwise distance, Rij, 0.00, is not a very reasonable value for the equilibrium separation of two atoms! (0.90 Angstroms <= Rij <= 6.00 Angstroms)

Perhaps you meant to use "intnbp_coeffs" instead of "intnbp_r_eps"?

DPF> fld receptor.maps.fld                # grid_data_file

Opening Grid Map Dimensions file:		receptor.maps.fld
Grid Point Spacing =				0.375 Angstroms

Even Number of User-specified Grid Points =	70 x-points
						70 y-points
						70 z-points

Coordinates of Central Grid Point of Maps =	(36.691, 12.592, 124.207)
Macromolecule file used to create Grid Maps =	receptor.pdbqt
Grid Parameter file used to create Grid Maps =	receptor.gpf
Minimum coordinates in grid = (23.566, -0.533, 111.082)
Maximum coordinates in grid = (49.816, 25.717, 137.332)

DPF> map receptor.A.map                   # atom-specific affinity map

DPF> map receptor.C.map                   # atom-specific affinity map

DPF> map receptor.OA.biased.map

DPF> map receptor.N.map                   # atom-specific affinity map

DPF> map receptor.S.map                   # atom-specific affinity map

DPF> map receptor.HD.map                  # atom-specific affinity map

DPF> map receptor.AC.biased.map

DPF> elecmap receptor.e.map               # electrostatics map

DPF> desolvmap receptor.d.map             # desolvation map

DPF> move ligand.dum.pdbqt

1,4-interactions will be _ignored_ in the non-bonded internal energy calculation.

Ligand PDBQT file = "ligand.dum.pdbqt"

INPUT LIGAND PDBQT FILE:
________________________

INPUT-LIGAND-PDBQT: REMARK  Name = 
INPUT-LIGAND-PDBQT: REMARK  5 active torsions:
INPUT-LIGAND-PDBQT: REMARK  status: ('A' for Active; 'I' for Inactive)
INPUT-LIGAND-PDBQT: REMARK    1  A    between atoms: S_2  and  N_3
INPUT-LIGAND-PDBQT: REMARK    2  A    between atoms: S_2  and  C_10
INPUT-LIGAND-PDBQT: REMARK    3  A    between atoms: N_3  and  C_4
INPUT-LIGAND-PDBQT: REMARK    4  A    between atoms: C_12  and  C_13
INPUT-LIGAND-PDBQT: REMARK    5  A    between atoms: C_14  and  C_15
INPUT-LIGAND-PDBQT: REMARK                            x       y       z     vdW  Elec       q    Type
INPUT-LIGAND-PDBQT: REMARK                         _______ _______ _______ _____ _____    ______ ____
INPUT-LIGAND-PDBQT: ROOT
INPUT-LIGAND-PDBQT: ATOM      1  C   UNL     1      -0.320  -2.102  -0.266  0.00  0.00     0.000 A 
INPUT-LIGAND-PDBQT: ATOM      2  C   UNL     1       0.566  -1.028  -0.431  0.00  0.00     0.000 A 
INPUT-LIGAND-PDBQT: ATOM      3  C   UNL     1       1.750  -0.952   0.332  0.00  0.00     0.000 A 
INPUT-LIGAND-PDBQT: ATOM      4  C   UNL     1       2.017  -1.962   1.270  0.00  0.00     0.000 A 
INPUT-LIGAND-PDBQT: ATOM      5  C   UNL     1       1.139  -3.038   1.427  0.00  0.00     0.000 A 
INPUT-LIGAND-PDBQT: ATOM      6  C   UNL     1      -0.024  -3.111   0.659  0.00  0.00     0.000 A 
INPUT-LIGAND-PDBQT: ATOM     25  CM  UNL     1       0.855  -2.032   0.498  1.00  0.00     0.000 AC
INPUT-LIGAND-PDBQT: ENDROOT
INPUT-LIGAND-PDBQT: BRANCH   1   8
INPUT-LIGAND-PDBQT: ATOM      7  O   UNL     1      -2.851  -2.981  -0.494  0.00  0.00     0.000 OA
INPUT-LIGAND-PDBQT: ATOM      8  S   UNL     1      -1.806  -2.172  -1.210  0.00  0.00     0.000 S 
INPUT-LIGAND-PDBQT: ATOM      9  O   UNL     1      -1.506  -2.818  -2.532  0.00  0.00     0.000 OA
INPUT-LIGAND-PDBQT: BRANCH   8  10
INPUT-LIGAND-PDBQT: ATOM     10  N   UNL     1      -2.418  -0.570  -1.482  0.00  0.00     0.000 N 
INPUT-LIGAND-PDBQT: ATOM     11  H   UNL     1      -2.620  -0.304  -2.408  0.00  0.00     0.000 HD
INPUT-LIGAND-PDBQT: BRANCH  10  12
INPUT-LIGAND-PDBQT: ATOM     12  C   UNL     1      -2.647   0.391  -0.436  0.00  0.00     0.000 A 
INPUT-LIGAND-PDBQT: ATOM     13  C   UNL     1      -2.627   0.029   0.925  0.00  0.00     0.000 A 
INPUT-LIGAND-PDBQT: ATOM     14  C   UNL     1      -2.844   0.993   1.915  0.00  0.00     0.000 A 
INPUT-LIGAND-PDBQT: ATOM     15  C   UNL     1      -3.089   2.321   1.560  0.00  0.00     0.000 A 
INPUT-LIGAND-PDBQT: ATOM     16  C   UNL     1      -3.120   2.688   0.213  0.00  0.00     0.000 A 
INPUT-LIGAND-PDBQT: ATOM     17  C   UNL     1      -2.903   1.729  -0.780  0.00  0.00     0.000 A 
INPUT-LIGAND-PDBQT: ATOM     26  CM  UNL     1      -2.872   1.359   0.566  1.00  0.00     0.000 AC
INPUT-LIGAND-PDBQT: ENDBRANCH  10  12
INPUT-LIGAND-PDBQT: ENDBRANCH   8  10
INPUT-LIGAND-PDBQT: ENDBRANCH   1   8
INPUT-LIGAND-PDBQT: BRANCH   3  18
INPUT-LIGAND-PDBQT: ATOM     18  C   UNL     1       2.707   0.176   0.213  0.00  0.00     0.000 C 
INPUT-LIGAND-PDBQT: ATOM     19  C   UNL     1       2.800   0.963  -0.870  0.00  0.00     0.000 C 
INPUT-LIGAND-PDBQT: BRANCH  19  20
INPUT-LIGAND-PDBQT: ATOM     20  C   UNL     1       3.754   2.086  -0.980  0.00  0.00     0.000 C 
INPUT-LIGAND-PDBQT: ATOM     21  N   UNL     1       4.898   2.207  -0.126  0.00  0.00     0.000 N 
INPUT-LIGAND-PDBQT: ATOM     22  O   UNL     1       5.683   3.307  -0.196  0.00  0.00     0.000 OA
INPUT-LIGAND-PDBQT: ATOM     23  O   UNL     1       3.562   2.951  -1.876  0.00  0.00     0.000 OA
INPUT-LIGAND-PDBQT: ATOM     24  H   UNL     1       5.113   1.489   0.513  0.00  0.00     0.000 HD
INPUT-LIGAND-PDBQT: ENDBRANCH  19  20
INPUT-LIGAND-PDBQT: ENDBRANCH   3  18
INPUT-LIGAND-PDBQT: TORSDOF 5________________________________________________________________________________

Total charge on ligand                               =	+0.000 e
REMARK  Name = 
REMARK  5 active torsions:
REMARK  status: ('A' for Active; 'I' for Inactive)
REMARK    1  A    between atoms: S_2  and  N_3
REMARK    2  A    between atoms: S_2  and  C_10
REMARK    3  A    between atoms: N_3  and  C_4
REMARK    4  A    between atoms: C_12  and  C_13
REMARK    5  A    between atoms: C_14  and  C_15
REMARK                            x       y       z     vdW  Elec       q    Type
REMARK                         _______ _______ _______ _____ _____    ______ ____


Number of Rotatable Bonds in Small Molecule =	5 torsions
Number of atoms in ligand:  26

Number of non-hydrogen atoms in ligand:  24

Number of vibrational degrees of freedom of ligand:  72


Number of torsional degrees of freedom = 5
Estimated loss of torsional free energy upon binding = +1.4915 kcal/mol


DPF> about 0.217 0.012 -0.211            # small molecule center

Small molecule center of rotation =	(+0.217, +0.012, -0.211)

DPF> tran0 random                         # initial coordinates/A or random

Initial translation =			(44.890, 9.920, 116.075) Angstroms
DPF> quaternion0 random                   # initial orientation

Each run will begin with a new, random initial orientation.
Initial quaternion,  (x,y,z,w) =	( -0.296, 0.181, 0.099, 0.933 ),
DPF> dihe0 random                         # initial dihedrals (relative) or random

DPF> torsdof 5                            # torsional degrees of freedom

Number of torsional degrees of freedom = 5
Free energy coefficient for torsional degrees of freedom = 0.2983 as specified in parameter library "ad4_arom_params.dat".

Estimated loss of torsional free energy upon binding = +1.4915 kcal/mol

DPF> rmstol 2.0                           # cluster_tolerance/A

Maximum RMS tolerance for conformational cluster analysis = 2.00 Angstroms
DPF> extnrg 1000.0                        # external grid energy

External grid energy (beyond grid map walls) = 1000.00

DPF> e0max 0.0 10000                      # max initial energy; max number of retries

Using user-specified maximum number of retries for simanneal initialization, 10000 retries.
If the simanneal initial energy is greater than e0max, 0.000,
then a new, random initial state will be created.

DPF> ga_pop_size 150                      # number of individuals in population

A population of 150 individuals will be used
DPF> ga_num_evals 2500000                 # maximum number of energy evaluations

There will be at most 2500000 function evaluations used.
DPF> ga_num_generations 27000             # maximum number of generations

The GA will run for at most 27000 generations.
DPF> ga_elitism 1                         # number of top individuals to survive to next generation

The 1 best will be preserved each GA generation.
DPF> ga_mutation_rate 0.02                # rate of gene mutation

The mutation rate is 0.020000.
DPF> ga_crossover_rate 0.8                # rate of crossover

The crossover rate is 0.800000.
DPF> ga_window_size 10                    # 

The GA's selection window is 10 generations.
DPF> ga_cauchy_alpha 0.0                  # Alpha parameter of Cauchy distribution

The alpha parameter (for the Cauchy distribution) is being set to 0.000000.
DPF> ga_cauchy_beta 1.0                   # Beta parameter Cauchy distribution

The beta parameter (for the Cauchy distribution) is being set to 1.000000.
DPF> set_ga                               # set the above parameters for GA or LGA

DPF> sw_max_its 300                       # iterations of Solis & Wets local search

Solis & Wets algorithms will perform at most 300 iterations.
DPF> sw_max_succ 4                        # consecutive successes before changing rho

Solis & Wets algorithms expand rho every 4 in a row successes.
DPF> sw_max_fail 4                        # consecutive failures before changing rho

Solis & Wets algorithms contract rho every 4 in a row failures.
DPF> sw_rho 1.0                           # size of local search space to sample

rho is set to 1.000000.
DPF> sw_lb_rho 0.01                       # lower bound on rho

rho will never get smaller than 0.010000.
DPF> ls_search_freq 0.06                  # probability of performing local search on individual

Local search will be performed with frequency 0.060000.
DPF> set_psw1                             # set the above pseudo-Solis & Wets parameters

Creating a new Local Search object using the pseudo-Solis-Wets algorithm (pSW1) with the current settings.

DPF> unbound_model bound                  # state of unbound ligand

DPF> ga_run 100                           # do this many hybrid GA-LS runs

centering ligand on specified point: 0.217 0.012 -0.211
Furthest true ligand atom from "about" center is 6.382 Angstroms (maxrad).
Number of requested GA dockings = 100 runs
Unbound model to be used is 'same as bound' [AutoDock 4.2 default].

	BEGINNING GENETIC ALGORITHM DOCKING 1 of 100
Run: 1 Seed: 260209609 1748746158 [ Run 1 of 100 GA/GALS ]
Beginning LAMARCKIAN GENETIC ALGORITHM (LGA), with a maximum of 2500000 energy evaluations.

Final-Value: -14.753


	FINAL GENETIC ALGORITHM DOCKED STATE
	_______________________________________________


Detailed state:  trans 35.191 13.542 122.949 quatxyzw -0.910610 0.353766 -0.195758 -0.085540 center 0.217 0.012 -0.211 ntor 5 -40.9817 179.7821 141.6784 -13.3910 -69.3053
State:	 35.191  13.542 122.949  -0.914  0.355 -0.196 -170.186    -40.98  179.78  141.68  -13.39  -69.31

DOCKED: MODEL        1
DOCKED: USER    Run = 1
DOCKED: USER    DPF = ligand_dock.biased.dpf
DOCKED: USER  
DOCKED: USER    Estimated Free Energy of Binding    =  -12.18 kcal/mol  [=(1)+(2)+(3)-(4)]
DOCKED: USER    Estimated Inhibition Constant, Ki   =    1.18 nM (nanomolar)  [Temperature = 298.15 K]
DOCKED: USER    
DOCKED: USER    (1) Final Intermolecular Energy     =  -13.67 kcal/mol
DOCKED: USER        vdW + Hbond + desolv Energy     =  -13.67 kcal/mol
DOCKED: USER        Electrostatic Energy            =   +0.00 kcal/mol
DOCKED: USER    (2) Final Total Internal Energy     =   -1.08 kcal/mol
DOCKED: USER    (3) Torsional Free Energy           =   +1.49 kcal/mol
DOCKED: USER    (4) Unbound System's Energy  [=(2)] =   -1.08 kcal/mol
DOCKED: USER    
DOCKED: USER    
DOCKED: USER    NEWDPF move ligand.dum.pdbqt
DOCKED: USER    NEWDPF about 0.217000 0.012000 -0.211000
DOCKED: USER    NEWDPF tran0 35.191249 13.541609 122.949201
DOCKED: USER    NEWDPF quaternion0 -0.910610 0.353766 -0.195758 -0.085540
DOCKED: USER    NEWDPF axisangle0 -0.913960 0.355068 -0.196478 -170.185852
DOCKED: USER    NEWDPF quat0 -0.913960 0.355068 -0.196478 -170.185852
DOCKED: USER    NEWDPF dihe0 -40.98 179.78 141.68 -13.39 -69.31 
DOCKED: USER  keepresnum = 1 
DOCKED: USER  
DOCKED: REMARK  Name = 
DOCKED: REMARK  5 active torsions:
DOCKED: REMARK  status: ('A' for Active; 'I' for Inactive)
DOCKED: REMARK    1  A    between atoms: S_2  and  N_3
DOCKED: REMARK    2  A    between atoms: S_2  and  C_10
DOCKED: REMARK    3  A    between atoms: N_3  and  C_4
DOCKED: REMARK    4  A    between atoms: C_12  and  C_13
DOCKED: REMARK    5  A    between atoms: C_14  and  C_15
DOCKED: REMARK                            x       y       z     vdW  Elec       q    Type
DOCKED: REMARK                         _______ _______ _______ _____ _____    ______ ____
DOCKED: USER                              x       y       z     vdW  Elec       q    Type
DOCKED: USER                           _______ _______ _______ _____ _____    ______ ____
DOCKED: ROOT
DOCKED: ATOM      1  C   UNL     1      36.098  15.459 123.462 -0.40 -0.00    +0.000 A 
DOCKED: ATOM      2  C   UNL     1      35.970  14.066 123.558 -0.49 -0.00    +0.000 A 
DOCKED: ATOM      3  C   UNL     1      37.038  13.221 123.193 -0.52 -0.00    +0.000 A 
DOCKED: ATOM      4  C   UNL     1      38.226  13.798 122.717 -0.41 -0.00    +0.000 A 
DOCKED: ATOM      5  C   UNL     1      38.358  15.187 122.631 -0.33 -0.00    +0.000 A 
DOCKED: ATOM      6  C   UNL     1      37.299  16.016 123.006 -0.28 -0.00    +0.000 A 
DOCKED: ATOM      7  CM  UNL     1      37.165  14.624 123.095 +0.00 -0.00    +0.000 AC
DOCKED: ENDROOT
DOCKED: BRANCH   1   8
DOCKED: ATOM      8  O   UNL     1      35.222  17.665 124.724 -0.34 -0.00    +0.000 OA
DOCKED: ATOM      9  S   UNL     1      34.747  16.501 123.901 -0.61 -0.00    +0.000 S 
DOCKED: ATOM     10  O   UNL     1      33.763  15.700 124.705 -0.64 -0.00    +0.000 OA
DOCKED: BRANCH   8  10
DOCKED: ATOM     11  N   UNL     1      33.965  17.100 122.471 -0.38 -0.00    +0.000 N 
DOCKED: ATOM     12  H   UNL     1      33.041  16.809 122.294 +0.02 -0.00    +0.000 HD
DOCKED: BRANCH  10  12
DOCKED: ATOM     13  C   UNL     1      34.585  17.994 121.530 -0.31 -0.00    +0.000 A 
DOCKED: ATOM     14  C   UNL     1      34.020  18.254 120.267 -0.29 -0.00    +0.000 A 
DOCKED: ATOM     15  C   UNL     1      34.647  19.138 119.382 -0.20 -0.00    +0.000 A 
DOCKED: ATOM     16  C   UNL     1      35.842  19.763 119.743 -0.11 -0.00    +0.000 A 
DOCKED: ATOM     17  C   UNL     1      36.415  19.504 120.989 -0.13 -0.00    +0.000 A 
DOCKED: ATOM     18  C   UNL     1      35.793  18.623 121.878 -0.21 -0.00    +0.000 A 
DOCKED: ATOM     19  CM  UNL     1      35.218  18.879 120.632 +0.00 -0.00    +0.000 AC
DOCKED: ENDBRANCH  10  12
DOCKED: ENDBRANCH   8  10
DOCKED: ENDBRANCH   1   8
DOCKED: BRANCH   3  18
DOCKED: ATOM     20  C   UNL     1      36.944  11.741 123.253 -0.67 -0.00    +0.000 C 
DOCKED: ATOM     21  C   UNL     1      37.076  10.942 122.182 -0.53 -0.00    +0.000 C 
DOCKED: BRANCH  19  20
DOCKED: ATOM     22  C   UNL     1      36.983   9.469 122.250 -0.64 -0.00    +0.000 C 
DOCKED: ATOM     23  N   UNL     1      37.224   8.740 123.459 -0.59 -0.00    +0.000 N 
DOCKED: ATOM     24  O   UNL     1      37.230   7.387 123.446 -2.41 -0.00    +0.000 OA
DOCKED: ATOM     25  O   UNL     1      36.654   8.840 121.209 -2.57 -0.00    +0.000 OA
DOCKED: ATOM     26  H   UNL     1      37.387   9.224 124.301 -0.62 -0.00    +0.000 HD
DOCKED: ENDBRANCH  19  20
DOCKED: ENDBRANCH   3  18
DOCKED: TORSDOF 5DOCKED: TER
DOCKED: ENDMDL
________________________________________________________________________________


	BEGINNING GENETIC ALGORITHM DOCKING 2 of 100
Run: 2 Seed: 1744471141 855180871 [ Run 2 of 100 GA/GALS ]
Beginning LAMARCKIAN GENETIC ALGORITHM (LGA), with a maximum of 2500000 energy evaluations.

Final-Value: -14.074


	FINAL GENETIC ALGORITHM DOCKED STATE
	_______________________________________________


Detailed state:  trans 38.278 14.049 122.040 quatxyzw -0.067952 0.016453 -0.879496 -0.470743 center 0.217 0.012 -0.211 ntor 5 71.7963 100.6211 -90.6013 -3.5505 2.9859
State:	 38.278  14.049 122.040  -0.077  0.019 -0.997 -123.835     71.80  100.62  -90.60   -3.55    2.99

DOCKED: MODEL        2
DOCKED: USER    Run = 2
DOCKED: USER    DPF = ligand_dock.biased.dpf
DOCKED: USER  
DOCKED: USER    Estimated Free Energy of Binding    =  -11.37 kcal/mol  [=(1)+(2)+(3)-(4)]
DOCKED: USER    Estimated Inhibition Constant, Ki   =    4.62 nM (nanomolar)  [Temperature = 298.15 K]
DOCKED: USER    
DOCKED: USER    (1) Final Intermolecular Energy     =  -12.86 kcal/mol
DOCKED: USER        vdW + Hbond + desolv Energy     =  -12.86 kcal/mol
DOCKED: USER        Electrostatic Energy            =   +0.00 kcal/mol
DOCKED: USER    (2) Final Total Internal Energy     =   -1.21 kcal/mol
DOCKED: USER    (3) Torsional Free Energy           =   +1.49 kcal/mol
DOCKED: USER    (4) Unbound System's Energy  [=(2)] =   -1.21 kcal/mol
DOCKED: USER    
DOCKED: USER    
DOCKED: USER    NEWDPF move ligand.dum.pdbqt
DOCKED: USER    NEWDPF about 0.217000 0.012000 -0.211000
DOCKED: USER    NEWDPF tran0 38.278332 14.048827 122.040016
DOCKED: USER    NEWDPF quaternion0 -0.067952 0.016453 -0.879496 -0.470743
DOCKED: USER    NEWDPF axisangle0 -0.077020 0.018648 -0.996855 -123.834976
DOCKED: USER    NEWDPF quat0 -0.077020 0.018648 -0.996855 -123.834976
DOCKED: USER    NEWDPF dihe0 71.80 100.62 -90.60 -3.55 2.99 
DOCKED: USER  keepresnum = 1 
DOCKED: USER  
DOCKED: REMARK  Name = 
DOCKED: REMARK  5 active torsions:
DOCKED: REMARK  status: ('A' for Active; 'I' for Inactive)
DOCKED: REMARK    1  A    between atoms: S_2  and  N_3
DOCKED: REMARK    2  A    between atoms: S_2  and  C_10
DOCKED: REMARK    3  A    between atoms: N_3  and  C_4
DOCKED: REMARK    4  A    between atoms: C_12  and  C_13
DOCKED: REMARK    5  A    between atoms: C_14  and  C_15
DOCKED: REMARK                            x       y       z     vdW  Elec       q    Type
DOCKED: REMARK                         _______ _______ _______ _____ _____    ______ ____
DOCKED: USER                              x       y       z     vdW  Elec       q    Type
DOCKED: USER                           _______ _______ _______ _____ _____    ______ ____
DOCKED: ROOT
DOCKED: ATOM      1  C   UNL     1      36.819  15.669 122.126 -0.26 -0.00    +0.000 A 
DOCKED: ATOM      2  C   UNL     1      37.199  14.330 121.955 -0.35 -0.00    +0.000 A 
DOCKED: ATOM      3  C   UNL     1      36.716  13.331 122.827 -0.50 -0.00    +0.000 A 
DOCKED: ATOM      4  C   UNL     1      35.863  13.704 123.877 -0.48 -0.00    +0.000 A 
DOCKED: ATOM      5  C   UNL     1      35.476  15.037 124.041 -0.48 -0.00    +0.000 A 
DOCKED: ATOM      6  C   UNL     1      35.949  16.017 123.167 -0.35 -0.00    +0.000 A 
DOCKED: ATOM      7  CM  UNL     1      36.337  14.681 122.998 +0.00 -0.00    +0.000 AC
DOCKED: ENDROOT
DOCKED: BRANCH   1   8
DOCKED: ATOM      8  O   UNL     1      37.516  18.237 121.742 -0.11 -0.00    +0.000 OA
DOCKED: ATOM      9  S   UNL     1      37.448  16.908 121.043 -0.19 -0.00    +0.000 S 
DOCKED: ATOM     10  O   UNL     1      36.530  17.023 119.860 -0.16 -0.00    +0.000 OA
DOCKED: BRANCH   8  10
DOCKED: ATOM     11  N   UNL     1      39.037  16.474 120.495 -0.12 -0.00    +0.000 N 
DOCKED: ATOM     12  H   UNL     1      39.192  16.421 119.524 +0.00 -0.00    +0.000 HD
DOCKED: BRANCH  10  12
DOCKED: ATOM     13  C   UNL     1      40.139  16.186 121.373 -0.20 -0.00    +0.000 A 
DOCKED: ATOM     14  C   UNL     1      40.381  14.888 121.864 -0.35 -0.00    +0.000 A 
DOCKED: ATOM     15  C   UNL     1      41.469  14.645 122.708 -0.51 -0.00    +0.000 A 
DOCKED: ATOM     16  C   UNL     1      42.320  15.689 123.077 -0.36 +0.00    +0.000 A 
DOCKED: ATOM     17  C   UNL     1      42.083  16.981 122.603 -0.31 -0.00    +0.000 A 
DOCKED: ATOM     18  C   UNL     1      40.998  17.230 121.758 -0.15 -0.00    +0.000 A 
DOCKED: ATOM     19  CM  UNL     1      41.232  15.937 122.231 +0.00 -0.00    +0.000 AC
DOCKED: ENDBRANCH  10  12
DOCKED: ENDBRANCH   8  10
DOCKED: ENDBRANCH   1   8
DOCKED: BRANCH   3  18
DOCKED: ATOM     20  C   UNL     1      37.108  11.905 122.704 -0.60 -0.00    +0.000 C 
DOCKED: ATOM     21  C   UNL     1      36.256  10.925 122.364 -0.67 -0.00    +0.000 C 
DOCKED: BRANCH  19  20
DOCKED: ATOM     22  C   UNL     1      36.654   9.508 122.241 -0.70 -0.00    +0.000 C 
DOCKED: ATOM     23  N   UNL     1      36.602   8.598 123.347 -0.65 -0.00    +0.000 N 
DOCKED: ATOM     24  O   UNL     1      37.075   7.338 123.210 -2.35 -0.00    +0.000 OA
DOCKED: ATOM     25  O   UNL     1      37.027   9.085 121.114 -2.71 -0.00    +0.000 OA
DOCKED: ATOM     26  H   UNL     1      36.221   8.890 124.207 -0.30 -0.00    +0.000 HD
DOCKED: ENDBRANCH  19  20
DOCKED: ENDBRANCH   3  18
DOCKED: TORSDOF 5DOCKED: TER
DOCKED: ENDMDL
________________________________________________________________________________


	BEGINNING GENETIC ALGORITHM DOCKING 3 of 100
Run: 3 Seed: 408502340 1798205602 [ Run 3 of 100 GA/GALS ]
Beginning LAMARCKIAN GENETIC ALGORITHM (LGA), with a maximum of 2500000 energy evaluations.

Final-Value: -14.438


	FINAL GENETIC ALGORITHM DOCKED STATE
	_______________________________________________


Detailed state:  trans 38.860 13.449 123.405 quatxyzw -0.159357 0.080900 0.919987 0.348832 center 0.217 0.012 -0.211 ntor 5 -2.5649 110.9022 -63.0967 71.6279 98.5114
State:	 38.860  13.449 123.405  -0.170  0.086  0.982 139.168     -2.56  110.90  -63.10   71.63   98.51

DOCKED: MODEL        3
DOCKED: USER    Run = 3
DOCKED: USER    DPF = ligand_dock.biased.dpf
DOCKED: USER  
DOCKED: USER    Estimated Free Energy of Binding    =  -11.50 kcal/mol  [=(1)+(2)+(3)-(4)]
DOCKED: USER    Estimated Inhibition Constant, Ki   =    3.71 nM (nanomolar)  [Temperature = 298.15 K]
DOCKED: USER    
DOCKED: USER    (1) Final Intermolecular Energy     =  -12.99 kcal/mol
DOCKED: USER        vdW + Hbond + desolv Energy     =  -12.99 kcal/mol
DOCKED: USER        Electrostatic Energy            =   +0.00 kcal/mol
DOCKED: USER    (2) Final Total Internal Energy     =   -1.45 kcal/mol
DOCKED: USER    (3) Torsional Free Energy           =   +1.49 kcal/mol
DOCKED: USER    (4) Unbound System's Energy  [=(2)] =   -1.45 kcal/mol
DOCKED: USER    
DOCKED: USER    
DOCKED: USER    NEWDPF move ligand.dum.pdbqt
DOCKED: USER    NEWDPF about 0.217000 0.012000 -0.211000
DOCKED: USER    NEWDPF tran0 38.859632 13.448900 123.405283
DOCKED: USER    NEWDPF quaternion0 -0.159357 0.080900 0.919987 0.348832
DOCKED: USER    NEWDPF axisangle0 -0.170038 0.086322 0.981649 139.168256
DOCKED: USER    NEWDPF quat0 -0.170038 0.086322 0.981649 139.168256
DOCKED: USER    NEWDPF dihe0 -2.56 110.90 -63.10 71.63 98.51 
DOCKED: USER  keepresnum = 1 
DOCKED: USER  
DOCKED: REMARK  Name = 
DOCKED: REMARK  5 active torsions:
DOCKED: REMARK  status: ('A' for Active; 'I' for Inactive)
DOCKED: REMARK    1  A    between atoms: S_2  and  N_3
DOCKED: REMARK    2  A    between atoms: S_2  and  C_10
DOCKED: REMARK    3  A    between atoms: N_3  and  C_4
DOCKED: REMARK    4  A    between atoms: C_12  and  C_13
DOCKED: REMARK    5  A    between atoms: C_14  and  C_15
DOCKED: REMARK                            x       y       z     vdW  Elec       q    Type
DOCKED: REMARK                         _______ _______ _______ _____ _____    ______ ____
DOCKED: USER                              x       y       z     vdW  Elec       q    Type
DOCKED: USER                           _______ _______ _______ _____ _____    ______ ____
DOCKED: ROOT
DOCKED: ATOM      1  C   UNL     1      37.956  15.377 122.931 -0.32 -0.00    +0.000 A 
DOCKED: ATOM      2  C   UNL     1      38.050  13.981 122.846 -0.43 -0.00    +0.000 A 
DOCKED: ATOM      3  C   UNL     1      36.994  13.163 123.300 -0.53 -0.00    +0.000 A 
DOCKED: ATOM      4  C   UNL     1      35.855  13.771 123.852 -0.49 -0.00    +0.000 A 
DOCKED: ATOM      5  C   UNL     1      35.757  15.163 123.927 -0.44 -0.00    +0.000 A 
DOCKED: ATOM      6  C   UNL     1      36.802  15.965 123.465 -0.32 -0.00    +0.000 A 
DOCKED: ATOM      7  CM  UNL     1      36.902  14.569 123.386 +0.00 -0.00    +0.000 AC
DOCKED: ENDROOT
DOCKED: BRANCH   1   8
DOCKED: ATOM      8  O   UNL     1      40.564  16.011 123.087 -0.47 -0.00    +0.000 OA
DOCKED: ATOM      9  S   UNL     1      39.291  16.386 122.381 -0.32 -0.00    +0.000 S 
DOCKED: ATOM     10  O   UNL     1      38.967  17.820 122.683 -0.14 -0.00    +0.000 OA
DOCKED: BRANCH   8  10
DOCKED: ATOM     11  N   UNL     1      39.517  16.199 120.670 -0.16 -0.00    +0.000 N 
DOCKED: ATOM     12  H   UNL     1      40.383  16.468 120.286 +0.00 -0.00    +0.000 HD
DOCKED: BRANCH  10  12
DOCKED: ATOM     13  C   UNL     1      38.515  15.675 119.780 -0.16 -0.00    +0.000 A 
DOCKED: ATOM     14  C   UNL     1      37.696  16.517 119.003 -0.11 -0.00    +0.000 A 
DOCKED: ATOM     15  C   UNL     1      36.739  15.971 118.141 -0.15 -0.00    +0.000 A 
DOCKED: ATOM     16  C   UNL     1      36.585  14.586 118.050 -0.29 -0.00    +0.000 A 
DOCKED: ATOM     17  C   UNL     1      37.387  13.743 118.823 -0.36 -0.00    +0.000 A 
DOCKED: ATOM     18  C   UNL     1      38.344  14.283 119.685 -0.19 -0.00    +0.000 A 
DOCKED: ATOM     19  CM  UNL     1      37.544  15.128 118.914 +0.00 -0.00    +0.000 AC
DOCKED: ENDBRANCH  10  12
DOCKED: ENDBRANCH   8  10
DOCKED: ENDBRANCH   1   8
DOCKED: BRANCH   3  18
DOCKED: ATOM     20  C   UNL     1      37.055  11.681 123.255 -0.66 -0.00    +0.000 C 
DOCKED: ATOM     21  C   UNL     1      36.711  10.953 122.182 -0.63 -0.00    +0.000 C 
DOCKED: BRANCH  19  20
DOCKED: ATOM     22  C   UNL     1      36.777   9.477 122.144 -0.68 -0.00    +0.000 C 
DOCKED: ATOM     23  N   UNL     1      36.902   8.684 123.331 -0.66 -0.00    +0.000 N 
DOCKED: ATOM     24  O   UNL     1      37.064   7.344 123.237 -2.37 -0.00    +0.000 OA
DOCKED: ATOM     25  O   UNL     1      36.694   8.901 121.026 -2.61 -0.00    +0.000 OA
DOCKED: ATOM     26  H   UNL     1      36.871   9.116 124.216 -0.52 -0.00    +0.000 HD
DOCKED: ENDBRANCH  19  20
DOCKED: ENDBRANCH   3  18
DOCKED: TORSDOF 5DOCKED: TER
DOCKED: ENDMDL
________________________________________________________________________________


	BEGINNING GENETIC ALGORITHM DOCKING 4 of 100
Run: 4 Seed: 1888803779 36084295 [ Run 4 of 100 GA/GALS ]
Beginning LAMARCKIAN GENETIC ALGORITHM (LGA), with a maximum of 2500000 energy evaluations.

Final-Value: -14.466


	FINAL GENETIC ALGORITHM DOCKED STATE
	_______________________________________________


Detailed state:  trans 38.377 13.609 123.586 quatxyzw -0.194969 0.084237 0.921264 0.325829 center 0.217 0.012 -0.211 ntor 5 -41.1935 -82.6378 -21.2555 -139.8696 5.6078
State:	 38.377  13.609 123.586  -0.206  0.089  0.974 141.968    -41.19  -82.64  -21.26 -139.87    5.61

DOCKED: MODEL        4
DOCKED: USER    Run = 4
DOCKED: USER    DPF = ligand_dock.biased.dpf
DOCKED: USER  
DOCKED: USER    Estimated Free Energy of Binding    =  -12.01 kcal/mol  [=(1)+(2)+(3)-(4)]
DOCKED: USER    Estimated Inhibition Constant, Ki   =    1.58 nM (nanomolar)  [Temperature = 298.15 K]
DOCKED: USER    
DOCKED: USER    (1) Final Intermolecular Energy     =  -13.50 kcal/mol
DOCKED: USER        vdW + Hbond + desolv Energy     =  -13.50 kcal/mol
DOCKED: USER        Electrostatic Energy            =   +0.00 kcal/mol
DOCKED: USER    (2) Final Total Internal Energy     =   -0.97 kcal/mol
DOCKED: USER    (3) Torsional Free Energy           =   +1.49 kcal/mol
DOCKED: USER    (4) Unbound System's Energy  [=(2)] =   -0.97 kcal/mol
DOCKED: USER    
DOCKED: USER    
DOCKED: USER    NEWDPF move ligand.dum.pdbqt
DOCKED: USER    NEWDPF about 0.217000 0.012000 -0.211000
DOCKED: USER    NEWDPF tran0 38.376545 13.609067 123.586256
DOCKED: USER    NEWDPF quaternion0 -0.194969 0.084237 0.921264 0.325829
DOCKED: USER    NEWDPF axisangle0 -0.206223 0.089099 0.974440 141.968367
DOCKED: USER    NEWDPF quat0 -0.206223 0.089099 0.974440 141.968367
DOCKED: USER    NEWDPF dihe0 -41.19 -82.64 -21.26 -139.87 5.61 
DOCKED: USER  keepresnum = 1 
DOCKED: USER  
DOCKED: REMARK  Name = 
DOCKED: REMARK  5 active torsions:
DOCKED: REMARK  status: ('A' for Active; 'I' for Inactive)
DOCKED: REMARK    1  A    between atoms: S_2  and  N_3
DOCKED: REMARK    2  A    between atoms: S_2  and  C_10
DOCKED: REMARK    3  A    between atoms: N_3  and  C_4
DOCKED: REMARK    4  A    between atoms: C_12  and  C_13
DOCKED: REMARK    5  A    between atoms: C_14  and  C_15
DOCKED: REMARK                            x       y       z     vdW  Elec       q    Type
DOCKED: REMARK                         _______ _______ _______ _____ _____    ______ ____
DOCKED: USER                              x       y       z     vdW  Elec       q    Type
DOCKED: USER                           _______ _______ _______ _____ _____    ______ ____
DOCKED: ROOT
DOCKED: ATOM      1  C   UNL     1      37.582  15.583 123.103 -0.32 -0.00    +0.000 A 
DOCKED: ATOM      2  C   UNL     1      37.629  14.186 122.986 -0.44 -0.00    +0.000 A 
DOCKED: ATOM      3  C   UNL     1      36.514  13.399 123.342 -0.53 -0.00    +0.000 A 
DOCKED: ATOM      4  C   UNL     1      35.362  14.038 123.829 -0.41 -0.00    +0.000 A 
DOCKED: ATOM      5  C   UNL     1      35.311  15.430 123.935 -0.48 -0.00    +0.000 A 
DOCKED: ATOM      6  C   UNL     1      36.415  16.202 123.570 -0.32 -0.00    +0.000 A 
DOCKED: ATOM      7  CM  UNL     1      36.469  14.806 123.460 +0.00 -0.00    +0.000 AC
DOCKED: ENDROOT
DOCKED: BRANCH   1   8
DOCKED: ATOM      8  O   UNL     1      39.051  17.796 123.516 -0.21 -0.00    +0.000 OA
DOCKED: ATOM      9  S   UNL     1      38.990  16.551 122.677 -0.32 -0.00    +0.000 S 
DOCKED: ATOM     10  O   UNL     1      38.887  16.940 121.230 -0.12 -0.00    +0.000 OA
DOCKED: BRANCH   8  10
DOCKED: ATOM     11  N   UNL     1      40.444  15.633 122.920 -0.35 -0.00    +0.000 N 
DOCKED: ATOM     12  H   UNL     1      40.378  14.789 123.422 -0.03 -0.00    +0.000 HD
DOCKED: BRANCH  10  12
DOCKED: ATOM     13  C   UNL     1      41.737  16.031 122.431 -0.39 -0.00    +0.000 A 
DOCKED: ATOM     14  C   UNL     1      42.244  15.568 121.201 -0.21 -0.00    +0.000 A 
DOCKED: ATOM     15  C   UNL     1      43.502  15.985 120.754 -0.25 -0.00    +0.000 A 
DOCKED: ATOM     16  C   UNL     1      44.268  16.859 121.529 -0.24 -0.00    +0.000 A 
DOCKED: ATOM     17  C   UNL     1      43.778  17.316 122.754 -0.30 -0.00    +0.000 A 
DOCKED: ATOM     18  C   UNL     1      42.522  16.903 123.205 -0.35 -0.00    +0.000 A 
DOCKED: ATOM     19  CM  UNL     1      43.009  16.444 121.979 +0.00 -0.00    +0.000 AC
DOCKED: ENDBRANCH  10  12
DOCKED: ENDBRANCH   8  10
DOCKED: ENDBRANCH   1   8
DOCKED: BRANCH   3  18
DOCKED: ATOM     20  C   UNL     1      36.522  11.917 123.260 -0.69 -0.00    +0.000 C 
DOCKED: ATOM     21  C   UNL     1      37.022  11.231 122.221 -0.57 -0.00    +0.000 C 
DOCKED: BRANCH  19  20
DOCKED: ATOM     22  C   UNL     1      37.029   9.755 122.149 -0.60 -0.00    +0.000 C 
DOCKED: ATOM     23  N   UNL     1      36.968   8.930 123.319 -0.63 -0.00    +0.000 N 
DOCKED: ATOM     24  O   UNL     1      37.083   7.586 123.207 -2.49 -0.00    +0.000 OA
DOCKED: ATOM     25  O   UNL     1      37.064   9.210 121.014 -2.74 -0.00    +0.000 OA
DOCKED: ATOM     26  H   UNL     1      36.843   9.341 124.205 -0.53 -0.00    +0.000 HD
DOCKED: ENDBRANCH  19  20
DOCKED: ENDBRANCH   3  18
DOCKED: TORSDOF 5DOCKED: TER
DOCKED: ENDMDL
________________________________________________________________________________


	BEGINNING GENETIC ALGORITHM DOCKING 5 of 100
Run: 5 Seed: 1336020444 1399154747 [ Run 5 of 100 GA/GALS ]
Beginning LAMARCKIAN GENETIC ALGORITHM (LGA), with a maximum of 2500000 energy evaluations.

Final-Value: -14.723


	FINAL GENETIC ALGORITHM DOCKED STATE
	_______________________________________________


Detailed state:  trans 34.927 13.518 123.260 quatxyzw 0.915502 -0.365999 0.131821 0.102590 center 0.217 0.012 -0.211 ntor 5 -46.1590 179.7501 160.9326 -115.9453 -180.0000
State:	 34.927  13.518 123.260   0.920 -0.368  0.133 168.223    -46.16  179.75  160.93 -115.95 -180.00

DOCKED: MODEL        5
DOCKED: USER    Run = 5
DOCKED: USER    DPF = ligand_dock.biased.dpf
DOCKED: USER  
DOCKED: USER    Estimated Free Energy of Binding    =  -12.32 kcal/mol  [=(1)+(2)+(3)-(4)]
DOCKED: USER    Estimated Inhibition Constant, Ki   =  926.78 pM (picomolar)  [Temperature = 298.15 K]
DOCKED: USER    
DOCKED: USER    (1) Final Intermolecular Energy     =  -13.81 kcal/mol
DOCKED: USER        vdW + Hbond + desolv Energy     =  -13.81 kcal/mol
DOCKED: USER        Electrostatic Energy            =   +0.00 kcal/mol
DOCKED: USER    (2) Final Total Internal Energy     =   -0.91 kcal/mol
DOCKED: USER    (3) Torsional Free Energy           =   +1.49 kcal/mol
DOCKED: USER    (4) Unbound System's Energy  [=(2)] =   -0.91 kcal/mol
DOCKED: USER    
DOCKED: USER    
DOCKED: USER    NEWDPF move ligand.dum.pdbqt
DOCKED: USER    NEWDPF about 0.217000 0.012000 -0.211000
DOCKED: USER    NEWDPF tran0 34.926820 13.518341 123.260164
DOCKED: USER    NEWDPF quaternion0 0.915502 -0.365999 0.131821 0.102590
DOCKED: USER    NEWDPF axisangle0 0.920358 -0.367940 0.132520 168.223285
DOCKED: USER    NEWDPF quat0 0.920358 -0.367940 0.132520 168.223285
DOCKED: USER    NEWDPF dihe0 -46.16 179.75 160.93 -115.95 -180.00 
DOCKED: USER  keepresnum = 1 
DOCKED: USER  
DOCKED: REMARK  Name = 
DOCKED: REMARK  5 active torsions:
DOCKED: REMARK  status: ('A' for Active; 'I' for Inactive)
DOCKED: REMARK    1  A    between atoms: S_2  and  N_3
DOCKED: REMARK    2  A    between atoms: S_2  and  C_10
DOCKED: REMARK    3  A    between atoms: N_3  and  C_4
DOCKED: REMARK    4  A    between atoms: C_12  and  C_13
DOCKED: REMARK    5  A    between atoms: C_14  and  C_15
DOCKED: REMARK                            x       y       z     vdW  Elec       q    Type
DOCKED: REMARK                         _______ _______ _______ _____ _____    ______ ____
DOCKED: USER                              x       y       z     vdW  Elec       q    Type
DOCKED: USER                           _______ _______ _______ _____ _____    ______ ____
DOCKED: ROOT
DOCKED: ATOM      1  C   UNL     1      35.894  15.391 123.824 -0.42 -0.00    +0.000 A 
DOCKED: ATOM      2  C   UNL     1      35.769  13.994 123.822 -0.49 -0.00    +0.000 A 
DOCKED: ATOM      3  C   UNL     1      36.788  13.185 123.276 -0.54 -0.00    +0.000 A 
DOCKED: ATOM      4  C   UNL     1      37.920  13.802 122.722 -0.44 -0.00    +0.000 A 
DOCKED: ATOM      5  C   UNL     1      38.050  15.194 122.734 -0.34 -0.00    +0.000 A 
DOCKED: ATOM      6  C   UNL     1      37.042  15.986 123.287 -0.30 -0.00    +0.000 A 
DOCKED: ATOM      7  CM  UNL     1      36.911  14.592 123.278 +0.00 -0.00    +0.000 AC
DOCKED: ENDROOT
DOCKED: BRANCH   1   8
DOCKED: ATOM      8  O   UNL     1      33.810  15.622 125.507 -0.79 -0.00    +0.000 OA
DOCKED: ATOM      9  S   UNL     1      34.604  16.390 124.488 -0.64 -0.00    +0.000 S 
DOCKED: ATOM     10  O   UNL     1      33.694  16.807 123.369 -0.38 -0.00    +0.000 OA
DOCKED: BRANCH   8  10
DOCKED: ATOM     11  N   UNL     1      35.272  17.806 125.240 -0.28 -0.00    +0.000 N 
DOCKED: ATOM     12  H   UNL     1      36.222  18.009 125.081 -0.01 -0.00    +0.000 HD
DOCKED: BRANCH  10  12
DOCKED: ATOM     13  C   UNL     1      34.519  18.701 126.079 -0.25 -0.00    +0.000 A 
DOCKED: ATOM     14  C   UNL     1      35.146  19.685 126.868 -0.13 -0.00    +0.000 A 
DOCKED: ATOM     15  C   UNL     1      34.381  20.544 127.664 -0.08 -0.00    +0.000 A 
DOCKED: ATOM     16  C   UNL     1      32.989  20.426 127.687 -0.12 -0.00    +0.000 A 
DOCKED: ATOM     17  C   UNL     1      32.360  19.447 126.916 -0.24 -0.00    +0.000 A 
DOCKED: ATOM     18  C   UNL     1      33.119  18.587 126.118 -0.26 -0.00    +0.000 A 
DOCKED: ATOM     19  CM  UNL     1      33.752  19.565 126.889 +0.00 -0.00    +0.000 AC
DOCKED: ENDBRANCH  10  12
DOCKED: ENDBRANCH   8  10
DOCKED: ENDBRANCH   1   8
DOCKED: BRANCH   3  18
DOCKED: ATOM     20  C   UNL     1      36.692  11.704 123.227 -0.69 -0.00    +0.000 C 
DOCKED: ATOM     21  C   UNL     1      37.066  10.968 122.169 -0.55 -0.00    +0.000 C 
DOCKED: BRANCH  19  20
DOCKED: ATOM     22  C   UNL     1      36.970   9.495 122.129 -0.64 -0.00    +0.000 C 
DOCKED: ATOM     23  N   UNL     1      37.047   8.688 123.311 -0.67 -0.00    +0.000 N 
DOCKED: ATOM     24  O   UNL     1      37.059   7.339 123.211 -2.35 -0.00    +0.000 OA
DOCKED: ATOM     25  O   UNL     1      36.789   8.935 121.014 -2.64 -0.00    +0.000 OA
DOCKED: ATOM     26  H   UNL     1      37.092   9.116 124.196 -0.58 -0.00    +0.000 HD
DOCKED: ENDBRANCH  19  20
DOCKED: ENDBRANCH   3  18
DOCKED: TORSDOF 5DOCKED: TER
DOCKED: ENDMDL
________________________________________________________________________________


	BEGINNING GENETIC ALGORITHM DOCKING 6 of 100
Run: 6 Seed: 2119661809 407134669 [ Run 6 of 100 GA/GALS ]
Beginning LAMARCKIAN GENETIC ALGORITHM (LGA), with a maximum of 2500000 energy evaluations.

Final-Value: -14.331


	FINAL GENETIC ALGORITHM DOCKED STATE
	_______________________________________________


Detailed state:  trans 35.294 13.645 123.128 quatxyzw -0.943896 0.321259 -0.070316 -0.030135 center 0.217 0.012 -0.211 ntor 5 4.4137 -88.2478 123.0727 -8.4836 -173.9406
State:	 35.294  13.645 123.128  -0.944  0.321 -0.070 -176.546      4.41  -88.25  123.07   -8.48 -173.94

DOCKED: MODEL        6
DOCKED: USER    Run = 6
DOCKED: USER    DPF = ligand_dock.biased.dpf
DOCKED: USER  
DOCKED: USER    Estimated Free Energy of Binding    =  -11.75 kcal/mol  [=(1)+(2)+(3)-(4)]
DOCKED: USER    Estimated Inhibition Constant, Ki   =    2.45 nM (nanomolar)  [Temperature = 298.15 K]
DOCKED: USER    
DOCKED: USER    (1) Final Intermolecular Energy     =  -13.24 kcal/mol
DOCKED: USER        vdW + Hbond + desolv Energy     =  -13.24 kcal/mol
DOCKED: USER        Electrostatic Energy            =   +0.00 kcal/mol
DOCKED: USER    (2) Final Total Internal Energy     =   -1.09 kcal/mol
DOCKED: USER    (3) Torsional Free Energy           =   +1.49 kcal/mol
DOCKED: USER    (4) Unbound System's Energy  [=(2)] =   -1.09 kcal/mol
DOCKED: USER    
DOCKED: USER    
DOCKED: USER    NEWDPF move ligand.dum.pdbqt
DOCKED: USER    NEWDPF about 0.217000 0.012000 -0.211000
DOCKED: USER    NEWDPF tran0 35.294359 13.645422 123.128018
DOCKED: USER    NEWDPF quaternion0 -0.943896 0.321259 -0.070316 -0.030135
DOCKED: USER    NEWDPF axisangle0 -0.944325 0.321405 -0.070348 -176.546209
DOCKED: USER    NEWDPF quat0 -0.944325 0.321405 -0.070348 -176.546209
DOCKED: USER    NEWDPF dihe0 4.41 -88.25 123.07 -8.48 -173.94 
DOCKED: USER  keepresnum = 1 
DOCKED: USER  
DOCKED: REMARK  Name = 
DOCKED: REMARK  5 active torsions:
DOCKED: REMARK  status: ('A' for Active; 'I' for Inactive)
DOCKED: REMARK    1  A    between atoms: S_2  and  N_3
DOCKED: REMARK    2  A    between atoms: S_2  and  C_10
DOCKED: REMARK    3  A    between atoms: N_3  and  C_4
DOCKED: REMARK    4  A    between atoms: C_12  and  C_13
DOCKED: REMARK    5  A    between atoms: C_14  and  C_15
DOCKED: REMARK                            x       y       z     vdW  Elec       q    Type
DOCKED: REMARK                         _______ _______ _______ _____ _____    ______ ____
DOCKED: USER                              x       y       z     vdW  Elec       q    Type
DOCKED: USER                           _______ _______ _______ _____ _____    ______ ____
DOCKED: ROOT
DOCKED: ATOM      1  C   UNL     1      36.138  15.647 123.337 -0.37 -0.00    +0.000 A 
DOCKED: ATOM      2  C   UNL     1      36.161  14.253 123.491 -0.47 -0.00    +0.000 A 
DOCKED: ATOM      3  C   UNL     1      37.159  13.479 122.864 -0.49 -0.00    +0.000 A 
DOCKED: ATOM      4  C   UNL     1      38.119  14.126 122.070 -0.40 -0.00    +0.000 A 
DOCKED: ATOM      5  C   UNL     1      38.103  15.516 121.925 -0.26 -0.00    +0.000 A 
DOCKED: ATOM      6  C   UNL     1      37.119  16.275 122.560 -0.24 -0.00    +0.000 A 
DOCKED: ATOM      7  CM  UNL     1      37.133  14.882 122.708 +0.00 -0.00    +0.000 AC
DOCKED: ENDROOT
DOCKED: BRANCH   1   8
DOCKED: ATOM      8  O   UNL     1      34.436  15.956 125.396 -0.60 -0.00    +0.000 OA
DOCKED: ATOM      9  S   UNL     1      34.872  16.598 124.109 -0.59 -0.00    +0.000 S 
DOCKED: ATOM     10  O   UNL     1      33.697  16.679 123.178 -0.38 -0.00    +0.000 OA
DOCKED: BRANCH   8  10
DOCKED: ATOM     11  N   UNL     1      35.449  18.202 124.443 -0.26 -0.00    +0.000 N 
DOCKED: ATOM     12  H   UNL     1      34.985  18.958 124.016 -0.01 -0.00    +0.000 HD
DOCKED: BRANCH  10  12
DOCKED: ATOM     13  C   UNL     1      36.564  18.491 125.305 -0.17 -0.00    +0.000 A 
DOCKED: ATOM     14  C   UNL     1      36.385  18.921 126.635 -0.14 -0.00    +0.000 A 
DOCKED: ATOM     15  C   UNL     1      37.493  19.183 127.447 -0.12 -0.00    +0.000 A 
DOCKED: ATOM     16  C   UNL     1      38.785  19.028 126.942 -0.17 -0.00    +0.000 A 
DOCKED: ATOM     17  C   UNL     1      38.973  18.612 125.623 -0.18 -0.00    +0.000 A 
DOCKED: ATOM     18  C   UNL     1      37.869  18.347 124.807 -0.16 -0.00    +0.000 A 
DOCKED: ATOM     19  CM  UNL     1      37.679  18.764 126.126 +0.00 -0.00    +0.000 AC
DOCKED: ENDBRANCH  10  12
DOCKED: ENDBRANCH   8  10
DOCKED: ENDBRANCH   1   8
DOCKED: BRANCH   3  18
DOCKED: ATOM     20  C   UNL     1      37.211  12.000 122.975 -0.59 -0.00    +0.000 C 
DOCKED: ATOM     21  C   UNL     1      36.769  11.165 122.022 -0.61 -0.00    +0.000 C 
DOCKED: BRANCH  19  20
DOCKED: ATOM     22  C   UNL     1      36.827   9.693 122.138 -0.65 -0.00    +0.000 C 
DOCKED: ATOM     23  N   UNL     1      36.911   9.027 123.404 -0.59 -0.00    +0.000 N 
DOCKED: ATOM     24  O   UNL     1      37.068   7.684 123.454 -2.67 -0.00    +0.000 OA
DOCKED: ATOM     25  O   UNL     1      36.774   9.005 121.084 -2.64 -0.00    +0.000 OA
DOCKED: ATOM     26  H   UNL     1      36.856   9.547 124.239 -0.51 -0.00    +0.000 HD
DOCKED: ENDBRANCH  19  20
DOCKED: ENDBRANCH   3  18
DOCKED: TORSDOF 5DOCKED: TER
DOCKED: ENDMDL
________________________________________________________________________________


	BEGINNING GENETIC ALGORITHM DOCKING 7 of 100
Run: 7 Seed: 658947013 58229030 [ Run 7 of 100 GA/GALS ]
Beginning LAMARCKIAN GENETIC ALGORITHM (LGA), with a maximum of 2500000 energy evaluations.

Final-Value: -13.998


	FINAL GENETIC ALGORITHM DOCKED STATE
	_______________________________________________


Detailed state:  trans 36.118 13.701 122.020 quatxyzw -0.867623 0.387309 0.289717 0.115269 center 0.217 0.012 -0.211 ntor 5 156.2477 173.6243 12.3697 -101.0999 5.2107
State:	 36.118  13.701 122.020  -0.873  0.390  0.292 166.762    156.25  173.62   12.37 -101.10    5.21

DOCKED: MODEL        7
DOCKED: USER    Run = 7
DOCKED: USER    DPF = ligand_dock.biased.dpf
DOCKED: USER  
DOCKED: USER    Estimated Free Energy of Binding    =  -11.57 kcal/mol  [=(1)+(2)+(3)-(4)]
DOCKED: USER    Estimated Inhibition Constant, Ki   =    3.30 nM (nanomolar)  [Temperature = 298.15 K]
DOCKED: USER    
DOCKED: USER    (1) Final Intermolecular Energy     =  -13.06 kcal/mol
DOCKED: USER        vdW + Hbond + desolv Energy     =  -13.06 kcal/mol
DOCKED: USER        Electrostatic Energy            =   +0.00 kcal/mol
DOCKED: USER    (2) Final Total Internal Energy     =   -0.93 kcal/mol
DOCKED: USER    (3) Torsional Free Energy           =   +1.49 kcal/mol
DOCKED: USER    (4) Unbound System's Energy  [=(2)] =   -0.93 kcal/mol
DOCKED: USER    
DOCKED: USER    
DOCKED: USER    NEWDPF move ligand.dum.pdbqt
DOCKED: USER    NEWDPF about 0.217000 0.012000 -0.211000
DOCKED: USER    NEWDPF tran0 36.117904 13.701241 122.020013
DOCKED: USER    NEWDPF quaternion0 -0.867623 0.387309 0.289717 0.115269
DOCKED: USER    NEWDPF axisangle0 -0.873445 0.389908 0.291661 166.761715
DOCKED: USER    NEWDPF quat0 -0.873445 0.389908 0.291661 166.761715
DOCKED: USER    NEWDPF dihe0 156.25 173.62 12.37 -101.10 5.21 
DOCKED: USER  keepresnum = 1 
DOCKED: USER  
DOCKED: REMARK  Name = 
DOCKED: REMARK  5 active torsions:
DOCKED: REMARK  status: ('A' for Active; 'I' for Inactive)
DOCKED: REMARK    1  A    between atoms: S_2  and  N_3
DOCKED: REMARK    2  A    between atoms: S_2  and  C_10
DOCKED: REMARK    3  A    between atoms: N_3  and  C_4
DOCKED: REMARK    4  A    between atoms: C_12  and  C_13
DOCKED: REMARK    5  A    between atoms: C_14  and  C_15
DOCKED: REMARK                            x       y       z     vdW  Elec       q    Type
DOCKED: REMARK                         _______ _______ _______ _____ _____    ______ ____
DOCKED: USER                              x       y       z     vdW  Elec       q    Type
DOCKED: USER                           _______ _______ _______ _____ _____    ______ ____
DOCKED: ROOT
DOCKED: ATOM      1  C   UNL     1      37.144  15.520 121.389 -0.22 -0.00    +0.000 A 
DOCKED: ATOM      2  C   UNL     1      37.063  14.138 121.612 -0.32 -0.00    +0.000 A 
DOCKED: ATOM      3  C   UNL     1      37.196  13.231 120.540 -0.40 -0.00    +0.000 A 
DOCKED: ATOM      4  C   UNL     1      37.394  13.737 119.245 -0.36 -0.00    +0.000 A 
DOCKED: ATOM      5  C   UNL     1      37.485  15.114 119.025 -0.21 -0.00    +0.000 A 
DOCKED: ATOM      6  C   UNL     1      37.365  16.004 120.093 -0.16 -0.00    +0.000 A 
DOCKED: ATOM      7  CM  UNL     1      37.275  14.624 120.318 +0.00 -0.00    +0.000 AC
DOCKED: ENDROOT
DOCKED: BRANCH   1   8
DOCKED: ATOM      8  O   UNL     1      36.346  17.934 122.265 -0.19 -0.00    +0.000 OA
DOCKED: ATOM      9  S   UNL     1      36.955  16.642 122.734 -0.33 -0.00    +0.000 S 
DOCKED: ATOM     10  O   UNL     1      38.308  16.923 123.321 -0.26 -0.00    +0.000 OA
DOCKED: BRANCH   8  10
DOCKED: ATOM     11  N   UNL     1      35.935  15.946 123.955 -0.39 -0.00    +0.000 N 
DOCKED: ATOM     12  H   UNL     1      35.896  14.964 124.019 -0.03 -0.00    +0.000 HD
DOCKED: BRANCH  10  12
DOCKED: ATOM     13  C   UNL     1      35.145  16.717 124.878 -0.33 -0.00    +0.000 A 
DOCKED: ATOM     14  C   UNL     1      34.064  16.153 125.584 -0.40 -0.00    +0.000 A 
DOCKED: ATOM     15  C   UNL     1      33.325  16.932 126.480 -0.30 -0.00    +0.000 A 
DOCKED: ATOM     16  C   UNL     1      33.649  18.275 126.677 -0.28 -0.00    +0.000 A 
DOCKED: ATOM     17  C   UNL     1      34.713  18.845 125.975 -0.23 -0.00    +0.000 A 
DOCKED: ATOM     18  C   UNL     1      35.456  18.072 125.078 -0.25 -0.00    +0.000 A 
DOCKED: ATOM     19  CM  UNL     1      34.392  17.500 125.778 -0.27 -0.00    +0.000 AC
DOCKED: ENDBRANCH  10  12
DOCKED: ENDBRANCH   8  10
DOCKED: ENDBRANCH   1   8
DOCKED: BRANCH   3  18
DOCKED: ATOM     20  C   UNL     1      37.093  11.761 120.719 -0.45 -0.00    +0.000 C 
DOCKED: ATOM     21  C   UNL     1      37.069  11.157 121.916 -0.54 -0.00    +0.000 C 
DOCKED: BRANCH  19  20
DOCKED: ATOM     22  C   UNL     1      36.964   9.693 122.086 -0.62 -0.00    +0.000 C 
DOCKED: ATOM     23  N   UNL     1      37.063   9.060 123.368 -0.60 -0.00    +0.000 N 
DOCKED: ATOM     24  O   UNL     1      37.065   7.710 123.460 -2.69 -0.00    +0.000 OA
DOCKED: ATOM     25  O   UNL     1      36.754   8.983 121.066 -2.63 -0.00    +0.000 OA
DOCKED: ATOM     26  H   UNL     1      37.130   9.609 124.183 -0.59 -0.00    +0.000 HD
DOCKED: ENDBRANCH  19  20
DOCKED: ENDBRANCH   3  18
DOCKED: TORSDOF 5DOCKED: TER
DOCKED: ENDMDL
________________________________________________________________________________


	BEGINNING GENETIC ALGORITHM DOCKING 8 of 100
Run: 8 Seed: 269795643 362254941 [ Run 8 of 100 GA/GALS ]
Beginning LAMARCKIAN GENETIC ALGORITHM (LGA), with a maximum of 2500000 energy evaluations.

Final-Value: -13.515


	FINAL GENETIC ALGORITHM DOCKED STATE
	_______________________________________________


Detailed state:  trans 38.233 13.823 121.190 quatxyzw 0.117650 -0.116650 0.919322 0.356930 center 0.217 0.012 -0.211 ntor 5 -180.0000 -97.0777 156.6321 -5.1644 -17.9867
State:	 38.233  13.823 121.190   0.126 -0.125  0.984 138.176   -180.00  -97.08  156.63   -5.16  -17.99

DOCKED: MODEL        8
DOCKED: USER    Run = 8
DOCKED: USER    DPF = ligand_dock.biased.dpf
DOCKED: USER  
DOCKED: USER    Estimated Free Energy of Binding    =  -10.80 kcal/mol  [=(1)+(2)+(3)-(4)]
DOCKED: USER    Estimated Inhibition Constant, Ki   =   12.15 nM (nanomolar)  [Temperature = 298.15 K]
DOCKED: USER    
DOCKED: USER    (1) Final Intermolecular Energy     =  -12.29 kcal/mol
DOCKED: USER        vdW + Hbond + desolv Energy     =  -12.29 kcal/mol
DOCKED: USER        Electrostatic Energy            =   +0.00 kcal/mol
DOCKED: USER    (2) Final Total Internal Energy     =   -1.22 kcal/mol
DOCKED: USER    (3) Torsional Free Energy           =   +1.49 kcal/mol
DOCKED: USER    (4) Unbound System's Energy  [=(2)] =   -1.22 kcal/mol
DOCKED: USER    
DOCKED: USER    
DOCKED: USER    NEWDPF move ligand.dum.pdbqt
DOCKED: USER    NEWDPF about 0.217000 0.012000 -0.211000
DOCKED: USER    NEWDPF tran0 38.232591 13.823123 121.190150
DOCKED: USER    NEWDPF quaternion0 0.117650 -0.116650 0.919322 0.356930
DOCKED: USER    NEWDPF axisangle0 0.125945 -0.124875 0.984146 138.176441
DOCKED: USER    NEWDPF quat0 0.125945 -0.124875 0.984146 138.176441
DOCKED: USER    NEWDPF dihe0 -180.00 -97.08 156.63 -5.16 -17.99 
DOCKED: USER  keepresnum = 1 
DOCKED: USER  
DOCKED: REMARK  Name = 
DOCKED: REMARK  5 active torsions:
DOCKED: REMARK  status: ('A' for Active; 'I' for Inactive)
DOCKED: REMARK    1  A    between atoms: S_2  and  N_3
DOCKED: REMARK    2  A    between atoms: S_2  and  C_10
DOCKED: REMARK    3  A    between atoms: N_3  and  C_4
DOCKED: REMARK    4  A    between atoms: C_12  and  C_13
DOCKED: REMARK    5  A    between atoms: C_14  and  C_15
DOCKED: REMARK                            x       y       z     vdW  Elec       q    Type
DOCKED: REMARK                         _______ _______ _______ _____ _____    ______ ____
DOCKED: USER                              x       y       z     vdW  Elec       q    Type
DOCKED: USER                           _______ _______ _______ _____ _____    ______ ____
DOCKED: ROOT
DOCKED: ATOM      1  C   UNL     1      37.272  15.715 121.698 -0.23 -0.00    +0.000 A 
DOCKED: ATOM      2  C   UNL     1      37.262  14.360 121.339 -0.30 -0.00    +0.000 A 
DOCKED: ATOM      3  C   UNL     1      36.689  13.396 122.195 -0.40 -0.00    +0.000 A 
DOCKED: ATOM      4  C   UNL     1      36.143  13.816 123.418 -0.49 -0.00    +0.000 A 
DOCKED: ATOM      5  C   UNL     1      36.144  15.169 123.771 -0.41 -0.00    +0.000 A 
DOCKED: ATOM      6  C   UNL     1      36.702  16.117 122.912 -0.29 -0.00    +0.000 A 
DOCKED: ATOM      7  CM  UNL     1      36.702  14.762 122.555 +0.00 -0.00    +0.000 AC
DOCKED: ENDROOT
DOCKED: BRANCH   1   8
DOCKED: ATOM      8  O   UNL     1      38.068  18.252 121.293 -0.08 -0.00    +0.000 OA
DOCKED: ATOM      9  S   UNL     1      38.012  16.905 120.629 -0.15 -0.00    +0.000 S 
DOCKED: ATOM     10  O   UNL     1      37.185  17.008 119.379 -0.11 -0.00    +0.000 OA
DOCKED: BRANCH   8  10
DOCKED: ATOM     11  N   UNL     1      39.623  16.412 120.209 -0.13 -0.00    +0.000 N 
DOCKED: ATOM     12  H   UNL     1      39.838  16.303 119.255 -0.00 -0.00    +0.000 HD
DOCKED: BRANCH  10  12
DOCKED: ATOM     13  C   UNL     1      40.660  16.154 121.172 -0.20 -0.00    +0.000 A 
DOCKED: ATOM     14  C   UNL     1      41.763  17.017 121.327 -0.17 -0.00    +0.000 A 
DOCKED: ATOM     15  C   UNL     1      42.748  16.739 122.281 -0.33 -0.00    +0.000 A 
DOCKED: ATOM     16  C   UNL     1      42.648  15.599 123.081 -0.25 +0.00    +0.000 A 
DOCKED: ATOM     17  C   UNL     1      41.563  14.733 122.928 -0.50 -0.00    +0.000 A 
DOCKED: ATOM     18  C   UNL     1      40.576  15.006 121.978 -0.38 -0.00    +0.000 A 
DOCKED: ATOM     19  CM  UNL     1      41.660  15.874 122.128 +0.00 -0.00    +0.000 AC
DOCKED: ENDBRANCH  10  12
DOCKED: ENDBRANCH   8  10
DOCKED: ENDBRANCH   1   8
DOCKED: BRANCH   3  18
DOCKED: ATOM     20  C   UNL     1      36.676  11.948 121.873 -0.58 -0.00    +0.000 C 
DOCKED: ATOM     21  C   UNL     1      37.009  10.987 122.749 -0.61 -0.00    +0.000 C 
DOCKED: BRANCH  19  20
DOCKED: ATOM     22  C   UNL     1      36.991   9.546 122.422 -0.63 -0.00    +0.000 C 
DOCKED: ATOM     23  N   UNL     1      36.978   8.530 123.432 -0.67 -0.00    +0.000 N 
DOCKED: ATOM     24  O   UNL     1      37.068   7.226 123.083 -2.20 -0.00    +0.000 OA
DOCKED: ATOM     25  O   UNL     1      36.961   9.207 121.209 -2.71 -0.00    +0.000 OA
DOCKED: ATOM     26  H   UNL     1      36.905   8.781 124.381 -0.47 -0.00    +0.000 HD
DOCKED: ENDBRANCH  19  20
DOCKED: ENDBRANCH   3  18
DOCKED: TORSDOF 5DOCKED: TER
DOCKED: ENDMDL
________________________________________________________________________________


	BEGINNING GENETIC ALGORITHM DOCKING 9 of 100
Run: 9 Seed: 859680910 1456342430 [ Run 9 of 100 GA/GALS ]
Beginning LAMARCKIAN GENETIC ALGORITHM (LGA), with a maximum of 2500000 energy evaluations.

Final-Value: -14.607


	FINAL GENETIC ALGORITHM DOCKED STATE
	_______________________________________________


Detailed state:  trans 34.838 13.603 123.233 quatxyzw -0.906947 0.377814 -0.146888 -0.114581 center 0.217 0.012 -0.211 ntor 5 -60.7473 -32.4423 169.7153 -104.3803 -180.0000
State:	 34.838  13.603 123.233  -0.913  0.380 -0.148 -166.841    -60.75  -32.44  169.72 -104.38 -180.00

DOCKED: MODEL        9
DOCKED: USER    Run = 9
DOCKED: USER    DPF = ligand_dock.biased.dpf
DOCKED: USER  
DOCKED: USER    Estimated Free Energy of Binding    =  -12.20 kcal/mol  [=(1)+(2)+(3)-(4)]
DOCKED: USER    Estimated Inhibition Constant, Ki   =    1.14 nM (nanomolar)  [Temperature = 298.15 K]
DOCKED: USER    
DOCKED: USER    (1) Final Intermolecular Energy     =  -13.69 kcal/mol
DOCKED: USER        vdW + Hbond + desolv Energy     =  -13.69 kcal/mol
DOCKED: USER        Electrostatic Energy            =   +0.00 kcal/mol
DOCKED: USER    (2) Final Total Internal Energy     =   -0.92 kcal/mol
DOCKED: USER    (3) Torsional Free Energy           =   +1.49 kcal/mol
DOCKED: USER    (4) Unbound System's Energy  [=(2)] =   -0.92 kcal/mol
DOCKED: USER    
DOCKED: USER    
DOCKED: USER    NEWDPF move ligand.dum.pdbqt
DOCKED: USER    NEWDPF about 0.217000 0.012000 -0.211000
DOCKED: USER    NEWDPF tran0 34.838345 13.603374 123.233123
DOCKED: USER    NEWDPF quaternion0 -0.906947 0.377814 -0.146888 -0.114581
DOCKED: USER    NEWDPF axisangle0 -0.912959 0.380318 -0.147862 -166.841124
DOCKED: USER    NEWDPF quat0 -0.912959 0.380318 -0.147862 -166.841124
DOCKED: USER    NEWDPF dihe0 -60.75 -32.44 169.72 -104.38 -180.00 
DOCKED: USER  keepresnum = 1 
DOCKED: USER  
DOCKED: REMARK  Name = 
DOCKED: REMARK  5 active torsions:
DOCKED: REMARK  status: ('A' for Active; 'I' for Inactive)
DOCKED: REMARK    1  A    between atoms: S_2  and  N_3
DOCKED: REMARK    2  A    between atoms: S_2  and  C_10
DOCKED: REMARK    3  A    between atoms: N_3  and  C_4
DOCKED: REMARK    4  A    between atoms: C_12  and  C_13
DOCKED: REMARK    5  A    between atoms: C_14  and  C_15
DOCKED: REMARK                            x       y       z     vdW  Elec       q    Type
DOCKED: REMARK                         _______ _______ _______ _____ _____    ______ ____
DOCKED: USER                              x       y       z     vdW  Elec       q    Type
DOCKED: USER                           _______ _______ _______ _____ _____    ______ ____
DOCKED: ROOT
DOCKED: ATOM      1  C   UNL     1      35.836  15.439 123.862 -0.42 -0.00    +0.000 A 
DOCKED: ATOM      2  C   UNL     1      35.673  14.047 123.832 -0.49 -0.00    +0.000 A 
DOCKED: ATOM      3  C   UNL     1      36.687  13.217 123.311 -0.54 -0.00    +0.000 A 
DOCKED: ATOM      4  C   UNL     1      37.856  13.811 122.808 -0.45 -0.00    +0.000 A 
DOCKED: ATOM      5  C   UNL     1      38.023  15.198 122.847 -0.33 -0.00    +0.000 A 
DOCKED: ATOM      6  C   UNL     1      37.019  16.010 123.376 -0.30 -0.00    +0.000 A 
DOCKED: ATOM      7  CM  UNL     1      36.849  14.620 123.340 +0.00 -0.00    +0.000 AC
DOCKED: ENDROOT
DOCKED: BRANCH   1   8
DOCKED: ATOM      8  O   UNL     1      33.699  15.703 125.473 -0.79 -0.00    +0.000 OA
DOCKED: ATOM      9  S   UNL     1      34.551  16.464 124.495 -0.64 -0.00    +0.000 S 
DOCKED: ATOM     10  O   UNL     1      33.693  16.923 123.351 -0.39 -0.00    +0.000 OA
DOCKED: BRANCH   8  10
DOCKED: ATOM     11  N   UNL     1      35.229  17.849 125.293 -0.28 -0.00    +0.000 N 
DOCKED: ATOM     12  H   UNL     1      36.138  18.129 125.040 -0.01 -0.00    +0.000 HD
DOCKED: BRANCH  10  12
DOCKED: ATOM     13  C   UNL     1      34.542  18.612 126.302 -0.24 -0.00    +0.000 A 
DOCKED: ATOM     14  C   UNL     1      33.192  18.988 126.160 -0.27 -0.00    +0.000 A 
DOCKED: ATOM     15  C   UNL     1      32.555  19.721 127.167 -0.21 -0.00    +0.000 A 
DOCKED: ATOM     16  C   UNL     1      33.255  20.090 128.317 -0.08 -0.00    +0.000 A 
DOCKED: ATOM     17  C   UNL     1      34.596  19.730 128.462 -0.07 -0.00    +0.000 A 
DOCKED: ATOM     18  C   UNL     1      35.238  18.997 127.460 -0.14 -0.00    +0.000 A 
DOCKED: ATOM     19  CM  UNL     1      33.897  19.357 127.312 +0.00 -0.00    +0.000 AC
DOCKED: ENDBRANCH  10  12
DOCKED: ENDBRANCH   8  10
DOCKED: ENDBRANCH   1   8
DOCKED: BRANCH   3  18
DOCKED: ATOM     20  C   UNL     1      36.553  11.741 123.234 -0.69 -0.00    +0.000 C 
DOCKED: ATOM     21  C   UNL     1      37.094  10.994 122.260 -0.52 -0.00    +0.000 C 
DOCKED: BRANCH  19  20
DOCKED: ATOM     22  C   UNL     1      36.958   9.524 122.192 -0.64 -0.00    +0.000 C 
DOCKED: ATOM     23  N   UNL     1      37.090   8.687 123.347 -0.66 -0.00    +0.000 N 
DOCKED: ATOM     24  O   UNL     1      37.061   7.340 123.216 -2.36 -0.00    +0.000 OA
DOCKED: ATOM     25  O   UNL     1      36.691   8.997 121.079 -2.61 -0.00    +0.000 OA
DOCKED: ATOM     26  H   UNL     1      37.203   9.092 124.238 -0.58 -0.00    +0.000 HD
DOCKED: ENDBRANCH  19  20
DOCKED: ENDBRANCH   3  18
DOCKED: TORSDOF 5DOCKED: TER
DOCKED: ENDMDL
________________________________________________________________________________


	BEGINNING GENETIC ALGORITHM DOCKING 10 of 100
Run: 10 Seed: 989366324 1344810594 [ Run 10 of 100 GA/GALS ]
Beginning LAMARCKIAN GENETIC ALGORITHM (LGA), with a maximum of 2500000 energy evaluations.

Final-Value: -14.211


	FINAL GENETIC ALGORITHM DOCKED STATE
	_______________________________________________


Detailed state:  trans 37.868 13.821 122.332 quatxyzw 0.064564 0.031477 0.918794 0.388147 center 0.217 0.012 -0.211 ntor 5 -35.7104 171.6906 5.4303 126.4910 -69.8677
State:	 37.868  13.821 122.332   0.070  0.034  0.997 134.322    -35.71  171.69    5.43  126.49  -69.87

DOCKED: MODEL       10
DOCKED: USER    Run = 10
DOCKED: USER    DPF = ligand_dock.biased.dpf
DOCKED: USER  
DOCKED: USER    Estimated Free Energy of Binding    =  -11.50 kcal/mol  [=(1)+(2)+(3)-(4)]
DOCKED: USER    Estimated Inhibition Constant, Ki   =    3.71 nM (nanomolar)  [Temperature = 298.15 K]
DOCKED: USER    
DOCKED: USER    (1) Final Intermolecular Energy     =  -12.99 kcal/mol
DOCKED: USER        vdW + Hbond + desolv Energy     =  -12.99 kcal/mol
DOCKED: USER        Electrostatic Energy            =   +0.00 kcal/mol
DOCKED: USER    (2) Final Total Internal Energy     =   -1.22 kcal/mol
DOCKED: USER    (3) Torsional Free Energy           =   +1.49 kcal/mol
DOCKED: USER    (4) Unbound System's Energy  [=(2)] =   -1.22 kcal/mol
DOCKED: USER    
DOCKED: USER    
DOCKED: USER    NEWDPF move ligand.dum.pdbqt
DOCKED: USER    NEWDPF about 0.217000 0.012000 -0.211000
DOCKED: USER    NEWDPF tran0 37.868058 13.821279 122.331732
DOCKED: USER    NEWDPF quaternion0 0.064564 0.031477 0.918794 0.388147
DOCKED: USER    NEWDPF axisangle0 0.070057 0.034154 0.996958 134.321556
DOCKED: USER    NEWDPF quat0 0.070057 0.034154 0.996958 134.321556
DOCKED: USER    NEWDPF dihe0 -35.71 171.69 5.43 126.49 -69.87 
DOCKED: USER  keepresnum = 1 
DOCKED: USER  
DOCKED: REMARK  Name = 
DOCKED: REMARK  5 active torsions:
DOCKED: REMARK  status: ('A' for Active; 'I' for Inactive)
DOCKED: REMARK    1  A    between atoms: S_2  and  N_3
DOCKED: REMARK    2  A    between atoms: S_2  and  C_10
DOCKED: REMARK    3  A    between atoms: N_3  and  C_4
DOCKED: REMARK    4  A    between atoms: C_12  and  C_13
DOCKED: REMARK    5  A    between atoms: C_14  and  C_15
DOCKED: REMARK                            x       y       z     vdW  Elec       q    Type
DOCKED: REMARK                         _______ _______ _______ _____ _____    ______ ____
DOCKED: USER                              x       y       z     vdW  Elec       q    Type
DOCKED: USER                           _______ _______ _______ _____ _____    ______ ____
DOCKED: ROOT
DOCKED: ATOM      1  C   UNL     1      36.717  15.669 122.184 -0.26 -0.00    +0.000 A 
DOCKED: ATOM      2  C   UNL     1      36.860  14.275 122.156 -0.33 -0.00    +0.000 A 
DOCKED: ATOM      3  C   UNL     1      36.169  13.464 123.081 -0.46 -0.00    +0.000 A 
DOCKED: ATOM      4  C   UNL     1      35.349  14.080 124.040 -0.31 -0.00    +0.000 A 
DOCKED: ATOM      5  C   UNL     1      35.198  15.469 124.061 -0.49 -0.00    +0.000 A 
DOCKED: ATOM      6  C   UNL     1      35.876  16.262 123.134 -0.33 -0.00    +0.000 A 
DOCKED: ATOM      7  CM  UNL     1      36.028  14.869 123.109 +0.00 -0.00    +0.000 AC
DOCKED: ENDROOT
DOCKED: BRANCH   1   8
DOCKED: ATOM      8  O   UNL     1      36.711  17.732 120.459 -0.13 -0.00    +0.000 OA
DOCKED: ATOM      9  S   UNL     1      37.604  16.670 121.037 -0.20 -0.00    +0.000 S 
DOCKED: ATOM     10  O   UNL     1      38.109  15.795 119.925 -0.18 -0.00    +0.000 OA
DOCKED: BRANCH   8  10
DOCKED: ATOM     11  N   UNL     1      38.952  17.430 121.823 -0.11 -0.00    +0.000 N 
DOCKED: ATOM     12  H   UNL     1      38.888  18.392 122.023 +0.01 -0.00    +0.000 HD
DOCKED: BRANCH  10  12
DOCKED: ATOM     13  C   UNL     1      40.157  16.739 122.201 -0.20 -0.00    +0.000 A 
DOCKED: ATOM     14  C   UNL     1      41.364  17.424 122.439 -0.20 -0.00    +0.000 A 
DOCKED: ATOM     15  C   UNL     1      42.513  16.720 122.814 -0.37 -0.00    +0.000 A 
DOCKED: ATOM     16  C   UNL     1      42.472  15.331 122.948 -0.23 +0.00    +0.000 A 
DOCKED: ATOM     17  C   UNL     1      41.282  14.642 122.704 -0.49 -0.00    +0.000 A 
DOCKED: ATOM     18  C   UNL     1      40.131  15.341 122.330 -0.37 -0.00    +0.000 A 
DOCKED: ATOM     19  CM  UNL     1      41.320  16.032 122.573 +0.00 -0.00    +0.000 AC
DOCKED: ENDBRANCH  10  12
DOCKED: ENDBRANCH   8  10
DOCKED: ENDBRANCH   1   8
DOCKED: BRANCH   3  18
DOCKED: ATOM     20  C   UNL     1      36.307  11.987 123.109 -0.68 -0.00    +0.000 C 
DOCKED: ATOM     21  C   UNL     1      36.804  11.266 122.092 -0.61 -0.00    +0.000 C 
DOCKED: BRANCH  19  20
DOCKED: ATOM     22  C   UNL     1      36.940   9.795 122.129 -0.61 -0.00    +0.000 C 
DOCKED: ATOM     23  N   UNL     1      36.908   9.051 123.353 -0.60 -0.00    +0.000 N 
DOCKED: ATOM     24  O   UNL     1      37.142   7.719 123.343 -2.62 -0.00    +0.000 OA
DOCKED: ATOM     25  O   UNL     1      37.062   9.176 121.038 -2.73 -0.00    +0.000 OA
DOCKED: ATOM     26  H   UNL     1      36.717   9.511 124.203 -0.49 -0.00    +0.000 HD
DOCKED: ENDBRANCH  19  20
DOCKED: ENDBRANCH   3  18
DOCKED: TORSDOF 5DOCKED: TER
DOCKED: ENDMDL
________________________________________________________________________________


	BEGINNING GENETIC ALGORITHM DOCKING 11 of 100
Run: 11 Seed: 1329839808 1556363400 [ Run 11 of 100 GA/GALS ]
Beginning LAMARCKIAN GENETIC ALGORITHM (LGA), with a maximum of 2500000 energy evaluations.

Final-Value: -13.580


	FINAL GENETIC ALGORITHM DOCKED STATE
	_______________________________________________


Detailed state:  trans 37.984 14.143 121.388 quatxyzw 0.178611 -0.126329 0.864401 0.452714 center 0.217 0.012 -0.211 ntor 5 125.9401 -79.3970 -135.3967 25.8405 -27.7647
State:	 37.984  14.143 121.388   0.200 -0.142  0.969 126.164    125.94  -79.40 -135.40   25.84  -27.76

DOCKED: MODEL       11
DOCKED: USER    Run = 11
DOCKED: USER    DPF = ligand_dock.biased.dpf
DOCKED: USER  
DOCKED: USER    Estimated Free Energy of Binding    =  -10.76 kcal/mol  [=(1)+(2)+(3)-(4)]
DOCKED: USER    Estimated Inhibition Constant, Ki   =   13.04 nM (nanomolar)  [Temperature = 298.15 K]
DOCKED: USER    
DOCKED: USER    (1) Final Intermolecular Energy     =  -12.25 kcal/mol
DOCKED: USER        vdW + Hbond + desolv Energy     =  -12.25 kcal/mol
DOCKED: USER        Electrostatic Energy            =   +0.00 kcal/mol
DOCKED: USER    (2) Final Total Internal Energy     =   -1.33 kcal/mol
DOCKED: USER    (3) Torsional Free Energy           =   +1.49 kcal/mol
DOCKED: USER    (4) Unbound System's Energy  [=(2)] =   -1.33 kcal/mol
DOCKED: USER    
DOCKED: USER    
DOCKED: USER    NEWDPF move ligand.dum.pdbqt
DOCKED: USER    NEWDPF about 0.217000 0.012000 -0.211000
DOCKED: USER    NEWDPF tran0 37.984074 14.142803 121.387801
DOCKED: USER    NEWDPF quaternion0 0.178611 -0.126329 0.864401 0.452714
DOCKED: USER    NEWDPF axisangle0 0.200313 -0.141679 0.969434 126.164117
DOCKED: USER    NEWDPF quat0 0.200313 -0.141679 0.969434 126.164117
DOCKED: USER    NEWDPF dihe0 125.94 -79.40 -135.40 25.84 -27.76 
DOCKED: USER  keepresnum = 1 
DOCKED: USER  
DOCKED: REMARK  Name = 
DOCKED: REMARK  5 active torsions:
DOCKED: REMARK  status: ('A' for Active; 'I' for Inactive)
DOCKED: REMARK    1  A    between atoms: S_2  and  N_3
DOCKED: REMARK    2  A    between atoms: S_2  and  C_10
DOCKED: REMARK    3  A    between atoms: N_3  and  C_4
DOCKED: REMARK    4  A    between atoms: C_12  and  C_13
DOCKED: REMARK    5  A    between atoms: C_14  and  C_15
DOCKED: REMARK                            x       y       z     vdW  Elec       q    Type
DOCKED: REMARK                         _______ _______ _______ _____ _____    ______ ____
DOCKED: USER                              x       y       z     vdW  Elec       q    Type
DOCKED: USER                           _______ _______ _______ _____ _____    ______ ____
DOCKED: ROOT
DOCKED: ATOM      1  C   UNL     1      36.684  15.770 122.037 -0.24 -0.00    +0.000 A 
DOCKED: ATOM      2  C   UNL     1      36.940  14.447 121.652 -0.24 -0.00    +0.000 A 
DOCKED: ATOM      3  C   UNL     1      36.696  13.381 122.543 -0.46 -0.00    +0.000 A 
DOCKED: ATOM      4  C   UNL     1      36.208  13.671 123.827 -0.49 -0.00    +0.000 A 
DOCKED: ATOM      5  C   UNL     1      35.943  14.989 124.208 -0.40 -0.00    +0.000 A 
DOCKED: ATOM      6  C   UNL     1      36.176  16.036 123.315 -0.34 -0.00    +0.000 A 
DOCKED: ATOM      7  CM  UNL     1      36.441  14.715 122.930 +0.00 -0.00    +0.000 AC
DOCKED: ENDROOT
DOCKED: BRANCH   1   8
DOCKED: ATOM      8  O   UNL     1      36.614  18.409 121.526 -0.16 -0.00    +0.000 OA
DOCKED: ATOM      9  S   UNL     1      37.015  17.093 120.921 -0.20 -0.00    +0.000 S 
DOCKED: ATOM     10  O   UNL     1      36.226  16.870 119.663 -0.18 -0.00    +0.000 OA
DOCKED: BRANCH   8  10
DOCKED: ATOM     11  N   UNL     1      38.707  17.140 120.534 -0.08 -0.00    +0.000 N 
DOCKED: ATOM     12  H   UNL     1      38.972  17.527 119.669 +0.00 -0.00    +0.000 HD
DOCKED: BRANCH  10  12
DOCKED: ATOM     13  C   UNL     1      39.744  16.647 121.401 -0.15 -0.00    +0.000 A 
DOCKED: ATOM     14  C   UNL     1      40.388  17.478 122.339 -0.16 -0.00    +0.000 A 
DOCKED: ATOM     15  C   UNL     1      41.385  16.961 123.173 -0.32 -0.00    +0.000 A 
DOCKED: ATOM     16  C   UNL     1      41.753  15.618 123.077 -0.39 +0.00    +0.000 A 
DOCKED: ATOM     17  C   UNL     1      41.128  14.788 122.144 -0.38 -0.00    +0.000 A 
DOCKED: ATOM     18  C   UNL     1      40.130  15.299 121.309 -0.27 -0.00    +0.000 A 
DOCKED: ATOM     19  CM  UNL     1      40.755  16.131 122.240 +0.00 -0.00    +0.000 AC
DOCKED: ENDBRANCH  10  12
DOCKED: ENDBRANCH   8  10
DOCKED: ENDBRANCH   1   8
DOCKED: BRANCH   3  18
DOCKED: ATOM     20  C   UNL     1      36.974  11.966 122.193 -0.59 -0.00    +0.000 C 
DOCKED: ATOM     21  C   UNL     1      36.392  10.920 122.800 -0.69 -0.00    +0.000 C 
DOCKED: BRANCH  19  20
DOCKED: ATOM     22  C   UNL     1      36.672   9.514 122.444 -0.72 -0.00    +0.000 C 
DOCKED: ATOM     23  N   UNL     1      36.717   8.469 123.423 -0.66 -0.00    +0.000 N 
DOCKED: ATOM     24  O   UNL     1      37.080   7.216 123.062 -2.16 -0.00    +0.000 OA
DOCKED: ATOM     25  O   UNL     1      36.853   9.227 121.230 -2.65 -0.00    +0.000 OA
DOCKED: ATOM     26  H   UNL     1      36.483   8.662 124.360 -0.33 -0.00    +0.000 HD
DOCKED: ENDBRANCH  19  20
DOCKED: ENDBRANCH   3  18
DOCKED: TORSDOF 5DOCKED: TER
DOCKED: ENDMDL
________________________________________________________________________________


	BEGINNING GENETIC ALGORITHM DOCKING 12 of 100
Run: 12 Seed: 831815749 853031417 [ Run 12 of 100 GA/GALS ]
Beginning LAMARCKIAN GENETIC ALGORITHM (LGA), with a maximum of 2500000 energy evaluations.

Final-Value: -13.631


	FINAL GENETIC ALGORITHM DOCKED STATE
	_______________________________________________


Detailed state:  trans 38.657 13.809 122.825 quatxyzw -0.179588 -0.051276 0.905907 0.380069 center 0.217 0.012 -0.211 ntor 5 125.1593 130.9355 178.8683 -179.2451 -32.5162
State:	 38.657  13.809 122.825  -0.194 -0.055  0.979 135.324    125.16  130.94  178.87 -179.25  -32.52

DOCKED: MODEL       12
DOCKED: USER    Run = 12
DOCKED: USER    DPF = ligand_dock.biased.dpf
DOCKED: USER  
DOCKED: USER    Estimated Free Energy of Binding    =  -11.17 kcal/mol  [=(1)+(2)+(3)-(4)]
DOCKED: USER    Estimated Inhibition Constant, Ki   =    6.47 nM (nanomolar)  [Temperature = 298.15 K]
DOCKED: USER    
DOCKED: USER    (1) Final Intermolecular Energy     =  -12.66 kcal/mol
DOCKED: USER        vdW + Hbond + desolv Energy     =  -12.66 kcal/mol
DOCKED: USER        Electrostatic Energy            =   +0.00 kcal/mol
DOCKED: USER    (2) Final Total Internal Energy     =   -0.97 kcal/mol
DOCKED: USER    (3) Torsional Free Energy           =   +1.49 kcal/mol
DOCKED: USER    (4) Unbound System's Energy  [=(2)] =   -0.97 kcal/mol
DOCKED: USER    
DOCKED: USER    
DOCKED: USER    NEWDPF move ligand.dum.pdbqt
DOCKED: USER    NEWDPF about 0.217000 0.012000 -0.211000
DOCKED: USER    NEWDPF tran0 38.657254 13.808883 122.824738
DOCKED: USER    NEWDPF quaternion0 -0.179588 -0.051276 0.905907 0.380069
DOCKED: USER    NEWDPF axisangle0 -0.194158 -0.055436 0.979403 135.324129
DOCKED: USER    NEWDPF quat0 -0.194158 -0.055436 0.979403 135.324129
DOCKED: USER    NEWDPF dihe0 125.16 130.94 178.87 -179.25 -32.52 
DOCKED: USER  keepresnum = 1 
DOCKED: USER  
DOCKED: REMARK  Name = 
DOCKED: REMARK  5 active torsions:
DOCKED: REMARK  status: ('A' for Active; 'I' for Inactive)
DOCKED: REMARK    1  A    between atoms: S_2  and  N_3
DOCKED: REMARK    2  A    between atoms: S_2  and  C_10
DOCKED: REMARK    3  A    between atoms: N_3  and  C_4
DOCKED: REMARK    4  A    between atoms: C_12  and  C_13
DOCKED: REMARK    5  A    between atoms: C_14  and  C_15
DOCKED: REMARK                            x       y       z     vdW  Elec       q    Type
DOCKED: REMARK                         _______ _______ _______ _____ _____    ______ ____
DOCKED: USER                              x       y       z     vdW  Elec       q    Type
DOCKED: USER                           _______ _______ _______ _____ _____    ______ ____
DOCKED: ROOT
DOCKED: ATOM      1  C   UNL     1      37.526  15.674 122.877 -0.30 -0.00    +0.000 A 
DOCKED: ATOM      2  C   UNL     1      37.759  14.360 122.448 -0.40 -0.00    +0.000 A 
DOCKED: ATOM      3  C   UNL     1      36.829  13.337 122.729 -0.49 -0.00    +0.000 A 
DOCKED: ATOM      4  C   UNL     1      35.674  13.656 123.460 -0.44 -0.00    +0.000 A 
DOCKED: ATOM      5  C   UNL     1      35.436  14.968 123.880 -0.49 -0.00    +0.000 A 
DOCKED: ATOM      6  C   UNL     1      36.356  15.975 123.586 -0.34 -0.00    +0.000 A 
DOCKED: ATOM      7  CM  UNL     1      36.596  14.661 123.163 +0.00 -0.00    +0.000 AC
DOCKED: ENDROOT
DOCKED: BRANCH   1   8
DOCKED: ATOM      8  O   UNL     1      38.173  18.283 122.936 -0.13 -0.00    +0.000 OA
DOCKED: ATOM      9  S   UNL     1      38.707  16.935 122.537 -0.26 -0.00    +0.000 S 
DOCKED: ATOM     10  O   UNL     1      38.997  16.939 121.064 -0.12 -0.00    +0.000 OA
DOCKED: BRANCH   8  10
DOCKED: ATOM     11  N   UNL     1      40.178  16.628 123.408 -0.27 -0.00    +0.000 N 
DOCKED: ATOM     12  H   UNL     1      40.115  16.465 124.377 +0.05 -0.00    +0.000 HD
DOCKED: BRANCH  10  12
DOCKED: ATOM     13  C   UNL     1      41.481  16.599 122.800 -0.34 -0.00    +0.000 A 
DOCKED: ATOM     14  C   UNL     1      42.500  17.495 123.180 -0.29 -0.00    +0.000 A 
DOCKED: ATOM     15  C   UNL     1      43.758  17.430 122.573 -0.29 -0.00    +0.000 A 
DOCKED: ATOM     16  C   UNL     1      44.011  16.481 121.580 -0.26 -0.00    +0.000 A 
DOCKED: ATOM     17  C   UNL     1      43.005  15.595 121.190 -0.26 -0.00    +0.000 A 
DOCKED: ATOM     18  C   UNL     1      41.746  15.655 121.794 -0.35 -0.00    +0.000 A 
DOCKED: ATOM     19  CM  UNL     1      42.750  16.542 122.186 +0.00 -0.00    +0.000 AC
DOCKED: ENDBRANCH  10  12
DOCKED: ENDBRANCH   8  10
DOCKED: ENDBRANCH   1   8
DOCKED: BRANCH   3  18
DOCKED: ATOM     20  C   UNL     1      37.042  11.927 122.319 -0.60 -0.00    +0.000 C 
DOCKED: ATOM     21  C   UNL     1      36.466  10.879 122.928 -0.69 -0.00    +0.000 C 
DOCKED: BRANCH  19  20
DOCKED: ATOM     22  C   UNL     1      36.681   9.478 122.512 -0.72 -0.00    +0.000 C 
DOCKED: ATOM     23  N   UNL     1      36.769   8.402 123.455 -0.67 -0.00    +0.000 N 
DOCKED: ATOM     24  O   UNL     1      37.071   7.153 123.033 -2.08 -0.00    +0.000 OA
DOCKED: ATOM     25  O   UNL     1      36.764   9.223 121.281 -2.58 -0.00    +0.000 OA
DOCKED: ATOM     26  H   UNL     1      36.610   8.573 124.412 -0.35 -0.00    +0.000 HD
DOCKED: ENDBRANCH  19  20
DOCKED: ENDBRANCH   3  18
DOCKED: TORSDOF 5DOCKED: TER
DOCKED: ENDMDL
________________________________________________________________________________


	BEGINNING GENETIC ALGORITHM DOCKING 13 of 100
Run: 13 Seed: 517011343 447404139 [ Run 13 of 100 GA/GALS ]
Beginning LAMARCKIAN GENETIC ALGORITHM (LGA), with a maximum of 2500000 energy evaluations.

Final-Value: -14.966


	FINAL GENETIC ALGORITHM DOCKED STATE
	_______________________________________________


Detailed state:  trans 35.356 13.412 122.897 quatxyzw 0.924127 -0.306195 0.184291 0.135167 center 0.217 0.012 -0.211 ntor 5 13.2676 -70.7643 106.0170 -106.4041 157.1215
State:	 35.356  13.412 122.897   0.933 -0.309  0.186 164.463     13.27  -70.76  106.02 -106.40  157.12

DOCKED: MODEL       13
DOCKED: USER    Run = 13
DOCKED: USER    DPF = ligand_dock.biased.dpf
DOCKED: USER  
DOCKED: USER    Estimated Free Energy of Binding    =  -12.54 kcal/mol  [=(1)+(2)+(3)-(4)]
DOCKED: USER    Estimated Inhibition Constant, Ki   =  639.11 pM (picomolar)  [Temperature = 298.15 K]
DOCKED: USER    
DOCKED: USER    (1) Final Intermolecular Energy     =  -14.03 kcal/mol
DOCKED: USER        vdW + Hbond + desolv Energy     =  -14.03 kcal/mol
DOCKED: USER        Electrostatic Energy            =   +0.00 kcal/mol
DOCKED: USER    (2) Final Total Internal Energy     =   -0.93 kcal/mol
DOCKED: USER    (3) Torsional Free Energy           =   +1.49 kcal/mol
DOCKED: USER    (4) Unbound System's Energy  [=(2)] =   -0.93 kcal/mol
DOCKED: USER    
DOCKED: USER    
DOCKED: USER    NEWDPF move ligand.dum.pdbqt
DOCKED: USER    NEWDPF about 0.217000 0.012000 -0.211000
DOCKED: USER    NEWDPF tran0 35.355733 13.411930 122.897375
DOCKED: USER    NEWDPF quaternion0 0.924127 -0.306195 0.184291 0.135167
DOCKED: USER    NEWDPF axisangle0 0.932687 -0.309031 0.185998 164.463390
DOCKED: USER    NEWDPF quat0 0.932687 -0.309031 0.185998 164.463390
DOCKED: USER    NEWDPF dihe0 13.27 -70.76 106.02 -106.40 157.12 
DOCKED: USER  keepresnum = 1 
DOCKED: USER  
DOCKED: REMARK  Name = 
DOCKED: REMARK  5 active torsions:
DOCKED: REMARK  status: ('A' for Active; 'I' for Inactive)
DOCKED: REMARK    1  A    between atoms: S_2  and  N_3
DOCKED: REMARK    2  A    between atoms: S_2  and  C_10
DOCKED: REMARK    3  A    between atoms: N_3  and  C_4
DOCKED: REMARK    4  A    between atoms: C_12  and  C_13
DOCKED: REMARK    5  A    between atoms: C_14  and  C_15
DOCKED: REMARK                            x       y       z     vdW  Elec       q    Type
DOCKED: REMARK                         _______ _______ _______ _____ _____    ______ ____
DOCKED: USER                              x       y       z     vdW  Elec       q    Type
DOCKED: USER                           _______ _______ _______ _____ _____    ______ ____
DOCKED: ROOT
DOCKED: ATOM      1  C   UNL     1      36.024  15.375 123.575 -0.41 -0.00    +0.000 A 
DOCKED: ATOM      2  C   UNL     1      36.059  13.974 123.562 -0.49 -0.00    +0.000 A 
DOCKED: ATOM      3  C   UNL     1      37.225  13.290 123.156 -0.51 -0.00    +0.000 A 
DOCKED: ATOM      4  C   UNL     1      38.342  14.038 122.751 -0.41 -0.00    +0.000 A 
DOCKED: ATOM      5  C   UNL     1      38.310  15.435 122.774 -0.31 -0.00    +0.000 A 
DOCKED: ATOM      6  C   UNL     1      37.156  16.103 123.189 -0.28 -0.00    +0.000 A 
DOCKED: ATOM      7  CM  UNL     1      37.186  14.702 123.168 +0.00 -0.00    +0.000 AC
DOCKED: ENDROOT
DOCKED: BRANCH   1   8
DOCKED: ATOM      8  O   UNL     1      33.495  15.233 124.479 -0.51 -0.00    +0.000 OA
DOCKED: ATOM      9  S   UNL     1      34.554  16.215 124.062 -0.67 -0.00    +0.000 S 
DOCKED: ATOM     10  O   UNL     1      34.048  17.016 122.897 -0.48 -0.00    +0.000 OA
DOCKED: BRANCH   8  10
DOCKED: ATOM     11  N   UNL     1      34.888  17.285 125.389 -0.34 -0.00    +0.000 N 
DOCKED: ATOM     12  H   UNL     1      35.819  17.571 125.528 -0.02 -0.00    +0.000 HD
DOCKED: BRANCH  10  12
DOCKED: ATOM     13  C   UNL     1      33.885  17.777 126.296 -0.33 -0.00    +0.000 A 
DOCKED: ATOM     14  C   UNL     1      33.080  18.890 125.984 -0.24 -0.00    +0.000 A 
DOCKED: ATOM     15  C   UNL     1      32.109  19.334 126.887 -0.23 -0.00    +0.000 A 
DOCKED: ATOM     16  C   UNL     1      31.935  18.681 128.108 -0.20 -0.00    +0.000 A 
DOCKED: ATOM     17  C   UNL     1      32.735  17.582 128.431 -0.28 -0.00    +0.000 A 
DOCKED: ATOM     18  C   UNL     1      33.706  17.134 127.533 -0.33 -0.00    +0.000 A 
DOCKED: ATOM     19  CM  UNL     1      32.909  18.233 127.207 +0.00 -0.00    +0.000 AC
DOCKED: ENDBRANCH  10  12
DOCKED: ENDBRANCH   8  10
DOCKED: ENDBRANCH   1   8
DOCKED: BRANCH   3  18
DOCKED: ATOM     20  C   UNL     1      37.305  11.810 123.100 -0.53 -0.00    +0.000 C 
DOCKED: ATOM     21  C   UNL     1      36.866  11.078 122.064 -0.59 -0.00    +0.000 C 
DOCKED: BRANCH  19  20
DOCKED: ATOM     22  C   UNL     1      36.952   9.604 122.015 -0.63 -0.00    +0.000 C 
DOCKED: ATOM     23  N   UNL     1      36.876   8.792 123.192 -0.67 -0.00    +0.000 N 
DOCKED: ATOM     24  O   UNL     1      37.064   7.454 123.107 -2.39 -0.00    +0.000 OA
DOCKED: ATOM     25  O   UNL     1      37.070   9.047 120.891 -2.72 -0.00    +0.000 OA
DOCKED: ATOM     26  H   UNL     1      36.686   9.207 124.065 -0.47 -0.00    +0.000 HD
DOCKED: ENDBRANCH  19  20
DOCKED: ENDBRANCH   3  18
DOCKED: TORSDOF 5DOCKED: TER
DOCKED: ENDMDL
________________________________________________________________________________


	BEGINNING GENETIC ALGORITHM DOCKING 14 of 100
Run: 14 Seed: 2021280868 1785664325 [ Run 14 of 100 GA/GALS ]
Beginning LAMARCKIAN GENETIC ALGORITHM (LGA), with a maximum of 2500000 energy evaluations.

Final-Value: -14.104


	FINAL GENETIC ALGORITHM DOCKED STATE
	_______________________________________________


Detailed state:  trans 38.862 13.451 123.460 quatxyzw 0.178081 -0.093237 -0.914606 -0.350842 center 0.217 0.012 -0.211 ntor 5 0.5067 -86.7673 -65.8065 76.0129 110.0416
State:	 38.862  13.451 123.460   0.190 -0.100 -0.977 -138.922      0.51  -86.77  -65.81   76.01  110.04

DOCKED: MODEL       14
DOCKED: USER    Run = 14
DOCKED: USER    DPF = ligand_dock.biased.dpf
DOCKED: USER  
DOCKED: USER    Estimated Free Energy of Binding    =  -11.23 kcal/mol  [=(1)+(2)+(3)-(4)]
DOCKED: USER    Estimated Inhibition Constant, Ki   =    5.89 nM (nanomolar)  [Temperature = 298.15 K]
DOCKED: USER    
DOCKED: USER    (1) Final Intermolecular Energy     =  -12.72 kcal/mol
DOCKED: USER        vdW + Hbond + desolv Energy     =  -12.72 kcal/mol
DOCKED: USER        Electrostatic Energy            =   +0.00 kcal/mol
DOCKED: USER    (2) Final Total Internal Energy     =   -1.39 kcal/mol
DOCKED: USER    (3) Torsional Free Energy           =   +1.49 kcal/mol
DOCKED: USER    (4) Unbound System's Energy  [=(2)] =   -1.39 kcal/mol
DOCKED: USER    
DOCKED: USER    
DOCKED: USER    NEWDPF move ligand.dum.pdbqt
DOCKED: USER    NEWDPF about 0.217000 0.012000 -0.211000
DOCKED: USER    NEWDPF tran0 38.861524 13.450553 123.459810
DOCKED: USER    NEWDPF quaternion0 0.178081 -0.093237 -0.914606 -0.350842
DOCKED: USER    NEWDPF axisangle0 0.190169 -0.099566 -0.976689 -138.922320
DOCKED: USER    NEWDPF quat0 0.190169 -0.099566 -0.976689 -138.922320
DOCKED: USER    NEWDPF dihe0 0.51 -86.77 -65.81 76.01 110.04 
DOCKED: USER  keepresnum = 1 
DOCKED: USER  
DOCKED: REMARK  Name = 
DOCKED: REMARK  5 active torsions:
DOCKED: REMARK  status: ('A' for Active; 'I' for Inactive)
DOCKED: REMARK    1  A    between atoms: S_2  and  N_3
DOCKED: REMARK    2  A    between atoms: S_2  and  C_10
DOCKED: REMARK    3  A    between atoms: N_3  and  C_4
DOCKED: REMARK    4  A    between atoms: C_12  and  C_13
DOCKED: REMARK    5  A    between atoms: C_14  and  C_15
DOCKED: REMARK                            x       y       z     vdW  Elec       q    Type
DOCKED: REMARK                         _______ _______ _______ _____ _____    ______ ____
DOCKED: USER                              x       y       z     vdW  Elec       q    Type
DOCKED: USER                           _______ _______ _______ _____ _____    ______ ____
DOCKED: ROOT
DOCKED: ATOM      1  C   UNL     1      37.967  15.367 122.924 -0.32 -0.00    +0.000 A 
DOCKED: ATOM      2  C   UNL     1      38.074  13.971 122.859 -0.43 -0.00    +0.000 A 
DOCKED: ATOM      3  C   UNL     1      37.004  13.150 123.275 -0.53 -0.00    +0.000 A 
DOCKED: ATOM      4  C   UNL     1      35.838  13.757 123.769 -0.49 -0.00    +0.000 A 
DOCKED: ATOM      5  C   UNL     1      35.728  15.149 123.824 -0.45 -0.00    +0.000 A 
DOCKED: ATOM      6  C   UNL     1      36.787  15.953 123.399 -0.32 -0.00    +0.000 A 
DOCKED: ATOM      7  CM  UNL     1      36.900  14.558 123.341 +0.00 -0.00    +0.000 AC
DOCKED: ENDROOT
DOCKED: BRANCH   1   8
DOCKED: ATOM      8  O   UNL     1      40.613  15.845 122.973 -0.49 -0.00    +0.000 OA
DOCKED: ATOM      9  S   UNL     1      39.320  16.379 122.423 -0.32 -0.00    +0.000 S 
DOCKED: ATOM     10  O   UNL     1      39.101  17.769 122.946 -0.17 -0.00    +0.000 OA
DOCKED: BRANCH   8  10
DOCKED: ATOM     11  N   UNL     1      39.419  16.429 120.690 -0.14 -0.00    +0.000 N 
DOCKED: ATOM     12  H   UNL     1      40.290  16.644 120.283 +0.00 -0.00    +0.000 HD
DOCKED: BRANCH  10  12
DOCKED: ATOM     13  C   UNL     1      38.307  16.175 119.814 -0.13 -0.00    +0.000 A 
DOCKED: ATOM     14  C   UNL     1      38.115  14.923 119.198 -0.21 -0.00    +0.000 A 
DOCKED: ATOM     15  C   UNL     1      37.015  14.710 118.360 -0.26 -0.00    +0.000 A 
DOCKED: ATOM     16  C   UNL     1      36.104  15.740 118.122 -0.17 -0.00    +0.000 A 
DOCKED: ATOM     17  C   UNL     1      36.290  16.988 118.721 -0.12 -0.00    +0.000 A 
DOCKED: ATOM     18  C   UNL     1      37.386  17.206 119.560 -0.09 -0.00    +0.000 A 
DOCKED: ATOM     19  CM  UNL     1      37.203  15.957 118.962 +0.00 -0.00    +0.000 AC
DOCKED: ENDBRANCH  10  12
DOCKED: ENDBRANCH   8  10
DOCKED: ENDBRANCH   1   8
DOCKED: BRANCH   3  18
DOCKED: ATOM     20  C   UNL     1      37.076  11.668 123.250 -0.66 -0.00    +0.000 C 
DOCKED: ATOM     21  C   UNL     1      36.735  10.924 122.187 -0.63 -0.00    +0.000 C 
DOCKED: BRANCH  19  20
DOCKED: ATOM     22  C   UNL     1      36.812   9.448 122.169 -0.68 -0.00    +0.000 C 
DOCKED: ATOM     23  N   UNL     1      36.882   8.669 123.369 -0.65 -0.00    +0.000 N 
DOCKED: ATOM     24  O   UNL     1      37.057   7.329 123.298 -2.36 -0.00    +0.000 OA
DOCKED: ATOM     25  O   UNL     1      36.790   8.860 121.055 -2.64 -0.00    +0.000 OA
DOCKED: ATOM     26  H   UNL     1      36.803   9.109 124.246 -0.47 -0.00    +0.000 HD
DOCKED: ENDBRANCH  19  20
DOCKED: ENDBRANCH   3  18
DOCKED: TORSDOF 5DOCKED: TER
DOCKED: ENDMDL
________________________________________________________________________________


	BEGINNING GENETIC ALGORITHM DOCKING 15 of 100
Run: 15 Seed: 298908549 410466120 [ Run 15 of 100 GA/GALS ]
Beginning LAMARCKIAN GENETIC ALGORITHM (LGA), with a maximum of 2500000 energy evaluations.

Final-Value: -13.543


	FINAL GENETIC ALGORITHM DOCKED STATE
	_______________________________________________


Detailed state:  trans 39.321 13.252 123.049 quatxyzw -0.337466 0.107959 0.923309 0.148193 center 0.217 0.012 -0.211 ntor 5 173.4514 153.0739 91.8589 -104.5785 121.9621
State:	 39.321  13.252 123.049  -0.341  0.109  0.934 162.956    173.45  153.07   91.86 -104.58  121.96

DOCKED: MODEL       15
DOCKED: USER    Run = 15
DOCKED: USER    DPF = ligand_dock.biased.dpf
DOCKED: USER  
DOCKED: USER    Estimated Free Energy of Binding    =  -11.13 kcal/mol  [=(1)+(2)+(3)-(4)]
DOCKED: USER    Estimated Inhibition Constant, Ki   =    6.92 nM (nanomolar)  [Temperature = 298.15 K]
DOCKED: USER    
DOCKED: USER    (1) Final Intermolecular Energy     =  -12.62 kcal/mol
DOCKED: USER        vdW + Hbond + desolv Energy     =  -12.62 kcal/mol
DOCKED: USER        Electrostatic Energy            =   +0.00 kcal/mol
DOCKED: USER    (2) Final Total Internal Energy     =   -0.92 kcal/mol
DOCKED: USER    (3) Torsional Free Energy           =   +1.49 kcal/mol
DOCKED: USER    (4) Unbound System's Energy  [=(2)] =   -0.92 kcal/mol
DOCKED: USER    
DOCKED: USER    
DOCKED: USER    NEWDPF move ligand.dum.pdbqt
DOCKED: USER    NEWDPF about 0.217000 0.012000 -0.211000
DOCKED: USER    NEWDPF tran0 39.321399 13.252324 123.049057
DOCKED: USER    NEWDPF quaternion0 -0.337466 0.107959 0.923309 0.148193
DOCKED: USER    NEWDPF axisangle0 -0.341234 0.109165 0.933618 162.955543
DOCKED: USER    NEWDPF quat0 -0.341234 0.109165 0.933618 162.955543
DOCKED: USER    NEWDPF dihe0 173.45 153.07 91.86 -104.58 121.96 
DOCKED: USER  keepresnum = 1 
DOCKED: USER  
DOCKED: REMARK  Name = 
DOCKED: REMARK  5 active torsions:
DOCKED: REMARK  status: ('A' for Active; 'I' for Inactive)
DOCKED: REMARK    1  A    between atoms: S_2  and  N_3
DOCKED: REMARK    2  A    between atoms: S_2  and  C_10
DOCKED: REMARK    3  A    between atoms: N_3  and  C_4
DOCKED: REMARK    4  A    between atoms: C_12  and  C_13
DOCKED: REMARK    5  A    between atoms: C_14  and  C_15
DOCKED: REMARK                            x       y       z     vdW  Elec       q    Type
DOCKED: REMARK                         _______ _______ _______ _____ _____    ______ ____
DOCKED: USER                              x       y       z     vdW  Elec       q    Type
DOCKED: USER                           _______ _______ _______ _____ _____    ______ ____
DOCKED: ROOT
DOCKED: ATOM      1  C   UNL     1      39.324  15.405 122.692 -0.31 -0.00    +0.000 A 
DOCKED: ATOM      2  C   UNL     1      39.003  14.080 122.367 -0.23 -0.00    +0.000 A 
DOCKED: ATOM      3  C   UNL     1      37.656  13.674 122.261 -0.43 -0.00    +0.000 A 
DOCKED: ATOM      4  C   UNL     1      36.644  14.617 122.503 -0.33 -0.00    +0.000 A 
DOCKED: ATOM      5  C   UNL     1      36.964  15.940 122.818 -0.29 -0.00    +0.000 A 
DOCKED: ATOM      6  C   UNL     1      38.300  16.335 122.908 -0.24 -0.00    +0.000 A 
DOCKED: ATOM      7  CM  UNL     1      37.982  15.008 122.591 +0.00 -0.00    +0.000 AC
DOCKED: ENDROOT
DOCKED: BRANCH   1   8
DOCKED: ATOM      8  O   UNL     1      41.845  14.755 123.364 -1.00 +0.00    +0.000 OA
DOCKED: ATOM      9  S   UNL     1      41.011  15.891 122.843 -0.51 -0.00    +0.000 S 
DOCKED: ATOM     10  O   UNL     1      41.095  17.043 123.803 -0.63 -0.00    +0.000 OA
DOCKED: BRANCH   8  10
DOCKED: ATOM     11  N   UNL     1      41.630  16.388 121.299 -0.21 -0.00    +0.000 N 
DOCKED: ATOM     12  H   UNL     1      40.986  16.686 120.617 +0.00 -0.00    +0.000 HD
DOCKED: BRANCH  10  12
DOCKED: ATOM     13  C   UNL     1      43.028  16.388 120.956 -0.22 -0.00    +0.000 A 
DOCKED: ATOM     14  C   UNL     1      43.482  16.003 119.680 -0.21 -0.00    +0.000 A 
DOCKED: ATOM     15  C   UNL     1      44.848  16.026 119.380 -0.22 -0.00    +0.000 A 
DOCKED: ATOM     16  C   UNL     1      45.772  16.425 120.347 -0.20 +0.00    +0.000 A 
DOCKED: ATOM     17  C   UNL     1      45.333  16.800 121.618 -0.25 +0.00    +0.000 A 
DOCKED: ATOM     18  C   UNL     1      43.969  16.780 121.923 -0.29 -0.00    +0.000 A 
DOCKED: ATOM     19  CM  UNL     1      44.406  16.404 120.651 +0.00 -0.00    +0.000 AC
DOCKED: ENDBRANCH  10  12
DOCKED: ENDBRANCH   8  10
DOCKED: ENDBRANCH   1   8
DOCKED: BRANCH   3  18
DOCKED: ATOM     20  C   UNL     1      37.263  12.279 121.944 -0.53 -0.00    +0.000 C 
DOCKED: ATOM     21  C   UNL     1      37.440  11.246 122.783 -0.24 -0.00    +0.000 C 
DOCKED: BRANCH  19  20
DOCKED: ATOM     22  C   UNL     1      37.044   9.859 122.460 -0.59 -0.00    +0.000 C 
DOCKED: ATOM     23  N   UNL     1      37.019   8.820 123.446 -0.62 -0.00    +0.000 N 
DOCKED: ATOM     24  O   UNL     1      36.751   7.545 123.081 -2.27 -0.00    +0.000 OA
DOCKED: ATOM     25  O   UNL     1      36.692   9.595 121.280 -2.25 -0.00    +0.000 OA
DOCKED: ATOM     26  H   UNL     1      37.198   9.034 124.391 -0.55 -0.00    +0.000 HD
DOCKED: ENDBRANCH  19  20
DOCKED: ENDBRANCH   3  18
DOCKED: TORSDOF 5DOCKED: TER
DOCKED: ENDMDL
________________________________________________________________________________


	BEGINNING GENETIC ALGORITHM DOCKING 16 of 100
Run: 16 Seed: 1249181032 1005654553 [ Run 16 of 100 GA/GALS ]
Beginning LAMARCKIAN GENETIC ALGORITHM (LGA), with a maximum of 2500000 energy evaluations.

Final-Value: -14.760


	FINAL GENETIC ALGORITHM DOCKED STATE
	_______________________________________________


Detailed state:  trans 34.789 13.679 123.505 quatxyzw -0.932540 0.352331 -0.058154 -0.053394 center 0.217 0.012 -0.211 ntor 5 -43.4144 -56.8177 166.7477 156.0803 162.8601
State:	 34.789  13.679 123.505  -0.934  0.353 -0.058 -173.879    -43.41  -56.82  166.75  156.08  162.86

DOCKED: MODEL       16
DOCKED: USER    Run = 16
DOCKED: USER    DPF = ligand_dock.biased.dpf
DOCKED: USER  
DOCKED: USER    Estimated Free Energy of Binding    =  -12.25 kcal/mol  [=(1)+(2)+(3)-(4)]
DOCKED: USER    Estimated Inhibition Constant, Ki   =    1.04 nM (nanomolar)  [Temperature = 298.15 K]
DOCKED: USER    
DOCKED: USER    (1) Final Intermolecular Energy     =  -13.75 kcal/mol
DOCKED: USER        vdW + Hbond + desolv Energy     =  -13.75 kcal/mol
DOCKED: USER        Electrostatic Energy            =   +0.00 kcal/mol
DOCKED: USER    (2) Final Total Internal Energy     =   -1.01 kcal/mol
DOCKED: USER    (3) Torsional Free Energy           =   +1.49 kcal/mol
DOCKED: USER    (4) Unbound System's Energy  [=(2)] =   -1.01 kcal/mol
DOCKED: USER    
DOCKED: USER    
DOCKED: USER    NEWDPF move ligand.dum.pdbqt
DOCKED: USER    NEWDPF about 0.217000 0.012000 -0.211000
DOCKED: USER    NEWDPF tran0 34.789475 13.679213 123.505427
DOCKED: USER    NEWDPF quaternion0 -0.932540 0.352331 -0.058154 -0.053394
DOCKED: USER    NEWDPF axisangle0 -0.933872 0.352834 -0.058237 -173.878634
DOCKED: USER    NEWDPF quat0 -0.933872 0.352834 -0.058237 -173.878634
DOCKED: USER    NEWDPF dihe0 -43.41 -56.82 166.75 156.08 162.86 
DOCKED: USER  keepresnum = 1 
DOCKED: USER  
DOCKED: REMARK  Name = 
DOCKED: REMARK  5 active torsions:
DOCKED: REMARK  status: ('A' for Active; 'I' for Inactive)
DOCKED: REMARK    1  A    between atoms: S_2  and  N_3
DOCKED: REMARK    2  A    between atoms: S_2  and  C_10
DOCKED: REMARK    3  A    between atoms: N_3  and  C_4
DOCKED: REMARK    4  A    between atoms: C_12  and  C_13
DOCKED: REMARK    5  A    between atoms: C_14  and  C_15
DOCKED: REMARK                            x       y       z     vdW  Elec       q    Type
DOCKED: REMARK                         _______ _______ _______ _____ _____    ______ ____
DOCKED: USER                              x       y       z     vdW  Elec       q    Type
DOCKED: USER                           _______ _______ _______ _____ _____    ______ ____
DOCKED: ROOT
DOCKED: ATOM      1  C   UNL     1      35.757  15.609 123.819 -0.42 -0.00    +0.000 A 
DOCKED: ATOM      2  C   UNL     1      35.694  14.211 123.894 -0.48 -0.00    +0.000 A 
DOCKED: ATOM      3  C   UNL     1      36.638  13.413 123.213 -0.52 -0.00    +0.000 A 
DOCKED: ATOM      4  C   UNL     1      37.632  14.045 122.448 -0.42 -0.00    +0.000 A 
DOCKED: ATOM      5  C   UNL     1      37.701  15.439 122.382 -0.30 -0.00    +0.000 A 
DOCKED: ATOM      6  C   UNL     1      36.770  16.220 123.068 -0.29 -0.00    +0.000 A 
DOCKED: ATOM      7  CM  UNL     1      36.699  14.822 123.138 +0.00 -0.00    +0.000 AC
DOCKED: ENDROOT
DOCKED: BRANCH   1   8
DOCKED: ATOM      8  O   UNL     1      33.696  15.736 125.541 -0.80 -0.00    +0.000 OA
DOCKED: ATOM      9  S   UNL     1      34.558  16.592 124.656 -0.62 -0.00    +0.000 S 
DOCKED: ATOM     10  O   UNL     1      33.691  17.268 123.632 -0.43 -0.00    +0.000 OA
DOCKED: BRANCH   8  10
DOCKED: ATOM     11  N   UNL     1      35.344  17.798 125.626 -0.26 -0.00    +0.000 N 
DOCKED: ATOM     12  H   UNL     1      35.752  17.514 126.475 -0.01 -0.00    +0.000 HD
DOCKED: BRANCH  10  12
DOCKED: ATOM     13  C   UNL     1      35.435  19.188 125.262 -0.20 -0.00    +0.000 A 
DOCKED: ATOM     14  C   UNL     1      36.226  19.624 124.182 -0.16 -0.00    +0.000 A 
DOCKED: ATOM     15  C   UNL     1      36.282  20.982 123.852 -0.14 -0.00    +0.000 A 
DOCKED: ATOM     16  C   UNL     1      35.559  21.916 124.596 -0.15 -0.00    +0.000 A 
DOCKED: ATOM     17  C   UNL     1      34.779  21.494 125.675 -0.14 -0.00    +0.000 A 
DOCKED: ATOM     18  C   UNL     1      34.719  20.138 126.009 -0.16 -0.00    +0.000 A 
DOCKED: ATOM     19  CM  UNL     1      35.500  20.558 124.930 +0.00 -0.00    +0.000 AC
DOCKED: ENDBRANCH  10  12
DOCKED: ENDBRANCH   8  10
DOCKED: ENDBRANCH   1   8
DOCKED: BRANCH   3  18
DOCKED: ATOM     20  C   UNL     1      36.600  11.930 123.240 -0.69 -0.00    +0.000 C 
DOCKED: ATOM     21  C   UNL     1      36.928  11.157 122.193 -0.59 -0.00    +0.000 C 
DOCKED: BRANCH  19  20
DOCKED: ATOM     22  C   UNL     1      36.889   9.680 122.228 -0.64 -0.00    +0.000 C 
DOCKED: ATOM     23  N   UNL     1      37.025   8.939 123.447 -0.60 -0.00    +0.000 N 
DOCKED: ATOM     24  O   UNL     1      37.088   7.587 123.414 -2.58 -0.00    +0.000 OA
DOCKED: ATOM     25  O   UNL     1      36.705   9.059 121.148 -2.62 -0.00    +0.000 OA
DOCKED: ATOM     26  H   UNL     1      37.073   9.413 124.309 -0.54 -0.00    +0.000 HD
DOCKED: ENDBRANCH  19  20
DOCKED: ENDBRANCH   3  18
DOCKED: TORSDOF 5DOCKED: TER
DOCKED: ENDMDL
________________________________________________________________________________


	BEGINNING GENETIC ALGORITHM DOCKING 17 of 100
Run: 17 Seed: 577687720 810929329 [ Run 17 of 100 GA/GALS ]
Beginning LAMARCKIAN GENETIC ALGORITHM (LGA), with a maximum of 2500000 energy evaluations.

Final-Value: -13.574


	FINAL GENETIC ALGORITHM DOCKED STATE
	_______________________________________________


Detailed state:  trans 38.049 13.960 121.579 quatxyzw -0.095842 0.143907 -0.895399 -0.410323 center 0.217 0.012 -0.211 ntor 5 164.4873 179.5660 176.7985 111.2820 -75.6255
State:	 38.049  13.960 121.579  -0.105  0.158 -0.982 -131.550    164.49  179.57  176.80  111.28  -75.63

DOCKED: MODEL       17
DOCKED: USER    Run = 17
DOCKED: USER    DPF = ligand_dock.biased.dpf
DOCKED: USER  
DOCKED: USER    Estimated Free Energy of Binding    =  -10.92 kcal/mol  [=(1)+(2)+(3)-(4)]
DOCKED: USER    Estimated Inhibition Constant, Ki   =    9.82 nM (nanomolar)  [Temperature = 298.15 K]
DOCKED: USER    
DOCKED: USER    (1) Final Intermolecular Energy     =  -12.42 kcal/mol
DOCKED: USER        vdW + Hbond + desolv Energy     =  -12.42 kcal/mol
DOCKED: USER        Electrostatic Energy            =   +0.00 kcal/mol
DOCKED: USER    (2) Final Total Internal Energy     =   -1.16 kcal/mol
DOCKED: USER    (3) Torsional Free Energy           =   +1.49 kcal/mol
DOCKED: USER    (4) Unbound System's Energy  [=(2)] =   -1.16 kcal/mol
DOCKED: USER    
DOCKED: USER    
DOCKED: USER    NEWDPF move ligand.dum.pdbqt
DOCKED: USER    NEWDPF about 0.217000 0.012000 -0.211000
DOCKED: USER    NEWDPF tran0 38.049402 13.960301 121.579435
DOCKED: USER    NEWDPF quaternion0 -0.095842 0.143907 -0.895399 -0.410323
DOCKED: USER    NEWDPF axisangle0 -0.105097 0.157803 -0.981862 -131.549697
DOCKED: USER    NEWDPF quat0 -0.105097 0.157803 -0.981862 -131.549697
DOCKED: USER    NEWDPF dihe0 164.49 179.57 176.80 111.28 -75.63 
DOCKED: USER  keepresnum = 1 
DOCKED: USER  
DOCKED: REMARK  Name = 
DOCKED: REMARK  5 active torsions:
DOCKED: REMARK  status: ('A' for Active; 'I' for Inactive)
DOCKED: REMARK    1  A    between atoms: S_2  and  N_3
DOCKED: REMARK    2  A    between atoms: S_2  and  C_10
DOCKED: REMARK    3  A    between atoms: N_3  and  C_4
DOCKED: REMARK    4  A    between atoms: C_12  and  C_13
DOCKED: REMARK    5  A    between atoms: C_14  and  C_15
DOCKED: REMARK                            x       y       z     vdW  Elec       q    Type
DOCKED: REMARK                         _______ _______ _______ _____ _____    ______ ____
DOCKED: USER                              x       y       z     vdW  Elec       q    Type
DOCKED: USER                           _______ _______ _______ _____ _____    ______ ____
DOCKED: ROOT
DOCKED: ATOM      1  C   UNL     1      36.885  15.694 122.210 -0.26 -0.00    +0.000 A 
DOCKED: ATOM      2  C   UNL     1      37.025  14.380 121.741 -0.29 -0.00    +0.000 A 
DOCKED: ATOM      3  C   UNL     1      36.536  13.294 122.496 -0.41 -0.00    +0.000 A 
DOCKED: ATOM      4  C   UNL     1      35.922  13.550 123.732 -0.51 -0.00    +0.000 A 
DOCKED: ATOM      5  C   UNL     1      35.772  14.861 124.195 -0.44 -0.00    +0.000 A 
DOCKED: ATOM      6  C   UNL     1      36.248  15.930 123.435 -0.35 -0.00    +0.000 A 
DOCKED: ATOM      7  CM  UNL     1      36.398  14.618 122.968 +0.00 -0.00    +0.000 AC
DOCKED: ENDROOT
DOCKED: BRANCH   1   8
DOCKED: ATOM      8  O   UNL     1      36.475  18.106 121.093 -0.16 -0.00    +0.000 OA
DOCKED: ATOM      9  S   UNL     1      37.520  17.040 121.266 -0.19 -0.00    +0.000 S 
DOCKED: ATOM     10  O   UNL     1      37.928  16.529 119.915 -0.13 -0.00    +0.000 OA
DOCKED: BRANCH   8  10
DOCKED: ATOM     11  N   UNL     1      38.903  17.726 122.060 -0.10 -0.00    +0.000 N 
DOCKED: ATOM     12  H   UNL     1      38.868  18.678 122.307 +0.00 -0.00    +0.000 HD
DOCKED: BRANCH  10  12
DOCKED: ATOM     13  C   UNL     1      40.097  16.988 122.377 -0.19 -0.00    +0.000 A 
DOCKED: ATOM     14  C   UNL     1      41.284  17.629 122.782 -0.22 -0.00    +0.000 A 
DOCKED: ATOM     15  C   UNL     1      42.422  16.877 123.092 -0.37 -0.00    +0.000 A 
DOCKED: ATOM     16  C   UNL     1      42.390  15.484 122.996 -0.32 +0.00    +0.000 A 
DOCKED: ATOM     17  C   UNL     1      41.221  14.840 122.586 -0.49 -0.00    +0.000 A 
DOCKED: ATOM     18  C   UNL     1      40.081  15.586 122.276 -0.33 -0.00    +0.000 A 
DOCKED: ATOM     19  CM  UNL     1      41.249  16.233 122.684 +0.00 -0.00    +0.000 AC
DOCKED: ENDBRANCH  10  12
DOCKED: ENDBRANCH   8  10
DOCKED: ENDBRANCH   1   8
DOCKED: BRANCH   3  18
DOCKED: ATOM     20  C   UNL     1      36.682  11.884 122.056 -0.60 -0.00    +0.000 C 
DOCKED: ATOM     21  C   UNL     1      36.708  10.840 122.898 -0.68 -0.00    +0.000 C 
DOCKED: BRANCH  19  20
DOCKED: ATOM     22  C   UNL     1      36.852   9.438 122.452 -0.68 -0.00    +0.000 C 
DOCKED: ATOM     23  N   UNL     1      36.826   8.336 123.367 -0.70 -0.00    +0.000 N 
DOCKED: ATOM     24  O   UNL     1      37.066   7.080 122.922 -1.93 -0.00    +0.000 OA
DOCKED: ATOM     25  O   UNL     1      36.975   9.211 121.219 -2.70 -0.00    +0.000 OA
DOCKED: ATOM     26  H   UNL     1      36.633   8.492 124.320 -0.37 -0.00    +0.000 HD
DOCKED: ENDBRANCH  19  20
DOCKED: ENDBRANCH   3  18
DOCKED: TORSDOF 5DOCKED: TER
DOCKED: ENDMDL
________________________________________________________________________________


	BEGINNING GENETIC ALGORITHM DOCKING 18 of 100
Run: 18 Seed: 424985022 243319588 [ Run 18 of 100 GA/GALS ]
Beginning LAMARCKIAN GENETIC ALGORITHM (LGA), with a maximum of 2500000 energy evaluations.

Final-Value: -14.407


	FINAL GENETIC ALGORITHM DOCKED STATE
	_______________________________________________


Detailed state:  trans 38.519 13.404 123.189 quatxyzw 0.116927 -0.082270 -0.928149 -0.343655 center 0.217 0.012 -0.211 ntor 5 -28.8466 119.0249 -33.6170 102.4151 69.0607
State:	 38.519  13.404 123.189   0.125 -0.088 -0.988 -139.801    -28.85  119.02  -33.62  102.42   69.06

DOCKED: MODEL       18
DOCKED: USER    Run = 18
DOCKED: USER    DPF = ligand_dock.biased.dpf
DOCKED: USER  
DOCKED: USER    Estimated Free Energy of Binding    =  -11.65 kcal/mol  [=(1)+(2)+(3)-(4)]
DOCKED: USER    Estimated Inhibition Constant, Ki   =    2.87 nM (nanomolar)  [Temperature = 298.15 K]
DOCKED: USER    
DOCKED: USER    (1) Final Intermolecular Energy     =  -13.15 kcal/mol
DOCKED: USER        vdW + Hbond + desolv Energy     =  -13.15 kcal/mol
DOCKED: USER        Electrostatic Energy            =   +0.00 kcal/mol
DOCKED: USER    (2) Final Total Internal Energy     =   -1.26 kcal/mol
DOCKED: USER    (3) Torsional Free Energy           =   +1.49 kcal/mol
DOCKED: USER    (4) Unbound System's Energy  [=(2)] =   -1.26 kcal/mol
DOCKED: USER    
DOCKED: USER    
DOCKED: USER    NEWDPF move ligand.dum.pdbqt
DOCKED: USER    NEWDPF about 0.217000 0.012000 -0.211000
DOCKED: USER    NEWDPF tran0 38.519128 13.403710 123.189074
DOCKED: USER    NEWDPF quaternion0 0.116927 -0.082270 -0.928149 -0.343655
DOCKED: USER    NEWDPF axisangle0 0.124510 -0.087605 -0.988343 -139.800546
DOCKED: USER    NEWDPF quat0 0.124510 -0.087605 -0.988343 -139.800546
DOCKED: USER    NEWDPF dihe0 -28.85 119.02 -33.62 102.42 69.06 
DOCKED: USER  keepresnum = 1 
DOCKED: USER  
DOCKED: REMARK  Name = 
DOCKED: REMARK  5 active torsions:
DOCKED: REMARK  status: ('A' for Active; 'I' for Inactive)
DOCKED: REMARK    1  A    between atoms: S_2  and  N_3
DOCKED: REMARK    2  A    between atoms: S_2  and  C_10
DOCKED: REMARK    3  A    between atoms: N_3  and  C_4
DOCKED: REMARK    4  A    between atoms: C_12  and  C_13
DOCKED: REMARK    5  A    between atoms: C_14  and  C_15
DOCKED: REMARK                            x       y       z     vdW  Elec       q    Type
DOCKED: REMARK                         _______ _______ _______ _____ _____    ______ ____
DOCKED: USER                              x       y       z     vdW  Elec       q    Type
DOCKED: USER                           _______ _______ _______ _____ _____    ______ ____
DOCKED: ROOT
DOCKED: ATOM      1  C   UNL     1      37.622  15.339 122.730 -0.32 -0.00    +0.000 A 
DOCKED: ATOM      2  C   UNL     1      37.679  13.939 122.680 -0.44 -0.00    +0.000 A 
DOCKED: ATOM      3  C   UNL     1      36.645  13.159 123.239 -0.54 -0.00    +0.000 A 
DOCKED: ATOM      4  C   UNL     1      35.567  13.809 123.861 -0.45 -0.00    +0.000 A 
DOCKED: ATOM      5  C   UNL     1      35.505  15.205 123.901 -0.47 -0.00    +0.000 A 
DOCKED: ATOM      6  C   UNL     1      36.526  15.968 123.334 -0.33 -0.00    +0.000 A 
DOCKED: ATOM      7  CM  UNL     1      36.591  14.569 123.290 +0.00 -0.00    +0.000 AC
DOCKED: ENDROOT
DOCKED: BRANCH   1   8
DOCKED: ATOM      8  O   UNL     1      40.037  16.477 123.049 -0.33 -0.00    +0.000 OA
DOCKED: ATOM      9  S   UNL     1      38.931  16.299 122.047 -0.29 -0.00    +0.000 S 
DOCKED: ATOM     10  O   UNL     1      38.391  17.648 121.668 -0.10 -0.00    +0.000 OA
DOCKED: BRANCH   8  10
DOCKED: ATOM     11  N   UNL     1      39.569  15.521 120.632 -0.21 -0.00    +0.000 N 
DOCKED: ATOM     12  H   UNL     1      40.545  15.403 120.570 -0.01 -0.00    +0.000 HD
DOCKED: BRANCH  10  12
DOCKED: ATOM     13  C   UNL     1      38.759  15.038 119.546 -0.16 -0.00    +0.000 A 
DOCKED: ATOM     14  C   UNL     1      38.716  15.694 118.300 -0.14 -0.00    +0.000 A 
DOCKED: ATOM     15  C   UNL     1      37.924  15.190 117.263 -0.18 -0.00    +0.000 A 
DOCKED: ATOM     16  C   UNL     1      37.163  14.035 117.459 -0.33 -0.00    +0.000 A 
DOCKED: ATOM     17  C   UNL     1      37.191  13.383 118.694 -0.38 -0.00    +0.000 A 
DOCKED: ATOM     18  C   UNL     1      37.982  13.882 119.732 -0.29 -0.00    +0.000 A 
DOCKED: ATOM     19  CM  UNL     1      37.955  14.537 118.499 +0.00 -0.00    +0.000 AC
DOCKED: ENDBRANCH  10  12
DOCKED: ENDBRANCH   8  10
DOCKED: ENDBRANCH   1   8
DOCKED: BRANCH   3  18
DOCKED: ATOM     20  C   UNL     1      36.671  11.675 123.234 -0.69 -0.00    +0.000 C 
DOCKED: ATOM     21  C   UNL     1      36.788  10.936 122.121 -0.61 -0.00    +0.000 C 
DOCKED: BRANCH  19  20
DOCKED: ATOM     22  C   UNL     1      36.815   9.458 122.124 -0.67 -0.00    +0.000 C 
DOCKED: ATOM     23  N   UNL     1      36.948   8.696 123.330 -0.66 -0.00    +0.000 N 
DOCKED: ATOM     24  O   UNL     1      37.073   7.350 123.272 -2.38 -0.00    +0.000 OA
DOCKED: ATOM     25  O   UNL     1      36.691   8.853 121.026 -2.61 -0.00    +0.000 OA
DOCKED: ATOM     26  H   UNL     1      36.948   9.153 124.203 -0.55 -0.00    +0.000 HD
DOCKED: ENDBRANCH  19  20
DOCKED: ENDBRANCH   3  18
DOCKED: TORSDOF 5DOCKED: TER
DOCKED: ENDMDL
________________________________________________________________________________


	BEGINNING GENETIC ALGORITHM DOCKING 19 of 100
Run: 19 Seed: 816641415 627193577 [ Run 19 of 100 GA/GALS ]
Beginning LAMARCKIAN GENETIC ALGORITHM (LGA), with a maximum of 2500000 energy evaluations.

Final-Value: -14.382


	FINAL GENETIC ALGORITHM DOCKED STATE
	_______________________________________________


Detailed state:  trans 38.466 13.663 122.928 quatxyzw 0.070610 -0.072928 -0.914338 -0.392022 center 0.217 0.012 -0.211 ntor 5 -2.3122 -31.9132 -42.3402 16.7720 120.4288
State:	 38.466  13.663 122.928   0.077 -0.079 -0.994 -133.839     -2.31  -31.91  -42.34   16.77  120.43

DOCKED: MODEL       19
DOCKED: USER    Run = 19
DOCKED: USER    DPF = ligand_dock.biased.dpf
DOCKED: USER  
DOCKED: USER    Estimated Free Energy of Binding    =  -11.46 kcal/mol  [=(1)+(2)+(3)-(4)]
DOCKED: USER    Estimated Inhibition Constant, Ki   =    3.99 nM (nanomolar)  [Temperature = 298.15 K]
DOCKED: USER    
DOCKED: USER    (1) Final Intermolecular Energy     =  -12.95 kcal/mol
DOCKED: USER        vdW + Hbond + desolv Energy     =  -12.95 kcal/mol
DOCKED: USER        Electrostatic Energy            =   +0.00 kcal/mol
DOCKED: USER    (2) Final Total Internal Energy     =   -1.43 kcal/mol
DOCKED: USER    (3) Torsional Free Energy           =   +1.49 kcal/mol
DOCKED: USER    (4) Unbound System's Energy  [=(2)] =   -1.43 kcal/mol
DOCKED: USER    
DOCKED: USER    
DOCKED: USER    NEWDPF move ligand.dum.pdbqt
DOCKED: USER    NEWDPF about 0.217000 0.012000 -0.211000
DOCKED: USER    NEWDPF tran0 38.465630 13.662933 122.928279
DOCKED: USER    NEWDPF quaternion0 0.070610 -0.072928 -0.914338 -0.392022
DOCKED: USER    NEWDPF axisangle0 0.076753 -0.079273 -0.993894 -133.839269
DOCKED: USER    NEWDPF quat0 0.076753 -0.079273 -0.993894 -133.839269
DOCKED: USER    NEWDPF dihe0 -2.31 -31.91 -42.34 16.77 120.43 
DOCKED: USER  keepresnum = 1 
DOCKED: USER  
DOCKED: REMARK  Name = 
DOCKED: REMARK  5 active torsions:
DOCKED: REMARK  status: ('A' for Active; 'I' for Inactive)
DOCKED: REMARK    1  A    between atoms: S_2  and  N_3
DOCKED: REMARK    2  A    between atoms: S_2  and  C_10
DOCKED: REMARK    3  A    between atoms: N_3  and  C_4
DOCKED: REMARK    4  A    between atoms: C_12  and  C_13
DOCKED: REMARK    5  A    between atoms: C_14  and  C_15
DOCKED: REMARK                            x       y       z     vdW  Elec       q    Type
DOCKED: REMARK                         _______ _______ _______ _____ _____    ______ ____
DOCKED: USER                              x       y       z     vdW  Elec       q    Type
DOCKED: USER                           _______ _______ _______ _____ _____    ______ ____
DOCKED: ROOT
DOCKED: ATOM      1  C   UNL     1      37.349  15.491 122.514 -0.30 -0.00    +0.000 A 
DOCKED: ATOM      2  C   UNL     1      37.534  14.101 122.491 -0.42 -0.00    +0.000 A 
DOCKED: ATOM      3  C   UNL     1      36.637  13.248 123.168 -0.53 -0.00    +0.000 A 
DOCKED: ATOM      4  C   UNL     1      35.566  13.816 123.877 -0.44 -0.00    +0.000 A 
DOCKED: ATOM      5  C   UNL     1      35.376  15.200 123.891 -0.48 -0.00    +0.000 A 
DOCKED: ATOM      6  C   UNL     1      36.261  16.036 123.208 -0.33 -0.00    +0.000 A 
DOCKED: ATOM      7  CM  UNL     1      36.454  14.648 123.191 +0.00 -0.00    +0.000 AC
DOCKED: ENDROOT
DOCKED: BRANCH   1   8
DOCKED: ATOM      8  O   UNL     1      39.880  15.979 121.750 -0.26 -0.00    +0.000 OA
DOCKED: ATOM      9  S   UNL     1      38.490  16.546 121.683 -0.23 -0.00    +0.000 S 
DOCKED: ATOM     10  O   UNL     1      38.475  17.891 122.351 -0.12 -0.00    +0.000 OA
DOCKED: BRANCH   8  10
DOCKED: ATOM     11  N   UNL     1      38.032  16.728 120.018 -0.10 -0.00    +0.000 N 
DOCKED: ATOM     12  H   UNL     1      38.182  17.603 119.592 +0.00 -0.00    +0.000 HD
DOCKED: BRANCH  10  12
DOCKED: ATOM     13  C   UNL     1      37.447  15.679 119.226 -0.17 -0.00    +0.000 A 
DOCKED: ATOM     14  C   UNL     1      37.940  14.360 119.257 -0.25 -0.00    +0.000 A 
DOCKED: ATOM     15  C   UNL     1      37.339  13.364 118.480 -0.38 -0.00    +0.000 A 
DOCKED: ATOM     16  C   UNL     1      36.250  13.673 117.663 -0.34 -0.00    +0.000 A 
DOCKED: ATOM     17  C   UNL     1      35.760  14.980 117.618 -0.24 -0.00    +0.000 A 
DOCKED: ATOM     18  C   UNL     1      36.356  15.978 118.393 -0.16 -0.00    +0.000 A 
DOCKED: ATOM     19  CM  UNL     1      36.848  14.673 118.439 +0.00 -0.00    +0.000 AC
DOCKED: ENDBRANCH  10  12
DOCKED: ENDBRANCH   8  10
DOCKED: ENDBRANCH   1   8
DOCKED: BRANCH   3  18
DOCKED: ATOM     20  C   UNL     1      36.803  11.773 123.195 -0.68 -0.00    +0.000 C 
DOCKED: ATOM     21  C   UNL     1      36.714  10.993 122.107 -0.63 -0.00    +0.000 C 
DOCKED: BRANCH  19  20
DOCKED: ATOM     22  C   UNL     1      36.883   9.526 122.142 -0.65 -0.00    +0.000 C 
DOCKED: ATOM     23  N   UNL     1      36.831   8.777 123.362 -0.63 -0.00    +0.000 N 
DOCKED: ATOM     24  O   UNL     1      37.096   7.450 123.355 -2.46 -0.00    +0.000 OA
DOCKED: ATOM     25  O   UNL     1      37.053   8.915 121.053 -2.70 -0.00    +0.000 OA
DOCKED: ATOM     26  H   UNL     1      36.603   9.228 124.207 -0.45 -0.00    +0.000 HD
DOCKED: ENDBRANCH  19  20
DOCKED: ENDBRANCH   3  18
DOCKED: TORSDOF 5DOCKED: TER
DOCKED: ENDMDL
________________________________________________________________________________


	BEGINNING GENETIC ALGORITHM DOCKING 20 of 100
Run: 20 Seed: 766845281 1393299456 [ Run 20 of 100 GA/GALS ]
Beginning LAMARCKIAN GENETIC ALGORITHM (LGA), with a maximum of 2500000 energy evaluations.

Final-Value: -14.442


	FINAL GENETIC ALGORITHM DOCKED STATE
	_______________________________________________


Detailed state:  trans 38.245 13.588 123.884 quatxyzw -0.245235 0.089030 0.907234 0.329941 center 0.217 0.012 -0.211 ntor 5 -35.6888 49.2573 -30.7133 -122.8524 36.4427
State:	 38.245  13.588 123.884  -0.260  0.094  0.961 141.470    -35.69   49.26  -30.71 -122.85   36.44

DOCKED: MODEL       20
DOCKED: USER    Run = 20
DOCKED: USER    DPF = ligand_dock.biased.dpf
DOCKED: USER  
DOCKED: USER    Estimated Free Energy of Binding    =  -12.00 kcal/mol  [=(1)+(2)+(3)-(4)]
DOCKED: USER    Estimated Inhibition Constant, Ki   =    1.60 nM (nanomolar)  [Temperature = 298.15 K]
DOCKED: USER    
DOCKED: USER    (1) Final Intermolecular Energy     =  -13.49 kcal/mol
DOCKED: USER        vdW + Hbond + desolv Energy     =  -13.49 kcal/mol
DOCKED: USER        Electrostatic Energy            =   +0.00 kcal/mol
DOCKED: USER    (2) Final Total Internal Energy     =   -0.95 kcal/mol
DOCKED: USER    (3) Torsional Free Energy           =   +1.49 kcal/mol
DOCKED: USER    (4) Unbound System's Energy  [=(2)] =   -0.95 kcal/mol
DOCKED: USER    
DOCKED: USER    
DOCKED: USER    NEWDPF move ligand.dum.pdbqt
DOCKED: USER    NEWDPF about 0.217000 0.012000 -0.211000
DOCKED: USER    NEWDPF tran0 38.244807 13.587967 123.884094
DOCKED: USER    NEWDPF quaternion0 -0.245235 0.089030 0.907234 0.329941
DOCKED: USER    NEWDPF axisangle0 -0.259782 0.094312 0.961051 141.469671
DOCKED: USER    NEWDPF quat0 -0.259782 0.094312 0.961051 141.469671
DOCKED: USER    NEWDPF dihe0 -35.69 49.26 -30.71 -122.85 36.44 
DOCKED: USER  keepresnum = 1 
DOCKED: USER  
DOCKED: REMARK  Name = 
DOCKED: REMARK  5 active torsions:
DOCKED: REMARK  status: ('A' for Active; 'I' for Inactive)
DOCKED: REMARK    1  A    between atoms: S_2  and  N_3
DOCKED: REMARK    2  A    between atoms: S_2  and  C_10
DOCKED: REMARK    3  A    between atoms: N_3  and  C_4
DOCKED: REMARK    4  A    between atoms: C_12  and  C_13
DOCKED: REMARK    5  A    between atoms: C_14  and  C_15
DOCKED: REMARK                            x       y       z     vdW  Elec       q    Type
DOCKED: REMARK                         _______ _______ _______ _____ _____    ______ ____
DOCKED: USER                              x       y       z     vdW  Elec       q    Type
DOCKED: USER                           _______ _______ _______ _____ _____    ______ ____
DOCKED: ROOT
DOCKED: ATOM      1  C   UNL     1      37.455  15.553 123.360 -0.31 -0.00    +0.000 A 
DOCKED: ATOM      2  C   UNL     1      37.547  14.161 123.223 -0.42 -0.00    +0.000 A 
DOCKED: ATOM      3  C   UNL     1      36.421  13.342 123.449 -0.54 -0.00    +0.000 A 
DOCKED: ATOM      4  C   UNL     1      35.212  13.944 123.830 -0.30 -0.00    +0.000 A 
DOCKED: ATOM      5  C   UNL     1      35.117  15.333 123.957 -0.50 -0.00    +0.000 A 
DOCKED: ATOM      6  C   UNL     1      36.233  16.136 123.719 -0.34 -0.00    +0.000 A 
DOCKED: ATOM      7  CM  UNL     1      36.331  14.745 123.589 +0.00 -0.00    +0.000 AC
DOCKED: ENDROOT
DOCKED: BRANCH   1   8
DOCKED: ATOM      8  O   UNL     1      39.237  17.306 124.351 -0.28 -0.00    +0.000 OA
DOCKED: ATOM      9  S   UNL     1      38.875  16.562 123.096 -0.33 -0.00    +0.000 S 
DOCKED: ATOM     10  O   UNL     1      38.567  17.552 122.010 -0.12 -0.00    +0.000 OA
DOCKED: BRANCH   8  10
DOCKED: ATOM     11  N   UNL     1      40.223  15.581 122.610 -0.36 -0.00    +0.000 N 
DOCKED: ATOM     12  H   UNL     1      40.066  14.620 122.463 -0.03 -0.00    +0.000 HD
DOCKED: BRANCH  10  12
DOCKED: ATOM     13  C   UNL     1      41.555  16.088 122.410 -0.37 -0.00    +0.000 A 
DOCKED: ATOM     14  C   UNL     1      42.100  17.092 123.234 -0.34 -0.00    +0.000 A 
DOCKED: ATOM     15  C   UNL     1      43.403  17.553 123.015 -0.23 -0.00    +0.000 A 
DOCKED: ATOM     16  C   UNL     1      44.169  17.025 121.975 -0.28 -0.00    +0.000 A 
DOCKED: ATOM     17  C   UNL     1      43.634  16.035 121.147 -0.25 -0.00    +0.000 A 
DOCKED: ATOM     18  C   UNL     1      42.334  15.571 121.362 -0.26 -0.00    +0.000 A 
DOCKED: ATOM     19  CM  UNL     1      42.866  16.560 122.190 +0.00 -0.00    +0.000 AC
DOCKED: ENDBRANCH  10  12
DOCKED: ENDBRANCH   8  10
DOCKED: ENDBRANCH   1   8
DOCKED: BRANCH   3  18
DOCKED: ATOM     20  C   UNL     1      36.474  11.863 123.342 -0.69 -0.00    +0.000 C 
DOCKED: ATOM     21  C   UNL     1      36.929  11.210 122.261 -0.59 -0.00    +0.000 C 
DOCKED: BRANCH  19  20
DOCKED: ATOM     22  C   UNL     1      36.980   9.737 122.162 -0.61 -0.00    +0.000 C 
DOCKED: ATOM     23  N   UNL     1      36.906   8.888 123.314 -0.63 -0.00    +0.000 N 
DOCKED: ATOM     24  O   UNL     1      37.063   7.550 123.182 -2.47 -0.00    +0.000 OA
DOCKED: ATOM     25  O   UNL     1      37.067   9.214 121.019 -2.74 -0.00    +0.000 OA
DOCKED: ATOM     26  H   UNL     1      36.741   9.278 124.203 -0.50 -0.00    +0.000 HD
DOCKED: ENDBRANCH  19  20
DOCKED: ENDBRANCH   3  18
DOCKED: TORSDOF 5DOCKED: TER
DOCKED: ENDMDL
________________________________________________________________________________


	BEGINNING GENETIC ALGORITHM DOCKING 21 of 100
Run: 21 Seed: 1591921431 7193313 [ Run 21 of 100 GA/GALS ]
Beginning LAMARCKIAN GENETIC ALGORITHM (LGA), with a maximum of 2500000 energy evaluations.

Final-Value: -14.210


	FINAL GENETIC ALGORITHM DOCKED STATE
	_______________________________________________


Detailed state:  trans 38.002 14.046 122.302 quatxyzw -0.090293 -0.025222 -0.893141 -0.439898 center 0.217 0.012 -0.211 ntor 5 15.8810 150.9864 -36.2681 119.5513 -59.0750
State:	 38.002  14.046 122.302  -0.101 -0.028 -0.995 -127.805     15.88  150.99  -36.27  119.55  -59.08

DOCKED: MODEL       21
DOCKED: USER    Run = 21
DOCKED: USER    DPF = ligand_dock.biased.dpf
DOCKED: USER  
DOCKED: USER    Estimated Free Energy of Binding    =  -11.53 kcal/mol  [=(1)+(2)+(3)-(4)]
DOCKED: USER    Estimated Inhibition Constant, Ki   =    3.53 nM (nanomolar)  [Temperature = 298.15 K]
DOCKED: USER    
DOCKED: USER    (1) Final Intermolecular Energy     =  -13.02 kcal/mol
DOCKED: USER        vdW + Hbond + desolv Energy     =  -13.02 kcal/mol
DOCKED: USER        Electrostatic Energy            =   +0.00 kcal/mol
DOCKED: USER    (2) Final Total Internal Energy     =   -1.19 kcal/mol
DOCKED: USER    (3) Torsional Free Energy           =   +1.49 kcal/mol
DOCKED: USER    (4) Unbound System's Energy  [=(2)] =   -1.19 kcal/mol
DOCKED: USER    
DOCKED: USER    
DOCKED: USER    NEWDPF move ligand.dum.pdbqt
DOCKED: USER    NEWDPF about 0.217000 0.012000 -0.211000
DOCKED: USER    NEWDPF tran0 38.001823 14.046219 122.302107
DOCKED: USER    NEWDPF quaternion0 -0.090293 -0.025222 -0.893141 -0.439898
DOCKED: USER    NEWDPF axisangle0 -0.100544 -0.028086 -0.994536 -127.805205
DOCKED: USER    NEWDPF quat0 -0.100544 -0.028086 -0.994536 -127.805205
DOCKED: USER    NEWDPF dihe0 15.88 150.99 -36.27 119.55 -59.08 
DOCKED: USER  keepresnum = 1 
DOCKED: USER  
DOCKED: REMARK  Name = 
DOCKED: REMARK  5 active torsions:
DOCKED: REMARK  status: ('A' for Active; 'I' for Inactive)
DOCKED: REMARK    1  A    between atoms: S_2  and  N_3
DOCKED: REMARK    2  A    between atoms: S_2  and  C_10
DOCKED: REMARK    3  A    between atoms: N_3  and  C_4
DOCKED: REMARK    4  A    between atoms: C_12  and  C_13
DOCKED: REMARK    5  A    between atoms: C_14  and  C_15
DOCKED: REMARK                            x       y       z     vdW  Elec       q    Type
DOCKED: REMARK                         _______ _______ _______ _____ _____    ______ ____
DOCKED: USER                              x       y       z     vdW  Elec       q    Type
DOCKED: USER                           _______ _______ _______ _____ _____    ______ ____
DOCKED: ROOT
DOCKED: ATOM      1  C   UNL     1      36.644  15.752 122.222 -0.26 -0.00    +0.000 A 
DOCKED: ATOM      2  C   UNL     1      36.941  14.382 122.186 -0.34 -0.00    +0.000 A 
DOCKED: ATOM      3  C   UNL     1      36.401  13.506 123.150 -0.50 -0.00    +0.000 A 
DOCKED: ATOM      4  C   UNL     1      35.574  14.032 124.155 -0.39 -0.00    +0.000 A 
DOCKED: ATOM      5  C   UNL     1      35.269  15.396 124.185 -0.48 -0.00    +0.000 A 
DOCKED: ATOM      6  C   UNL     1      35.798  16.253 123.220 -0.34 -0.00    +0.000 A 
DOCKED: ATOM      7  CM  UNL     1      36.104  14.886 123.186 +0.00 -0.00    +0.000 AC
DOCKED: ENDROOT
DOCKED: BRANCH   1   8
DOCKED: ATOM      8  O   UNL     1      36.387  17.949 120.694 -0.15 -0.00    +0.000 OA
DOCKED: ATOM      9  S   UNL     1      37.344  16.838 121.025 -0.20 -0.00    +0.000 S 
DOCKED: ATOM     10  O   UNL     1      37.636  16.055 119.777 -0.16 -0.00    +0.000 OA
DOCKED: BRANCH   8  10
DOCKED: ATOM     11  N   UNL     1      38.820  17.523 121.629 -0.09 -0.00    +0.000 N 
DOCKED: ATOM     12  H   UNL     1      38.839  18.490 121.814 +0.00 -0.00    +0.000 HD
DOCKED: BRANCH  10  12
DOCKED: ATOM     13  C   UNL     1      40.017  16.763 121.874 -0.18 -0.00    +0.000 A 
DOCKED: ATOM     14  C   UNL     1      41.294  17.256 121.540 -0.14 -0.00    +0.000 A 
DOCKED: ATOM     15  C   UNL     1      42.436  16.493 121.803 -0.29 -0.00    +0.000 A 
DOCKED: ATOM     16  C   UNL     1      42.318  15.233 122.393 -0.40 -0.00    +0.000 A 
DOCKED: ATOM     17  C   UNL     1      41.056  14.732 122.719 -0.46 -0.00    +0.000 A 
DOCKED: ATOM     18  C   UNL     1      39.912  15.490 122.460 -0.34 -0.00    +0.000 A 
DOCKED: ATOM     19  CM  UNL     1      41.172  15.994 122.132 +0.00 -0.00    +0.000 AC
DOCKED: ENDBRANCH  10  12
DOCKED: ENDBRANCH   8  10
DOCKED: ENDBRANCH   1   8
DOCKED: BRANCH   3  18
DOCKED: ATOM     20  C   UNL     1      36.705  12.053 123.170 -0.68 -0.00    +0.000 C 
DOCKED: ATOM     21  C   UNL     1      36.442  11.223 122.149 -0.63 -0.00    +0.000 C 
DOCKED: BRANCH  19  20
DOCKED: ATOM     22  C   UNL     1      36.750   9.778 122.175 -0.67 -0.00    +0.000 C 
DOCKED: ATOM     23  N   UNL     1      36.675   9.000 123.375 -0.58 -0.00    +0.000 N 
DOCKED: ATOM     24  O   UNL     1      37.067   7.705 123.370 -2.65 -0.00    +0.000 OA
DOCKED: ATOM     25  O   UNL     1      37.065   9.212 121.094 -2.74 -0.00    +0.000 OA
DOCKED: ATOM     26  H   UNL     1      36.337   9.408 124.206 -0.36 -0.00    +0.000 HD
DOCKED: ENDBRANCH  19  20
DOCKED: ENDBRANCH   3  18
DOCKED: TORSDOF 5DOCKED: TER
DOCKED: ENDMDL
________________________________________________________________________________


	BEGINNING GENETIC ALGORITHM DOCKING 22 of 100
Run: 22 Seed: 1250356552 1270697454 [ Run 22 of 100 GA/GALS ]
Beginning LAMARCKIAN GENETIC ALGORITHM (LGA), with a maximum of 2500000 energy evaluations.

Final-Value: -14.376


	FINAL GENETIC ALGORITHM DOCKED STATE
	_______________________________________________


Detailed state:  trans 38.045 13.902 122.364 quatxyzw 0.073675 0.034550 0.906533 0.414218 center 0.217 0.012 -0.211 ntor 5 -11.2026 -94.4905 -18.1133 -26.7958 13.3773
State:	 38.045  13.902 122.364   0.081  0.038  0.996 131.060    -11.20  -94.49  -18.11  -26.80   13.38

DOCKED: MODEL       22
DOCKED: USER    Run = 22
DOCKED: USER    DPF = ligand_dock.biased.dpf
DOCKED: USER  
DOCKED: USER    Estimated Free Energy of Binding    =  -11.67 kcal/mol  [=(1)+(2)+(3)-(4)]
DOCKED: USER    Estimated Inhibition Constant, Ki   =    2.79 nM (nanomolar)  [Temperature = 298.15 K]
DOCKED: USER    
DOCKED: USER    (1) Final Intermolecular Energy     =  -13.16 kcal/mol
DOCKED: USER        vdW + Hbond + desolv Energy     =  -13.16 kcal/mol
DOCKED: USER        Electrostatic Energy            =   +0.00 kcal/mol
DOCKED: USER    (2) Final Total Internal Energy     =   -1.22 kcal/mol
DOCKED: USER    (3) Torsional Free Energy           =   +1.49 kcal/mol
DOCKED: USER    (4) Unbound System's Energy  [=(2)] =   -1.22 kcal/mol
DOCKED: USER    
DOCKED: USER    
DOCKED: USER    NEWDPF move ligand.dum.pdbqt
DOCKED: USER    NEWDPF about 0.217000 0.012000 -0.211000
DOCKED: USER    NEWDPF tran0 38.045383 13.901704 122.364335
DOCKED: USER    NEWDPF quaternion0 0.073675 0.034550 0.906533 0.414218
DOCKED: USER    NEWDPF axisangle0 0.080946 0.037959 0.995995 131.059874
DOCKED: USER    NEWDPF quat0 0.080946 0.037959 0.995995 131.059874
DOCKED: USER    NEWDPF dihe0 -11.20 -94.49 -18.11 -26.80 13.38 
DOCKED: USER  keepresnum = 1 
DOCKED: USER  
DOCKED: REMARK  Name = 
DOCKED: REMARK  5 active torsions:
DOCKED: REMARK  status: ('A' for Active; 'I' for Inactive)
DOCKED: REMARK    1  A    between atoms: S_2  and  N_3
DOCKED: REMARK    2  A    between atoms: S_2  and  C_10
DOCKED: REMARK    3  A    between atoms: N_3  and  C_4
DOCKED: REMARK    4  A    between atoms: C_12  and  C_13
DOCKED: REMARK    5  A    between atoms: C_14  and  C_15
DOCKED: REMARK                            x       y       z     vdW  Elec       q    Type
DOCKED: REMARK                         _______ _______ _______ _____ _____    ______ ____
DOCKED: USER                              x       y       z     vdW  Elec       q    Type
DOCKED: USER                           _______ _______ _______ _____ _____    ______ ____
DOCKED: ROOT
DOCKED: ATOM      1  C   UNL     1      36.788  15.679 122.220 -0.26 -0.00    +0.000 A 
DOCKED: ATOM      2  C   UNL     1      37.011  14.295 122.202 -0.36 -0.00    +0.000 A 
DOCKED: ATOM      3  C   UNL     1      36.383  13.456 123.147 -0.51 -0.00    +0.000 A 
DOCKED: ATOM      4  C   UNL     1      35.546  14.034 124.115 -0.39 -0.00    +0.000 A 
DOCKED: ATOM      5  C   UNL     1      35.316  15.413 124.125 -0.48 -0.00    +0.000 A 
DOCKED: ATOM      6  C   UNL     1      35.931  16.233 123.179 -0.33 -0.00    +0.000 A 
DOCKED: ATOM      7  CM  UNL     1      36.162  14.851 123.164 +0.00 -0.00    +0.000 AC
DOCKED: ENDROOT
DOCKED: BRANCH   1   8
DOCKED: ATOM      8  O   UNL     1      38.026  18.006 121.688 -0.10 -0.00    +0.000 OA
DOCKED: ATOM      9  S   UNL     1      37.596  16.716 121.047 -0.20 -0.00    +0.000 S 
DOCKED: ATOM     10  O   UNL     1      36.638  17.018 119.931 -0.16 -0.00    +0.000 OA
DOCKED: BRANCH   8  10
DOCKED: ATOM     11  N   UNL     1      38.993  15.913 120.400 -0.16 -0.00    +0.000 N 
DOCKED: ATOM     12  H   UNL     1      38.915  15.497 119.511 -0.01 -0.00    +0.000 HD
DOCKED: BRANCH  10  12
DOCKED: ATOM     13  C   UNL     1      40.255  15.820 121.084 -0.22 -0.00    +0.000 A 
DOCKED: ATOM     14  C   UNL     1      41.374  16.577 120.687 -0.16 -0.00    +0.000 A 
DOCKED: ATOM     15  C   UNL     1      42.583  16.467 121.383 -0.25 -0.00    +0.000 A 
DOCKED: ATOM     16  C   UNL     1      42.690  15.600 122.472 -0.35 -0.00    +0.000 A 
DOCKED: ATOM     17  C   UNL     1      41.588  14.838 122.867 -0.50 -0.00    +0.000 A 
DOCKED: ATOM     18  C   UNL     1      40.378  14.945 122.176 -0.40 -0.00    +0.000 A 
DOCKED: ATOM     19  CM  UNL     1      41.478  15.707 121.779 +0.00 -0.00    +0.000 AC
DOCKED: ENDBRANCH  10  12
DOCKED: ENDBRANCH   8  10
DOCKED: ENDBRANCH   1   8
DOCKED: BRANCH   3  18
DOCKED: ATOM     20  C   UNL     1      36.605  11.989 123.187 -0.68 -0.00    +0.000 C 
DOCKED: ATOM     21  C   UNL     1      36.682  11.218 122.092 -0.63 -0.00    +0.000 C 
DOCKED: BRANCH  19  20
DOCKED: ATOM     22  C   UNL     1      36.906   9.758 122.139 -0.63 -0.00    +0.000 C 
DOCKED: ATOM     23  N   UNL     1      36.920   9.024 123.369 -0.60 -0.00    +0.000 N 
DOCKED: ATOM     24  O   UNL     1      37.233   7.707 123.370 -2.60 -0.00    +0.000 OA
DOCKED: ATOM     25  O   UNL     1      37.064   9.139 121.053 -2.73 -0.00    +0.000 OA
DOCKED: ATOM     26  H   UNL     1      36.702   9.478 124.216 -0.48 -0.00    +0.000 HD
DOCKED: ENDBRANCH  19  20
DOCKED: ENDBRANCH   3  18
DOCKED: TORSDOF 5DOCKED: TER
DOCKED: ENDMDL
________________________________________________________________________________


	BEGINNING GENETIC ALGORITHM DOCKING 23 of 100
Run: 23 Seed: 1933531258 1551006571 [ Run 23 of 100 GA/GALS ]
Beginning LAMARCKIAN GENETIC ALGORITHM (LGA), with a maximum of 2500000 energy evaluations.

Final-Value: -14.785


	FINAL GENETIC ALGORITHM DOCKED STATE
	_______________________________________________


Detailed state:  trans 35.436 13.576 122.765 quatxyzw -0.910912 0.313186 -0.229849 -0.139008 center 0.217 0.012 -0.211 ntor 5 7.4045 14.5522 97.8101 -14.4058 -63.6698
State:	 35.436  13.576 122.765  -0.920  0.316 -0.232 -164.019      7.40   14.55   97.81  -14.41  -63.67

DOCKED: MODEL       23
DOCKED: USER    Run = 23
DOCKED: USER    DPF = ligand_dock.biased.dpf
DOCKED: USER  
DOCKED: USER    Estimated Free Energy of Binding    =  -12.22 kcal/mol  [=(1)+(2)+(3)-(4)]
DOCKED: USER    Estimated Inhibition Constant, Ki   =    1.10 nM (nanomolar)  [Temperature = 298.15 K]
DOCKED: USER    
DOCKED: USER    (1) Final Intermolecular Energy     =  -13.71 kcal/mol
DOCKED: USER        vdW + Hbond + desolv Energy     =  -13.71 kcal/mol
DOCKED: USER        Electrostatic Energy            =   +0.00 kcal/mol
DOCKED: USER    (2) Final Total Internal Energy     =   -1.07 kcal/mol
DOCKED: USER    (3) Torsional Free Energy           =   +1.49 kcal/mol
DOCKED: USER    (4) Unbound System's Energy  [=(2)] =   -1.07 kcal/mol
DOCKED: USER    
DOCKED: USER    
DOCKED: USER    NEWDPF move ligand.dum.pdbqt
DOCKED: USER    NEWDPF about 0.217000 0.012000 -0.211000
DOCKED: USER    NEWDPF tran0 35.435837 13.576428 122.765158
DOCKED: USER    NEWDPF quaternion0 -0.910912 0.313186 -0.229849 -0.139008
DOCKED: USER    NEWDPF axisangle0 -0.919843 0.316256 -0.232103 -164.019079
DOCKED: USER    NEWDPF quat0 -0.919843 0.316256 -0.232103 -164.019079
DOCKED: USER    NEWDPF dihe0 7.40 14.55 97.81 -14.41 -63.67 
DOCKED: USER  keepresnum = 1 
DOCKED: USER  
DOCKED: REMARK  Name = 
DOCKED: REMARK  5 active torsions:
DOCKED: REMARK  status: ('A' for Active; 'I' for Inactive)
DOCKED: REMARK    1  A    between atoms: S_2  and  N_3
DOCKED: REMARK    2  A    between atoms: S_2  and  C_10
DOCKED: REMARK    3  A    between atoms: N_3  and  C_4
DOCKED: REMARK    4  A    between atoms: C_12  and  C_13
DOCKED: REMARK    5  A    between atoms: C_14  and  C_15
DOCKED: REMARK                            x       y       z     vdW  Elec       q    Type
DOCKED: REMARK                         _______ _______ _______ _____ _____    ______ ____
DOCKED: USER                              x       y       z     vdW  Elec       q    Type
DOCKED: USER                           _______ _______ _______ _____ _____    ______ ____
DOCKED: ROOT
DOCKED: ATOM      1  C   UNL     1      36.104  15.529 123.474 -0.39 -0.00    +0.000 A 
DOCKED: ATOM      2  C   UNL     1      36.095  14.127 123.482 -0.48 -0.00    +0.000 A 
DOCKED: ATOM      3  C   UNL     1      37.269  13.401 123.192 -0.50 -0.00    +0.000 A 
DOCKED: ATOM      4  C   UNL     1      38.442  14.107 122.879 -0.39 -0.00    +0.000 A 
DOCKED: ATOM      5  C   UNL     1      38.453  15.504 122.881 -0.29 -0.00    +0.000 A 
DOCKED: ATOM      6  C   UNL     1      37.290  16.214 123.181 -0.27 -0.00    +0.000 A 
DOCKED: ATOM      7  CM  UNL     1      37.276  14.813 123.182 +0.00 -0.00    +0.000 AC
DOCKED: ENDROOT
DOCKED: BRANCH   1   8
DOCKED: ATOM      8  O   UNL     1      34.923  17.647 124.634 -0.37 -0.00    +0.000 OA
DOCKED: ATOM      9  S   UNL     1      34.625  16.422 123.817 -0.63 -0.00    +0.000 S 
DOCKED: ATOM     10  O   UNL     1      33.693  15.532 124.588 -0.66 -0.00    +0.000 OA
DOCKED: BRANCH   8  10
DOCKED: ATOM     11  N   UNL     1      33.859  16.903 122.334 -0.32 -0.00    +0.000 N 
DOCKED: ATOM     12  H   UNL     1      32.991  16.496 122.110 +0.00 -0.00    +0.000 HD
DOCKED: BRANCH  10  12
DOCKED: ATOM     13  C   UNL     1      34.417  17.858 121.415 -0.32 -0.00    +0.000 A 
DOCKED: ATOM     14  C   UNL     1      35.677  18.449 121.629 -0.22 -0.00    +0.000 A 
DOCKED: ATOM     15  C   UNL     1      36.192  19.367 120.708 -0.14 -0.00    +0.000 A 
DOCKED: ATOM     16  C   UNL     1      35.456  19.709 119.571 -0.12 -0.00    +0.000 A 
DOCKED: ATOM     17  C   UNL     1      34.202  19.135 119.355 -0.22 -0.00    +0.000 A 
DOCKED: ATOM     18  C   UNL     1      33.683  18.217 120.271 -0.30 -0.00    +0.000 A 
DOCKED: ATOM     19  CM  UNL     1      34.938  18.790 120.491 +0.00 -0.00    +0.000 AC
DOCKED: ENDBRANCH  10  12
DOCKED: ENDBRANCH   8  10
DOCKED: ENDBRANCH   1   8
DOCKED: BRANCH   3  18
DOCKED: ATOM     20  C   UNL     1      37.306  11.917 123.163 -0.55 -0.00    +0.000 C 
DOCKED: ATOM     21  C   UNL     1      36.793  11.179 122.167 -0.61 -0.00    +0.000 C 
DOCKED: BRANCH  19  20
DOCKED: ATOM     22  C   UNL     1      36.835   9.702 122.144 -0.65 -0.00    +0.000 C 
DOCKED: ATOM     23  N   UNL     1      36.924   8.919 123.341 -0.62 -0.00    +0.000 N 
DOCKED: ATOM     24  O   UNL     1      37.065   7.575 123.263 -2.52 -0.00    +0.000 OA
DOCKED: ATOM     25  O   UNL     1      36.765   9.117 121.031 -2.63 -0.00    +0.000 OA
DOCKED: ATOM     26  H   UNL     1      36.882   9.359 124.221 -0.52 -0.00    +0.000 HD
DOCKED: ENDBRANCH  19  20
DOCKED: ENDBRANCH   3  18
DOCKED: TORSDOF 5DOCKED: TER
DOCKED: ENDMDL
________________________________________________________________________________


	BEGINNING GENETIC ALGORITHM DOCKING 24 of 100
Run: 24 Seed: 733256214 1844040482 [ Run 24 of 100 GA/GALS ]
Beginning LAMARCKIAN GENETIC ALGORITHM (LGA), with a maximum of 2500000 energy evaluations.

Final-Value: -14.602


	FINAL GENETIC ALGORITHM DOCKED STATE
	_______________________________________________


Detailed state:  trans 35.130 13.297 123.152 quatxyzw 0.950821 -0.291812 0.086433 0.057565 center 0.217 0.012 -0.211 ntor 5 9.1404 114.2448 121.0160 27.9882 -111.1310
State:	 35.130  13.297 123.152   0.952 -0.292  0.087 173.400      9.14  114.24  121.02   27.99 -111.13

DOCKED: MODEL       24
DOCKED: USER    Run = 24
DOCKED: USER    DPF = ligand_dock.biased.dpf
DOCKED: USER  
DOCKED: USER    Estimated Free Energy of Binding    =  -12.11 kcal/mol  [=(1)+(2)+(3)-(4)]
DOCKED: USER    Estimated Inhibition Constant, Ki   =    1.33 nM (nanomolar)  [Temperature = 298.15 K]
DOCKED: USER    
DOCKED: USER    (1) Final Intermolecular Energy     =  -13.60 kcal/mol
DOCKED: USER        vdW + Hbond + desolv Energy     =  -13.60 kcal/mol
DOCKED: USER        Electrostatic Energy            =   +0.00 kcal/mol
DOCKED: USER    (2) Final Total Internal Energy     =   -1.00 kcal/mol
DOCKED: USER    (3) Torsional Free Energy           =   +1.49 kcal/mol
DOCKED: USER    (4) Unbound System's Energy  [=(2)] =   -1.00 kcal/mol
DOCKED: USER    
DOCKED: USER    
DOCKED: USER    NEWDPF move ligand.dum.pdbqt
DOCKED: USER    NEWDPF about 0.217000 0.012000 -0.211000
DOCKED: USER    NEWDPF tran0 35.130371 13.296734 123.152394
DOCKED: USER    NEWDPF quaternion0 0.950821 -0.291812 0.086433 0.057565
DOCKED: USER    NEWDPF axisangle0 0.952401 -0.292297 0.086577 173.399929
DOCKED: USER    NEWDPF quat0 0.952401 -0.292297 0.086577 173.399929
DOCKED: USER    NEWDPF dihe0 9.14 114.24 121.02 27.99 -111.13 
DOCKED: USER  keepresnum = 1 
DOCKED: USER  
DOCKED: REMARK  Name = 
DOCKED: REMARK  5 active torsions:
DOCKED: REMARK  status: ('A' for Active; 'I' for Inactive)
DOCKED: REMARK    1  A    between atoms: S_2  and  N_3
DOCKED: REMARK    2  A    between atoms: S_2  and  C_10
DOCKED: REMARK    3  A    between atoms: N_3  and  C_4
DOCKED: REMARK    4  A    between atoms: C_12  and  C_13
DOCKED: REMARK    5  A    between atoms: C_14  and  C_15
DOCKED: REMARK                            x       y       z     vdW  Elec       q    Type
DOCKED: REMARK                         _______ _______ _______ _____ _____    ______ ____
DOCKED: USER                              x       y       z     vdW  Elec       q    Type
DOCKED: USER                           _______ _______ _______ _____ _____    ______ ____
DOCKED: ROOT
DOCKED: ATOM      1  C   UNL     1      35.834  15.337 123.474 -0.42 -0.00    +0.000 A 
DOCKED: ATOM      2  C   UNL     1      35.938  13.943 123.580 -0.49 -0.00    +0.000 A 
DOCKED: ATOM      3  C   UNL     1      37.012  13.256 122.976 -0.51 -0.00    +0.000 A 
DOCKED: ATOM      4  C   UNL     1      37.966  13.992 122.254 -0.41 -0.00    +0.000 A 
DOCKED: ATOM      5  C   UNL     1      37.868  15.383 122.158 -0.29 -0.00    +0.000 A 
DOCKED: ATOM      6  C   UNL     1      36.808  16.055 122.769 -0.28 -0.00    +0.000 A 
DOCKED: ATOM      7  CM  UNL     1      36.904  14.661 122.869 +0.00 -0.00    +0.000 AC
DOCKED: ENDROOT
DOCKED: BRANCH   1   8
DOCKED: ATOM      8  O   UNL     1      34.840  16.669 125.587 -0.38 -0.00    +0.000 OA
DOCKED: ATOM      9  S   UNL     1      34.475  16.178 124.215 -0.68 -0.00    +0.000 S 
DOCKED: ATOM     10  O   UNL     1      33.321  15.223 124.326 -0.43 -0.00    +0.000 OA
DOCKED: BRANCH   8  10
DOCKED: ATOM     11  N   UNL     1      34.004  17.533 123.235 -0.39 -0.00    +0.000 N 
DOCKED: ATOM     12  H   UNL     1      33.078  17.858 123.311 -0.02 -0.00    +0.000 HD
DOCKED: BRANCH  10  12
DOCKED: ATOM     13  C   UNL     1      34.886  18.207 122.320 -0.28 -0.00    +0.000 A 
DOCKED: ATOM     14  C   UNL     1      34.829  17.985 120.931 -0.27 -0.00    +0.000 A 
DOCKED: ATOM     15  C   UNL     1      35.695  18.667 120.070 -0.17 -0.00    +0.000 A 
DOCKED: ATOM     16  C   UNL     1      36.629  19.569 120.585 -0.12 -0.00    +0.000 A 
DOCKED: ATOM     17  C   UNL     1      36.699  19.789 121.962 -0.13 -0.00    +0.000 A 
DOCKED: ATOM     18  C   UNL     1      35.835  19.111 122.825 -0.18 -0.00    +0.000 A 
DOCKED: ATOM     19  CM  UNL     1      35.763  18.888 121.449 +0.00 -0.00    +0.000 AC
DOCKED: ENDBRANCH  10  12
DOCKED: ENDBRANCH   8  10
DOCKED: ENDBRANCH   1   8
DOCKED: BRANCH   3  18
DOCKED: ATOM     20  C   UNL     1      37.154  11.780 123.037 -0.60 -0.00    +0.000 C 
DOCKED: ATOM     21  C   UNL     1      36.774  10.954 122.050 -0.61 -0.00    +0.000 C 
DOCKED: BRANCH  19  20
DOCKED: ATOM     22  C   UNL     1      36.921   9.485 122.117 -0.65 -0.00    +0.000 C 
DOCKED: ATOM     23  N   UNL     1      36.931   8.772 123.360 -0.64 -0.00    +0.000 N 
DOCKED: ATOM     24  O   UNL     1      37.173   7.440 123.375 -2.43 -0.00    +0.000 OA
DOCKED: ATOM     25  O   UNL     1      37.014   8.841 121.038 -2.69 -0.00    +0.000 OA
DOCKED: ATOM     26  H   UNL     1      36.763   9.251 124.204 -0.50 -0.00    +0.000 HD
DOCKED: ENDBRANCH  19  20
DOCKED: ENDBRANCH   3  18
DOCKED: TORSDOF 5DOCKED: TER
DOCKED: ENDMDL
________________________________________________________________________________


	BEGINNING GENETIC ALGORITHM DOCKING 25 of 100
Run: 25 Seed: 1725323576 1162172876 [ Run 25 of 100 GA/GALS ]
Beginning LAMARCKIAN GENETIC ALGORITHM (LGA), with a maximum of 2500000 energy evaluations.

Final-Value: -14.374


	FINAL GENETIC ALGORITHM DOCKED STATE
	_______________________________________________


Detailed state:  trans 38.303 13.302 122.775 quatxyzw -0.039617 0.046761 0.950853 0.303516 center 0.217 0.012 -0.211 ntor 5 -73.0022 158.1838 16.3343 10.1799 121.3042
State:	 38.303  13.302 122.775  -0.042  0.049  0.998 144.662    -73.00  158.18   16.33   10.18  121.30

DOCKED: MODEL       25
DOCKED: USER    Run = 25
DOCKED: USER    DPF = ligand_dock.biased.dpf
DOCKED: USER  
DOCKED: USER    Estimated Free Energy of Binding    =  -11.50 kcal/mol  [=(1)+(2)+(3)-(4)]
DOCKED: USER    Estimated Inhibition Constant, Ki   =    3.70 nM (nanomolar)  [Temperature = 298.15 K]
DOCKED: USER    
DOCKED: USER    (1) Final Intermolecular Energy     =  -12.99 kcal/mol
DOCKED: USER        vdW + Hbond + desolv Energy     =  -12.99 kcal/mol
DOCKED: USER        Electrostatic Energy            =   +0.00 kcal/mol
DOCKED: USER    (2) Final Total Internal Energy     =   -1.38 kcal/mol
DOCKED: USER    (3) Torsional Free Energy           =   +1.49 kcal/mol
DOCKED: USER    (4) Unbound System's Energy  [=(2)] =   -1.38 kcal/mol
DOCKED: USER    
DOCKED: USER    
DOCKED: USER    NEWDPF move ligand.dum.pdbqt
DOCKED: USER    NEWDPF about 0.217000 0.012000 -0.211000
DOCKED: USER    NEWDPF tran0 38.303295 13.302474 122.774896
DOCKED: USER    NEWDPF quaternion0 -0.039617 0.046761 0.950853 0.303516
DOCKED: USER    NEWDPF axisangle0 -0.041578 0.049076 0.997929 144.662247
DOCKED: USER    NEWDPF quat0 -0.041578 0.049076 0.997929 144.662247
DOCKED: USER    NEWDPF dihe0 -73.00 158.18 16.33 10.18 121.30 
DOCKED: USER  keepresnum = 1 
DOCKED: USER  
DOCKED: REMARK  Name = 
DOCKED: REMARK  5 active torsions:
DOCKED: REMARK  status: ('A' for Active; 'I' for Inactive)
DOCKED: REMARK    1  A    between atoms: S_2  and  N_3
DOCKED: REMARK    2  A    between atoms: S_2  and  C_10
DOCKED: REMARK    3  A    between atoms: N_3  and  C_4
DOCKED: REMARK    4  A    between atoms: C_12  and  C_13
DOCKED: REMARK    5  A    between atoms: C_14  and  C_15
DOCKED: REMARK                            x       y       z     vdW  Elec       q    Type
DOCKED: REMARK                         _______ _______ _______ _____ _____    ______ ____
DOCKED: USER                              x       y       z     vdW  Elec       q    Type
DOCKED: USER                           _______ _______ _______ _____ _____    ______ ____
DOCKED: ROOT
DOCKED: ATOM      1  C   UNL     1      37.533  15.326 122.507 -0.31 -0.00    +0.000 A 
DOCKED: ATOM      2  C   UNL     1      37.446  13.929 122.423 -0.43 -0.00    +0.000 A 
DOCKED: ATOM      3  C   UNL     1      36.448  13.229 123.133 -0.52 -0.00    +0.000 A 
DOCKED: ATOM      4  C   UNL     1      35.555  13.955 123.937 -0.43 -0.00    +0.000 A 
DOCKED: ATOM      5  C   UNL     1      35.635  15.348 124.013 -0.44 -0.00    +0.000 A 
DOCKED: ATOM      6  C   UNL     1      36.618  16.033 123.297 -0.32 -0.00    +0.000 A 
DOCKED: ATOM      7  CM  UNL     1      36.539  14.636 123.218 +0.00 -0.00    +0.000 AC
DOCKED: ENDROOT
DOCKED: BRANCH   1   8
DOCKED: ATOM      8  O   UNL     1      40.049  15.355 121.559 -0.37 -0.00    +0.000 OA
DOCKED: ATOM      9  S   UNL     1      38.798  16.185 121.632 -0.27 -0.00    +0.000 S 
DOCKED: ATOM     10  O   UNL     1      39.101  17.465 122.356 -0.15 -0.00    +0.000 OA
DOCKED: BRANCH   8  10
DOCKED: ATOM     11  N   UNL     1      38.268  16.552 120.020 -0.11 -0.00    +0.000 N 
DOCKED: ATOM     12  H   UNL     1      38.474  17.444 119.658 +0.00 -0.00    +0.000 HD
DOCKED: BRANCH  10  12
DOCKED: ATOM     13  C   UNL     1      37.545  15.631 119.183 -0.17 -0.00    +0.000 A 
DOCKED: ATOM     14  C   UNL     1      36.565  16.067 118.269 -0.15 -0.00    +0.000 A 
DOCKED: ATOM     15  C   UNL     1      35.890  15.144 117.464 -0.23 -0.00    +0.000 A 
DOCKED: ATOM     16  C   UNL     1      36.178  13.782 117.566 -0.35 -0.00    +0.000 A 
DOCKED: ATOM     17  C   UNL     1      37.141  13.339 118.475 -0.38 -0.00    +0.000 A 
DOCKED: ATOM     18  C   UNL     1      37.819  14.257 119.281 -0.28 -0.00    +0.000 A 
DOCKED: ATOM     19  CM  UNL     1      36.857  14.703 118.373 +0.00 -0.00    +0.000 AC
DOCKED: ENDBRANCH  10  12
DOCKED: ENDBRANCH   8  10
DOCKED: ENDBRANCH   1   8
DOCKED: BRANCH   3  18
DOCKED: ATOM     20  C   UNL     1      36.330  11.750 123.097 -0.69 -0.00    +0.000 C 
DOCKED: ATOM     21  C   UNL     1      37.068  10.963 122.300 -0.55 -0.00    +0.000 C 
DOCKED: BRANCH  19  20
DOCKED: ATOM     22  C   UNL     1      36.946   9.491 122.272 -0.64 -0.00    +0.000 C 
DOCKED: ATOM     23  N   UNL     1      37.079   8.687 123.451 -0.64 -0.00    +0.000 N 
DOCKED: ATOM     24  O   UNL     1      37.063   7.338 123.357 -2.39 -0.00    +0.000 OA
DOCKED: ATOM     25  O   UNL     1      36.691   8.930 121.173 -2.62 -0.00    +0.000 OA
DOCKED: ATOM     26  H   UNL     1      37.182   9.118 124.331 -0.55 -0.00    +0.000 HD
DOCKED: ENDBRANCH  19  20
DOCKED: ENDBRANCH   3  18
DOCKED: TORSDOF 5DOCKED: TER
DOCKED: ENDMDL
________________________________________________________________________________


	BEGINNING GENETIC ALGORITHM DOCKING 26 of 100
Run: 26 Seed: 672041729 502460784 [ Run 26 of 100 GA/GALS ]
Beginning LAMARCKIAN GENETIC ALGORITHM (LGA), with a maximum of 2500000 energy evaluations.

Final-Value: -14.956


	FINAL GENETIC ALGORITHM DOCKED STATE
	_______________________________________________


Detailed state:  trans 35.386 13.418 122.596 quatxyzw -0.932347 0.279147 -0.149164 -0.174805 center 0.217 0.012 -0.211 ntor 5 65.6374 -82.0605 49.8064 -114.0920 150.9830
State:	 35.386  13.418 122.596  -0.947  0.284 -0.151 -159.865     65.64  -82.06   49.81 -114.09  150.98

DOCKED: MODEL       26
DOCKED: USER    Run = 26
DOCKED: USER    DPF = ligand_dock.biased.dpf
DOCKED: USER  
DOCKED: USER    Estimated Free Energy of Binding    =  -12.53 kcal/mol  [=(1)+(2)+(3)-(4)]
DOCKED: USER    Estimated Inhibition Constant, Ki   =  657.21 pM (picomolar)  [Temperature = 298.15 K]
DOCKED: USER    
DOCKED: USER    (1) Final Intermolecular Energy     =  -14.02 kcal/mol
DOCKED: USER        vdW + Hbond + desolv Energy     =  -14.02 kcal/mol
DOCKED: USER        Electrostatic Energy            =   +0.00 kcal/mol
DOCKED: USER    (2) Final Total Internal Energy     =   -0.94 kcal/mol
DOCKED: USER    (3) Torsional Free Energy           =   +1.49 kcal/mol
DOCKED: USER    (4) Unbound System's Energy  [=(2)] =   -0.94 kcal/mol
DOCKED: USER    
DOCKED: USER    
DOCKED: USER    NEWDPF move ligand.dum.pdbqt
DOCKED: USER    NEWDPF about 0.217000 0.012000 -0.211000
DOCKED: USER    NEWDPF tran0 35.385560 13.418253 122.596470
DOCKED: USER    NEWDPF quaternion0 -0.932347 0.279147 -0.149164 -0.174805
DOCKED: USER    NEWDPF axisangle0 -0.946927 0.283512 -0.151497 -159.865435
DOCKED: USER    NEWDPF quat0 -0.946927 0.283512 -0.151497 -159.865435
DOCKED: USER    NEWDPF dihe0 65.64 -82.06 49.81 -114.09 150.98 
DOCKED: USER  keepresnum = 1 
DOCKED: USER  
DOCKED: REMARK  Name = 
DOCKED: REMARK  5 active torsions:
DOCKED: REMARK  status: ('A' for Active; 'I' for Inactive)
DOCKED: REMARK    1  A    between atoms: S_2  and  N_3
DOCKED: REMARK    2  A    between atoms: S_2  and  C_10
DOCKED: REMARK    3  A    between atoms: N_3  and  C_4
DOCKED: REMARK    4  A    between atoms: C_12  and  C_13
DOCKED: REMARK    5  A    between atoms: C_14  and  C_15
DOCKED: REMARK                            x       y       z     vdW  Elec       q    Type
DOCKED: REMARK                         _______ _______ _______ _____ _____    ______ ____
DOCKED: USER                              x       y       z     vdW  Elec       q    Type
DOCKED: USER                           _______ _______ _______ _____ _____    ______ ____
DOCKED: ROOT
DOCKED: ATOM      1  C   UNL     1      35.926  15.368 123.414 -0.41 -0.00    +0.000 A 
DOCKED: ATOM      2  C   UNL     1      36.069  13.979 123.282 -0.45 -0.00    +0.000 A 
DOCKED: ATOM      3  C   UNL     1      37.267  13.427 122.782 -0.48 -0.00    +0.000 A 
DOCKED: ATOM      4  C   UNL     1      38.306  14.293 122.405 -0.40 -0.00    +0.000 A 
DOCKED: ATOM      5  C   UNL     1      38.167  15.676 122.546 -0.28 -0.00    +0.000 A 
DOCKED: ATOM      6  C   UNL     1      36.982  16.213 123.053 -0.28 -0.00    +0.000 A 
DOCKED: ATOM      7  CM  UNL     1      37.119  14.825 122.914 +0.00 -0.00    +0.000 AC
DOCKED: ENDROOT
DOCKED: BRANCH   1   8
DOCKED: ATOM      8  O   UNL     1      33.401  14.958 124.245 -0.53 -0.00    +0.000 OA
DOCKED: ATOM      9  S   UNL     1      34.415  16.044 124.018 -0.69 -0.00    +0.000 S 
DOCKED: ATOM     10  O   UNL     1      33.880  17.011 123.001 -0.44 -0.00    +0.000 OA
DOCKED: BRANCH   8  10
DOCKED: ATOM     11  N   UNL     1      34.692  16.883 125.514 -0.36 -0.00    +0.000 N 
DOCKED: ATOM     12  H   UNL     1      35.622  17.080 125.768 -0.02 -0.00    +0.000 HD
DOCKED: BRANCH  10  12
DOCKED: ATOM     13  C   UNL     1      33.643  17.306 126.403 -0.35 -0.00    +0.000 A 
DOCKED: ATOM     14  C   UNL     1      33.094  18.601 126.344 -0.26 -0.00    +0.000 A 
DOCKED: ATOM     15  C   UNL     1      32.068  18.974 127.219 -0.21 -0.00    +0.000 A 
DOCKED: ATOM     16  C   UNL     1      31.586  18.065 128.162 -0.25 -0.00    +0.000 A 
DOCKED: ATOM     17  C   UNL     1      32.130  16.781 128.236 -0.40 -0.00    +0.000 A 
DOCKED: ATOM     18  C   UNL     1      33.155  16.404 127.363 -0.37 -0.00    +0.000 A 
DOCKED: ATOM     19  CM  UNL     1      32.613  17.688 127.288 +0.00 -0.00    +0.000 AC
DOCKED: ENDBRANCH  10  12
DOCKED: ENDBRANCH   8  10
DOCKED: ENDBRANCH   1   8
DOCKED: BRANCH   3  18
DOCKED: ATOM     20  C   UNL     1      37.459  11.967 122.600 -0.41 -0.00    +0.000 C 
DOCKED: ATOM     21  C   UNL     1      36.455  11.105 122.376 -0.66 -0.00    +0.000 C 
DOCKED: BRANCH  19  20
DOCKED: ATOM     22  C   UNL     1      36.655   9.653 122.193 -0.69 -0.00    +0.000 C 
DOCKED: ATOM     23  N   UNL     1      36.771   8.749 123.299 -0.65 -0.00    +0.000 N 
DOCKED: ATOM     24  O   UNL     1      37.057   7.445 123.081 -2.37 -0.00    +0.000 OA
DOCKED: ATOM     25  O   UNL     1      36.698   9.196 121.019 -2.60 +0.00    +0.000 OA
DOCKED: ATOM     26  H   UNL     1      36.642   9.078 124.218 -0.45 -0.00    +0.000 HD
DOCKED: ENDBRANCH  19  20
DOCKED: ENDBRANCH   3  18
DOCKED: TORSDOF 5DOCKED: TER
DOCKED: ENDMDL
________________________________________________________________________________


	BEGINNING GENETIC ALGORITHM DOCKING 27 of 100
Run: 27 Seed: 1313782907 2061690169 [ Run 27 of 100 GA/GALS ]
Beginning LAMARCKIAN GENETIC ALGORITHM (LGA), with a maximum of 2500000 energy evaluations.

Final-Value: -13.405


	FINAL GENETIC ALGORITHM DOCKED STATE
	_______________________________________________


Detailed state:  trans 37.501 13.583 119.027 quatxyzw 0.540730 -0.150964 0.775191 0.289654 center 0.217 0.012 -0.211 ntor 5 151.4791 -38.0354 -122.3200 -11.7005 16.9511
State:	 37.501  13.583 119.027   0.565 -0.158  0.810 146.326    151.48  -38.04 -122.32  -11.70   16.95

DOCKED: MODEL       27
DOCKED: USER    Run = 27
DOCKED: USER    DPF = ligand_dock.biased.dpf
DOCKED: USER  
DOCKED: USER    Estimated Free Energy of Binding    =  -10.72 kcal/mol  [=(1)+(2)+(3)-(4)]
DOCKED: USER    Estimated Inhibition Constant, Ki   =   13.87 nM (nanomolar)  [Temperature = 298.15 K]
DOCKED: USER    
DOCKED: USER    (1) Final Intermolecular Energy     =  -12.21 kcal/mol
DOCKED: USER        vdW + Hbond + desolv Energy     =  -12.21 kcal/mol
DOCKED: USER        Electrostatic Energy            =   +0.00 kcal/mol
DOCKED: USER    (2) Final Total Internal Energy     =   -1.19 kcal/mol
DOCKED: USER    (3) Torsional Free Energy           =   +1.49 kcal/mol
DOCKED: USER    (4) Unbound System's Energy  [=(2)] =   -1.19 kcal/mol
DOCKED: USER    
DOCKED: USER    
DOCKED: USER    NEWDPF move ligand.dum.pdbqt
DOCKED: USER    NEWDPF about 0.217000 0.012000 -0.211000
DOCKED: USER    NEWDPF tran0 37.500841 13.582874 119.027227
DOCKED: USER    NEWDPF quaternion0 0.540730 -0.150964 0.775191 0.289654
DOCKED: USER    NEWDPF axisangle0 0.564949 -0.157726 0.809911 146.325534
DOCKED: USER    NEWDPF quat0 0.564949 -0.157726 0.809911 146.325534
DOCKED: USER    NEWDPF dihe0 151.48 -38.04 -122.32 -11.70 16.95 
DOCKED: USER  keepresnum = 1 
DOCKED: USER  
DOCKED: REMARK  Name = 
DOCKED: REMARK  5 active torsions:
DOCKED: REMARK  status: ('A' for Active; 'I' for Inactive)
DOCKED: REMARK    1  A    between atoms: S_2  and  N_3
DOCKED: REMARK    2  A    between atoms: S_2  and  C_10
DOCKED: REMARK    3  A    between atoms: N_3  and  C_4
DOCKED: REMARK    4  A    between atoms: C_12  and  C_13
DOCKED: REMARK    5  A    between atoms: C_14  and  C_15
DOCKED: REMARK                            x       y       z     vdW  Elec       q    Type
DOCKED: REMARK                         _______ _______ _______ _____ _____    ______ ____
DOCKED: USER                              x       y       z     vdW  Elec       q    Type
DOCKED: USER                           _______ _______ _______ _____ _____    ______ ____
DOCKED: ROOT
DOCKED: ATOM      1  C   UNL     1      36.979  15.570 119.761 -0.18 -0.00    +0.000 A 
DOCKED: ATOM      2  C   UNL     1      36.914  14.170 119.777 -0.22 -0.00    +0.000 A 
DOCKED: ATOM      3  C   UNL     1      37.349  13.445 120.907 -0.39 -0.00    +0.000 A 
DOCKED: ATOM      4  C   UNL     1      37.862  14.151 122.007 -0.39 -0.00    +0.000 A 
DOCKED: ATOM      5  C   UNL     1      37.917  15.547 121.994 -0.26 -0.00    +0.000 A 
DOCKED: ATOM      6  C   UNL     1      37.473  16.256 120.877 -0.16 -0.00    +0.000 A 
DOCKED: ATOM      7  CM  UNL     1      37.415  14.856 120.887 +0.00 -0.00    +0.000 AC
DOCKED: ENDROOT
DOCKED: BRANCH   1   8
DOCKED: ATOM      8  O   UNL     1      37.409  17.578 118.024 -0.06 -0.00    +0.000 OA
DOCKED: ATOM      9  S   UNL     1      36.452  16.460 118.334 -0.19 -0.00    +0.000 S 
DOCKED: ATOM     10  O   UNL     1      35.093  17.039 118.603 -0.18 -0.00    +0.000 OA
DOCKED: BRANCH   8  10
DOCKED: ATOM     11  N   UNL     1      36.361  15.397 116.965 -0.17 -0.00    +0.000 N 
DOCKED: ATOM     12  H   UNL     1      35.477  15.242 116.559 -0.00 -0.00    +0.000 HD
DOCKED: BRANCH  10  12
DOCKED: ATOM     13  C   UNL     1      37.497  14.728 116.389 -0.24 -0.00    +0.000 A 
DOCKED: ATOM     14  C   UNL     1      38.676  15.421 116.052 -0.19 -0.00    +0.000 A 
DOCKED: ATOM     15  C   UNL     1      39.765  14.736 115.503 -0.33 -0.00    +0.000 A 
DOCKED: ATOM     16  C   UNL     1      39.688  13.360 115.280 -0.24 -0.00    +0.000 A 
DOCKED: ATOM     17  C   UNL     1      38.520  12.666 115.602 -0.48 -0.00    +0.000 A 
DOCKED: ATOM     18  C   UNL     1      37.430  13.345 116.151 -0.37 -0.00    +0.000 A 
DOCKED: ATOM     19  CM  UNL     1      38.596  14.042 115.829 +0.00 -0.00    +0.000 AC
DOCKED: ENDBRANCH  10  12
DOCKED: ENDBRANCH   8  10
DOCKED: ENDBRANCH   1   8
DOCKED: BRANCH   3  18
DOCKED: ATOM     20  C   UNL     1      37.324  11.963 120.964 -0.52 -0.00    +0.000 C 
DOCKED: ATOM     21  C   UNL     1      37.066  11.264 122.080 -0.56 -0.00    +0.000 C 
DOCKED: BRANCH  19  20
DOCKED: ATOM     22  C   UNL     1      37.041   9.788 122.129 -0.59 -0.00    +0.000 C 
DOCKED: ATOM     23  N   UNL     1      36.984   9.062 123.363 -0.60 -0.00    +0.000 N 
DOCKED: ATOM     24  O   UNL     1      37.069   7.711 123.359 -2.65 -0.00    +0.000 OA
DOCKED: ATOM     25  O   UNL     1      37.044   9.152 121.041 -2.72 -0.00    +0.000 OA
DOCKED: ATOM     26  H   UNL     1      36.883   9.546 124.214 -0.53 -0.00    +0.000 HD
DOCKED: ENDBRANCH  19  20
DOCKED: ENDBRANCH   3  18
DOCKED: TORSDOF 5DOCKED: TER
DOCKED: ENDMDL
________________________________________________________________________________


	BEGINNING GENETIC ALGORITHM DOCKING 28 of 100
Run: 28 Seed: 2012214297 1910422930 [ Run 28 of 100 GA/GALS ]
Beginning LAMARCKIAN GENETIC ALGORITHM (LGA), with a maximum of 2500000 energy evaluations.

Final-Value: -14.187


	FINAL GENETIC ALGORITHM DOCKED STATE
	_______________________________________________


Detailed state:  trans 38.145 13.493 121.789 quatxyzw 0.159500 0.035047 0.923387 0.347403 center 0.217 0.012 -0.211 ntor 5 -32.1225 149.4155 2.9100 145.0884 39.5542
State:	 38.145  13.493 121.789   0.170  0.037  0.985 139.343    -32.12  149.42    2.91  145.09   39.55

DOCKED: MODEL       28
DOCKED: USER    Run = 28
DOCKED: USER    DPF = ligand_dock.biased.dpf
DOCKED: USER  
DOCKED: USER    Estimated Free Energy of Binding    =  -11.49 kcal/mol  [=(1)+(2)+(3)-(4)]
DOCKED: USER    Estimated Inhibition Constant, Ki   =    3.77 nM (nanomolar)  [Temperature = 298.15 K]
DOCKED: USER    
DOCKED: USER    (1) Final Intermolecular Energy     =  -12.98 kcal/mol
DOCKED: USER        vdW + Hbond + desolv Energy     =  -12.98 kcal/mol
DOCKED: USER        Electrostatic Energy            =   +0.00 kcal/mol
DOCKED: USER    (2) Final Total Internal Energy     =   -1.20 kcal/mol
DOCKED: USER    (3) Torsional Free Energy           =   +1.49 kcal/mol
DOCKED: USER    (4) Unbound System's Energy  [=(2)] =   -1.20 kcal/mol
DOCKED: USER    
DOCKED: USER    
DOCKED: USER    NEWDPF move ligand.dum.pdbqt
DOCKED: USER    NEWDPF about 0.217000 0.012000 -0.211000
DOCKED: USER    NEWDPF tran0 38.145438 13.493404 121.788942
DOCKED: USER    NEWDPF quaternion0 0.159500 0.035047 0.923387 0.347403
DOCKED: USER    NEWDPF axisangle0 0.170094 0.037374 0.984719 139.342880
DOCKED: USER    NEWDPF quat0 0.170094 0.037374 0.984719 139.342880
DOCKED: USER    NEWDPF dihe0 -32.12 149.42 2.91 145.09 39.55 
DOCKED: USER  keepresnum = 1 
DOCKED: USER  
DOCKED: REMARK  Name = 
DOCKED: REMARK  5 active torsions:
DOCKED: REMARK  status: ('A' for Active; 'I' for Inactive)
DOCKED: REMARK    1  A    between atoms: S_2  and  N_3
DOCKED: REMARK    2  A    between atoms: S_2  and  C_10
DOCKED: REMARK    3  A    between atoms: N_3  and  C_4
DOCKED: REMARK    4  A    between atoms: C_12  and  C_13
DOCKED: REMARK    5  A    between atoms: C_14  and  C_15
DOCKED: REMARK                            x       y       z     vdW  Elec       q    Type
DOCKED: REMARK                         _______ _______ _______ _____ _____    ______ ____
DOCKED: USER                              x       y       z     vdW  Elec       q    Type
DOCKED: USER                           _______ _______ _______ _____ _____    ______ ____
DOCKED: ROOT
DOCKED: ATOM      1  C   UNL     1      37.131  15.421 121.663 -0.24 -0.00    +0.000 A 
DOCKED: ATOM      2  C   UNL     1      37.160  14.021 121.740 -0.35 -0.00    +0.000 A 
DOCKED: ATOM      3  C   UNL     1      36.578  13.351 122.836 -0.49 -0.00    +0.000 A 
DOCKED: ATOM      4  C   UNL     1      35.983  14.111 123.856 -0.49 -0.00    +0.000 A 
DOCKED: ATOM      5  C   UNL     1      35.945  15.506 123.774 -0.41 -0.00    +0.000 A 
DOCKED: ATOM      6  C   UNL     1      36.513  16.160 122.680 -0.28 -0.00    +0.000 A 
DOCKED: ATOM      7  CM  UNL     1      36.551  14.761 122.758 +0.00 -0.00    +0.000 AC
DOCKED: ENDROOT
DOCKED: BRANCH   1   8
DOCKED: ATOM      8  O   UNL     1      39.048  17.075 120.758 -0.10 -0.00    +0.000 OA
DOCKED: ATOM      9  S   UNL     1      37.882  16.245 120.299 -0.21 -0.00    +0.000 S 
DOCKED: ATOM     10  O   UNL     1      36.862  17.143 119.659 -0.13 -0.00    +0.000 OA
DOCKED: BRANCH   8  10
DOCKED: ATOM     11  N   UNL     1      38.436  15.085 119.131 -0.19 -0.00    +0.000 N 
DOCKED: ATOM     12  H   UNL     1      39.340  14.712 119.245 -0.09 -0.00    +0.000 HD
DOCKED: BRANCH  10  12
DOCKED: ATOM     13  C   UNL     1      37.655  14.639 118.008 -0.24 -0.00    +0.000 A 
DOCKED: ATOM     14  C   UNL     1      38.216  14.483 116.726 -0.26 -0.00    +0.000 A 
DOCKED: ATOM     15  C   UNL     1      37.428  14.037 115.660 -0.33 -0.00    +0.000 A 
DOCKED: ATOM     16  C   UNL     1      36.076  13.750 115.859 -0.27 -0.00    +0.000 A 
DOCKED: ATOM     17  C   UNL     1      35.508  13.910 117.125 -0.29 -0.00    +0.000 A 
DOCKED: ATOM     18  C   UNL     1      36.291  14.355 118.193 -0.31 -0.00    +0.000 A 
DOCKED: ATOM     19  CM  UNL     1      36.862  14.196 116.929 +0.00 -0.00    +0.000 AC
DOCKED: ENDBRANCH  10  12
DOCKED: ENDBRANCH   8  10
DOCKED: ENDBRANCH   1   8
DOCKED: BRANCH   3  18
DOCKED: ATOM     20  C   UNL     1      36.605  11.874 122.977 -0.67 -0.00    +0.000 C 
DOCKED: ATOM     21  C   UNL     1      36.816  11.032 121.953 -0.59 -0.00    +0.000 C 
DOCKED: BRANCH  19  20
DOCKED: ATOM     22  C   UNL     1      36.844   9.562 122.102 -0.66 -0.00    +0.000 C 
DOCKED: ATOM     23  N   UNL     1      36.944   8.922 123.380 -0.61 -0.00    +0.000 N 
DOCKED: ATOM     24  O   UNL     1      37.071   7.577 123.456 -2.60 -0.00    +0.000 OA
DOCKED: ATOM     25  O   UNL     1      36.750   8.852 121.065 -2.63 -0.00    +0.000 OA
DOCKED: ATOM     26  H   UNL     1      36.920   9.462 124.203 -0.55 -0.00    +0.000 HD
DOCKED: ENDBRANCH  19  20
DOCKED: ENDBRANCH   3  18
DOCKED: TORSDOF 5DOCKED: TER
DOCKED: ENDMDL
________________________________________________________________________________


	BEGINNING GENETIC ALGORITHM DOCKING 29 of 100
Run: 29 Seed: 1167985259 1442511012 [ Run 29 of 100 GA/GALS ]
Beginning LAMARCKIAN GENETIC ALGORITHM (LGA), with a maximum of 2500000 energy evaluations.

Final-Value: -14.670


	FINAL GENETIC ALGORITHM DOCKED STATE
	_______________________________________________


Detailed state:  trans 35.354 13.306 122.768 quatxyzw -0.932880 0.278029 -0.139519 -0.181574 center 0.217 0.012 -0.211 ntor 5 64.9066 111.6324 51.1523 34.6620 -102.9828
State:	 35.354  13.306 122.768  -0.949  0.283 -0.142 -159.077     64.91  111.63   51.15   34.66 -102.98

DOCKED: MODEL       29
DOCKED: USER    Run = 29
DOCKED: USER    DPF = ligand_dock.biased.dpf
DOCKED: USER  
DOCKED: USER    Estimated Free Energy of Binding    =  -12.08 kcal/mol  [=(1)+(2)+(3)-(4)]
DOCKED: USER    Estimated Inhibition Constant, Ki   =    1.40 nM (nanomolar)  [Temperature = 298.15 K]
DOCKED: USER    
DOCKED: USER    (1) Final Intermolecular Energy     =  -13.57 kcal/mol
DOCKED: USER        vdW + Hbond + desolv Energy     =  -13.57 kcal/mol
DOCKED: USER        Electrostatic Energy            =   +0.00 kcal/mol
DOCKED: USER    (2) Final Total Internal Energy     =   -1.10 kcal/mol
DOCKED: USER    (3) Torsional Free Energy           =   +1.49 kcal/mol
DOCKED: USER    (4) Unbound System's Energy  [=(2)] =   -1.10 kcal/mol
DOCKED: USER    
DOCKED: USER    
DOCKED: USER    NEWDPF move ligand.dum.pdbqt
DOCKED: USER    NEWDPF about 0.217000 0.012000 -0.211000
DOCKED: USER    NEWDPF tran0 35.354127 13.305529 122.767932
DOCKED: USER    NEWDPF quaternion0 -0.932880 0.278029 -0.139519 -0.181574
DOCKED: USER    NEWDPF axisangle0 -0.948649 0.282729 -0.141878 -159.077089
DOCKED: USER    NEWDPF quat0 -0.948649 0.282729 -0.141878 -159.077089
DOCKED: USER    NEWDPF dihe0 64.91 111.63 51.15 34.66 -102.98 
DOCKED: USER  keepresnum = 1 
DOCKED: USER  
DOCKED: REMARK  Name = 
DOCKED: REMARK  5 active torsions:
DOCKED: REMARK  status: ('A' for Active; 'I' for Inactive)
DOCKED: REMARK    1  A    between atoms: S_2  and  N_3
DOCKED: REMARK    2  A    between atoms: S_2  and  C_10
DOCKED: REMARK    3  A    between atoms: N_3  and  C_4
DOCKED: REMARK    4  A    between atoms: C_12  and  C_13
DOCKED: REMARK    5  A    between atoms: C_14  and  C_15
DOCKED: REMARK                            x       y       z     vdW  Elec       q    Type
DOCKED: REMARK                         _______ _______ _______ _____ _____    ______ ____
DOCKED: USER                              x       y       z     vdW  Elec       q    Type
DOCKED: USER                           _______ _______ _______ _____ _____    ______ ____
DOCKED: ROOT
DOCKED: ATOM      1  C   UNL     1      35.891  15.245 123.612 -0.43 -0.00    +0.000 A 
DOCKED: ATOM      2  C   UNL     1      36.043  13.860 123.453 -0.50 -0.00    +0.000 A 
DOCKED: ATOM      3  C   UNL     1      37.238  13.326 122.928 -0.50 -0.00    +0.000 A 
DOCKED: ATOM      4  C   UNL     1      38.265  14.206 122.551 -0.41 -0.00    +0.000 A 
DOCKED: ATOM      5  C   UNL     1      38.117  15.586 122.719 -0.30 -0.00    +0.000 A 
DOCKED: ATOM      6  C   UNL     1      36.936  16.104 123.251 -0.29 -0.00    +0.000 A 
DOCKED: ATOM      7  CM  UNL     1      37.082  14.721 123.086 +0.00 -0.00    +0.000 AC
DOCKED: ENDROOT
DOCKED: BRANCH   1   8
DOCKED: ATOM      8  O   UNL     1      34.543  16.287 125.692 -0.48 -0.00    +0.000 OA
DOCKED: ATOM      9  S   UNL     1      34.384  15.899 124.249 -0.71 -0.00    +0.000 S 
DOCKED: ATOM     10  O   UNL     1      33.318  14.847 124.139 -0.57 -0.00    +0.000 OA
DOCKED: BRANCH   8  10
DOCKED: ATOM     11  N   UNL     1      33.905  17.296 123.336 -0.36 -0.00    +0.000 N 
DOCKED: ATOM     12  H   UNL     1      32.970  17.595 123.406 +0.02 -0.00    +0.000 HD
DOCKED: BRANCH  10  12
DOCKED: ATOM     13  C   UNL     1      34.793  18.043 122.485 -0.30 -0.00    +0.000 A 
DOCKED: ATOM     14  C   UNL     1      34.814  17.860 121.089 -0.28 -0.00    +0.000 A 
DOCKED: ATOM     15  C   UNL     1      35.683  18.611 120.292 -0.18 -0.00    +0.000 A 
DOCKED: ATOM     16  C   UNL     1      36.542  19.544 120.876 -0.12 -0.00    +0.000 A 
DOCKED: ATOM     17  C   UNL     1      36.535  19.726 122.261 -0.14 -0.00    +0.000 A 
DOCKED: ATOM     18  C   UNL     1      35.668  18.978 123.062 -0.19 -0.00    +0.000 A 
DOCKED: ATOM     19  CM  UNL     1      35.673  18.794 121.678 +0.00 -0.00    +0.000 AC
DOCKED: ENDBRANCH  10  12
DOCKED: ENDBRANCH   8  10
DOCKED: ENDBRANCH   1   8
DOCKED: BRANCH   3  18
DOCKED: ATOM     20  C   UNL     1      37.439  11.871 122.717 -0.44 -0.00    +0.000 C 
DOCKED: ATOM     21  C   UNL     1      36.440  11.009 122.466 -0.67 -0.00    +0.000 C 
DOCKED: BRANCH  19  20
DOCKED: ATOM     22  C   UNL     1      36.649   9.562 122.255 -0.70 -0.00    +0.000 C 
DOCKED: ATOM     23  N   UNL     1      36.774   8.638 123.343 -0.65 -0.00    +0.000 N 
DOCKED: ATOM     24  O   UNL     1      37.068   7.340 123.100 -2.33 -0.00    +0.000 OA
DOCKED: ATOM     25  O   UNL     1      36.691   9.128 121.073 -2.61 +0.00    +0.000 OA
DOCKED: ATOM     26  H   UNL     1      36.647   8.949 124.269 -0.41 -0.00    +0.000 HD
DOCKED: ENDBRANCH  19  20
DOCKED: ENDBRANCH   3  18
DOCKED: TORSDOF 5DOCKED: TER
DOCKED: ENDMDL
________________________________________________________________________________


	BEGINNING GENETIC ALGORITHM DOCKING 30 of 100
Run: 30 Seed: 3614823 1915151736 [ Run 30 of 100 GA/GALS ]
Beginning LAMARCKIAN GENETIC ALGORITHM (LGA), with a maximum of 2500000 energy evaluations.

Final-Value: -14.162


	FINAL GENETIC ALGORITHM DOCKED STATE
	_______________________________________________


Detailed state:  trans 38.242 14.225 122.794 quatxyzw 0.084214 -0.000283 -0.871357 -0.483369 center 0.217 0.012 -0.211 ntor 5 70.3017 158.8196 -108.3014 134.2658 -48.1416
State:	 38.242  14.225 122.794   0.096 -0.000 -0.995 -122.189     70.30  158.82 -108.30  134.27  -48.14

DOCKED: MODEL       30
DOCKED: USER    Run = 30
DOCKED: USER    DPF = ligand_dock.biased.dpf
DOCKED: USER  
DOCKED: USER    Estimated Free Energy of Binding    =  -11.55 kcal/mol  [=(1)+(2)+(3)-(4)]
DOCKED: USER    Estimated Inhibition Constant, Ki   =    3.39 nM (nanomolar)  [Temperature = 298.15 K]
DOCKED: USER    
DOCKED: USER    (1) Final Intermolecular Energy     =  -13.05 kcal/mol
DOCKED: USER        vdW + Hbond + desolv Energy     =  -13.05 kcal/mol
DOCKED: USER        Electrostatic Energy            =   +0.00 kcal/mol
DOCKED: USER    (2) Final Total Internal Energy     =   -1.12 kcal/mol
DOCKED: USER    (3) Torsional Free Energy           =   +1.49 kcal/mol
DOCKED: USER    (4) Unbound System's Energy  [=(2)] =   -1.12 kcal/mol
DOCKED: USER    
DOCKED: USER    
DOCKED: USER    NEWDPF move ligand.dum.pdbqt
DOCKED: USER    NEWDPF about 0.217000 0.012000 -0.211000
DOCKED: USER    NEWDPF tran0 38.242325 14.224525 122.794287
DOCKED: USER    NEWDPF quaternion0 0.084214 -0.000283 -0.871357 -0.483369
DOCKED: USER    NEWDPF axisangle0 0.096199 -0.000324 -0.995362 -122.188723
DOCKED: USER    NEWDPF quat0 0.096199 -0.000324 -0.995362 -122.188723
DOCKED: USER    NEWDPF dihe0 70.30 158.82 -108.30 134.27 -48.14 
DOCKED: USER  keepresnum = 1 
DOCKED: USER  
DOCKED: REMARK  Name = 
DOCKED: REMARK  5 active torsions:
DOCKED: REMARK  status: ('A' for Active; 'I' for Inactive)
DOCKED: REMARK    1  A    between atoms: S_2  and  N_3
DOCKED: REMARK    2  A    between atoms: S_2  and  C_10
DOCKED: REMARK    3  A    between atoms: N_3  and  C_4
DOCKED: REMARK    4  A    between atoms: C_12  and  C_13
DOCKED: REMARK    5  A    between atoms: C_14  and  C_15
DOCKED: REMARK                            x       y       z     vdW  Elec       q    Type
DOCKED: REMARK                         _______ _______ _______ _____ _____    ______ ____
DOCKED: USER                              x       y       z     vdW  Elec       q    Type
DOCKED: USER                           _______ _______ _______ _____ _____    ______ ____
DOCKED: ROOT
DOCKED: ATOM      1  C   UNL     1      36.748  15.808 122.646 -0.29 -0.00    +0.000 A 
DOCKED: ATOM      2  C   UNL     1      37.218  14.502 122.441 -0.38 -0.00    +0.000 A 
DOCKED: ATOM      3  C   UNL     1      36.556  13.403 123.026 -0.50 -0.00    +0.000 A 
DOCKED: ATOM      4  C   UNL     1      35.428  13.640 123.829 -0.31 -0.00    +0.000 A 
DOCKED: ATOM      5  C   UNL     1      34.954  14.940 124.024 -0.50 -0.00    +0.000 A 
DOCKED: ATOM      6  C   UNL     1      35.609  16.021 123.431 -0.39 -0.00    +0.000 A 
DOCKED: ATOM      7  CM  UNL     1      36.086  14.719 123.232 +0.00 -0.00    +0.000 AC
DOCKED: ENDROOT
DOCKED: BRANCH   1   8
DOCKED: ATOM      8  O   UNL     1      36.682  18.357 121.792 -0.15 -0.00    +0.000 OA
DOCKED: ATOM      9  S   UNL     1      37.599  17.173 121.927 -0.20 -0.00    +0.000 S 
DOCKED: ATOM     10  O   UNL     1      38.087  16.773 120.564 -0.12 -0.00    +0.000 OA
DOCKED: BRANCH   8  10
DOCKED: ATOM     11  N   UNL     1      38.957  17.618 122.913 -0.16 -0.00    +0.000 N 
DOCKED: ATOM     12  H   UNL     1      38.847  18.371 123.537 +0.00 -0.00    +0.000 HD
DOCKED: BRANCH  10  12
DOCKED: ATOM     13  C   UNL     1      40.232  16.953 122.872 -0.24 -0.00    +0.000 A 
DOCKED: ATOM     14  C   UNL     1      41.440  17.644 123.089 -0.25 -0.00    +0.000 A 
DOCKED: ATOM     15  C   UNL     1      42.660  16.962 123.052 -0.36 -0.00    +0.000 A 
DOCKED: ATOM     16  C   UNL     1      42.690  15.590 122.791 -0.32 -0.00    +0.000 A 
DOCKED: ATOM     17  C   UNL     1      41.498  14.898 122.564 -0.51 -0.00    +0.000 A 
DOCKED: ATOM     18  C   UNL     1      40.276  15.575 122.602 -0.35 -0.00    +0.000 A 
DOCKED: ATOM     19  CM  UNL     1      41.466  16.270 122.828 +0.00 -0.00    +0.000 AC
DOCKED: ENDBRANCH  10  12
DOCKED: ENDBRANCH   8  10
DOCKED: ENDBRANCH   1   8
DOCKED: BRANCH   3  18
DOCKED: ATOM     20  C   UNL     1      37.027  12.005 122.861 -0.64 -0.00    +0.000 C 
DOCKED: ATOM     21  C   UNL     1      36.229  10.987 122.503 -0.67 -0.00    +0.000 C 
DOCKED: BRANCH  19  20
DOCKED: ATOM     22  C   UNL     1      36.707   9.599 122.338 -0.71 -0.00    +0.000 C 
DOCKED: ATOM     23  N   UNL     1      36.749   8.668 123.427 -0.63 -0.00    +0.000 N 
DOCKED: ATOM     24  O   UNL     1      37.292   7.441 123.249 -2.33 -0.00    +0.000 OA
DOCKED: ATOM     25  O   UNL     1      37.064   9.219 121.191 -2.74 -0.00    +0.000 OA
DOCKED: ATOM     26  H   UNL     1      36.382   8.921 124.305 -0.31 -0.00    +0.000 HD
DOCKED: ENDBRANCH  19  20
DOCKED: ENDBRANCH   3  18
DOCKED: TORSDOF 5DOCKED: TER
DOCKED: ENDMDL
________________________________________________________________________________


	BEGINNING GENETIC ALGORITHM DOCKING 31 of 100
Run: 31 Seed: 2032755042 85562894 [ Run 31 of 100 GA/GALS ]
Beginning LAMARCKIAN GENETIC ALGORITHM (LGA), with a maximum of 2500000 energy evaluations.

Final-Value: -14.424


	FINAL GENETIC ALGORITHM DOCKED STATE
	_______________________________________________


Detailed state:  trans 34.601 13.828 123.390 quatxyzw 0.911393 -0.393556 0.061921 0.103159 center 0.217 0.012 -0.211 ntor 5 -88.7627 -111.3347 -151.5803 104.3236 169.6196
State:	 34.601  13.828 123.390   0.916 -0.396  0.062 168.158    -88.76 -111.33 -151.58  104.32  169.62

DOCKED: MODEL       31
DOCKED: USER    Run = 31
DOCKED: USER    DPF = ligand_dock.biased.dpf
DOCKED: USER  
DOCKED: USER    Estimated Free Energy of Binding    =  -11.80 kcal/mol  [=(1)+(2)+(3)-(4)]
DOCKED: USER    Estimated Inhibition Constant, Ki   =    2.22 nM (nanomolar)  [Temperature = 298.15 K]
DOCKED: USER    
DOCKED: USER    (1) Final Intermolecular Energy     =  -13.30 kcal/mol
DOCKED: USER        vdW + Hbond + desolv Energy     =  -13.30 kcal/mol
DOCKED: USER        Electrostatic Energy            =   +0.00 kcal/mol
DOCKED: USER    (2) Final Total Internal Energy     =   -1.13 kcal/mol
DOCKED: USER    (3) Torsional Free Energy           =   +1.49 kcal/mol
DOCKED: USER    (4) Unbound System's Energy  [=(2)] =   -1.13 kcal/mol
DOCKED: USER    
DOCKED: USER    
DOCKED: USER    NEWDPF move ligand.dum.pdbqt
DOCKED: USER    NEWDPF about 0.217000 0.012000 -0.211000
DOCKED: USER    NEWDPF tran0 34.600929 13.828192 123.390139
DOCKED: USER    NEWDPF quaternion0 0.911393 -0.393556 0.061921 0.103159
DOCKED: USER    NEWDPF axisangle0 0.916282 -0.395667 0.062253 168.157725
DOCKED: USER    NEWDPF quat0 0.916282 -0.395667 0.062253 168.157725
DOCKED: USER    NEWDPF dihe0 -88.76 -111.33 -151.58 104.32 169.62 
DOCKED: USER  keepresnum = 1 
DOCKED: USER  
DOCKED: REMARK  Name = 
DOCKED: REMARK  5 active torsions:
DOCKED: REMARK  status: ('A' for Active; 'I' for Inactive)
DOCKED: REMARK    1  A    between atoms: S_2  and  N_3
DOCKED: REMARK    2  A    between atoms: S_2  and  C_10
DOCKED: REMARK    3  A    between atoms: N_3  and  C_4
DOCKED: REMARK    4  A    between atoms: C_12  and  C_13
DOCKED: REMARK    5  A    between atoms: C_14  and  C_15
DOCKED: REMARK                            x       y       z     vdW  Elec       q    Type
DOCKED: REMARK                         _______ _______ _______ _____ _____    ______ ____
DOCKED: USER                              x       y       z     vdW  Elec       q    Type
DOCKED: USER                           _______ _______ _______ _____ _____    ______ ____
DOCKED: ROOT
DOCKED: ATOM      1  C   UNL     1      35.713  15.627 123.927 -0.42 -0.00    +0.000 A 
DOCKED: ATOM      2  C   UNL     1      35.529  14.238 123.861 -0.48 -0.00    +0.000 A 
DOCKED: ATOM      3  C   UNL     1      36.432  13.429 123.140 -0.51 -0.00    +0.000 A 
DOCKED: ATOM      4  C   UNL     1      37.508  14.041 122.476 -0.42 -0.00    +0.000 A 
DOCKED: ATOM      5  C   UNL     1      37.697  15.423 122.551 -0.31 -0.00    +0.000 A 
DOCKED: ATOM      6  C   UNL     1      36.806  16.214 123.277 -0.29 -0.00    +0.000 A 
DOCKED: ATOM      7  CM  UNL     1      36.614  14.828 123.206 +0.00 -0.00    +0.000 AC
DOCKED: ENDROOT
DOCKED: BRANCH   1   8
DOCKED: ATOM      8  O   UNL     1      33.702  15.779 125.706 -0.85 -0.00    +0.000 OA
DOCKED: ATOM      9  S   UNL     1      34.565  16.627 124.813 -0.61 -0.00    +0.000 S 
DOCKED: ATOM     10  O   UNL     1      33.692  17.347 123.826 -0.45 -0.00    +0.000 OA
DOCKED: BRANCH   8  10
DOCKED: ATOM     11  N   UNL     1      35.411  17.792 125.784 -0.23 -0.00    +0.000 N 
DOCKED: ATOM     12  H   UNL     1      35.182  17.851 126.739 -0.01 -0.00    +0.000 HD
DOCKED: BRANCH  10  12
DOCKED: ATOM     13  C   UNL     1      36.426  18.676 125.276 -0.18 -0.00    +0.000 A 
DOCKED: ATOM     14  C   UNL     1      37.724  18.711 125.822 -0.11 -0.00    +0.000 A 
DOCKED: ATOM     15  C   UNL     1      38.688  19.576 125.295 -0.11 -0.00    +0.000 A 
DOCKED: ATOM     16  C   UNL     1      38.369  20.417 124.227 -0.05 -0.00    +0.000 A 
DOCKED: ATOM     17  C   UNL     1      37.082  20.396 123.685 -0.11 -0.00    +0.000 A 
DOCKED: ATOM     18  C   UNL     1      36.115  19.533 124.207 -0.17 -0.00    +0.000 A 
DOCKED: ATOM     19  CM  UNL     1      37.401  19.552 124.752 +0.00 -0.00    +0.000 AC
DOCKED: ENDBRANCH  10  12
DOCKED: ENDBRANCH   8  10
DOCKED: ENDBRANCH   1   8
DOCKED: BRANCH   3  18
DOCKED: ATOM     20  C   UNL     1      36.267  11.959 123.018 -0.67 -0.00    +0.000 C 
DOCKED: ATOM     21  C   UNL     1      37.167  11.155 122.432 -0.46 -0.00    +0.000 C 
DOCKED: BRANCH  19  20
DOCKED: ATOM     22  C   UNL     1      36.997   9.692 122.317 -0.61 -0.00    +0.000 C 
DOCKED: ATOM     23  N   UNL     1      37.089   8.818 123.449 -0.61 -0.00    +0.000 N 
DOCKED: ATOM     24  O   UNL     1      37.030   7.477 123.276 -2.44 -0.00    +0.000 OA
DOCKED: ATOM     25  O   UNL     1      36.737   9.205 121.184 -2.64 -0.00    +0.000 OA
DOCKED: ATOM     26  H   UNL     1      37.195   9.193 124.353 -0.55 -0.00    +0.000 HD
DOCKED: ENDBRANCH  19  20
DOCKED: ENDBRANCH   3  18
DOCKED: TORSDOF 5DOCKED: TER
DOCKED: ENDMDL
________________________________________________________________________________


	BEGINNING GENETIC ALGORITHM DOCKING 32 of 100
Run: 32 Seed: 1317934365 822902459 [ Run 32 of 100 GA/GALS ]
Beginning LAMARCKIAN GENETIC ALGORITHM (LGA), with a maximum of 2500000 energy evaluations.

Final-Value: -14.982


	FINAL GENETIC ALGORITHM DOCKED STATE
	_______________________________________________


Detailed state:  trans 35.281 13.145 123.065 quatxyzw 0.919216 -0.308816 0.190203 0.153292 center 0.217 0.012 -0.211 ntor 5 9.3260 -112.8535 99.9125 107.0209 -135.6159
State:	 35.281  13.145 123.065   0.930 -0.313  0.192 162.365      9.33 -112.85   99.91  107.02 -135.62

DOCKED: MODEL       32
DOCKED: USER    Run = 32
DOCKED: USER    DPF = ligand_dock.biased.dpf
DOCKED: USER  
DOCKED: USER    Estimated Free Energy of Binding    =  -12.33 kcal/mol  [=(1)+(2)+(3)-(4)]
DOCKED: USER    Estimated Inhibition Constant, Ki   =  910.77 pM (picomolar)  [Temperature = 298.15 K]
DOCKED: USER    
DOCKED: USER    (1) Final Intermolecular Energy     =  -13.83 kcal/mol
DOCKED: USER        vdW + Hbond + desolv Energy     =  -13.83 kcal/mol
DOCKED: USER        Electrostatic Energy            =   +0.00 kcal/mol
DOCKED: USER    (2) Final Total Internal Energy     =   -1.16 kcal/mol
DOCKED: USER    (3) Torsional Free Energy           =   +1.49 kcal/mol
DOCKED: USER    (4) Unbound System's Energy  [=(2)] =   -1.16 kcal/mol
DOCKED: USER    
DOCKED: USER    
DOCKED: USER    NEWDPF move ligand.dum.pdbqt
DOCKED: USER    NEWDPF about 0.217000 0.012000 -0.211000
DOCKED: USER    NEWDPF tran0 35.281047 13.145491 123.065372
DOCKED: USER    NEWDPF quaternion0 0.919216 -0.308816 0.190203 0.153292
DOCKED: USER    NEWDPF axisangle0 0.930210 -0.312509 0.192478 162.364518
DOCKED: USER    NEWDPF quat0 0.930210 -0.312509 0.192478 162.364518
DOCKED: USER    NEWDPF dihe0 9.33 -112.85 99.91 107.02 -135.62 
DOCKED: USER  keepresnum = 1 
DOCKED: USER  
DOCKED: REMARK  Name = 
DOCKED: REMARK  5 active torsions:
DOCKED: REMARK  status: ('A' for Active; 'I' for Inactive)
DOCKED: REMARK    1  A    between atoms: S_2  and  N_3
DOCKED: REMARK    2  A    between atoms: S_2  and  C_10
DOCKED: REMARK    3  A    between atoms: N_3  and  C_4
DOCKED: REMARK    4  A    between atoms: C_12  and  C_13
DOCKED: REMARK    5  A    between atoms: C_14  and  C_15
DOCKED: REMARK                            x       y       z     vdW  Elec       q    Type
DOCKED: REMARK                         _______ _______ _______ _____ _____    ______ ____
DOCKED: USER                              x       y       z     vdW  Elec       q    Type
DOCKED: USER                           _______ _______ _______ _____ _____    ______ ____
DOCKED: ROOT
DOCKED: ATOM      1  C   UNL     1      35.938  15.084 123.821 -0.44 -0.00    +0.000 A 
DOCKED: ATOM      2  C   UNL     1      35.970  13.684 123.763 -0.51 -0.00    +0.000 A 
DOCKED: ATOM      3  C   UNL     1      37.143  13.010 123.363 -0.53 -0.00    +0.000 A 
DOCKED: ATOM      4  C   UNL     1      38.271  13.767 123.008 -0.40 -0.00    +0.000 A 
DOCKED: ATOM      5  C   UNL     1      38.242  15.162 123.076 -0.31 -0.00    +0.000 A 
DOCKED: ATOM      6  C   UNL     1      37.081  15.820 123.485 -0.31 -0.00    +0.000 A 
DOCKED: ATOM      7  CM  UNL     1      37.108  14.421 123.420 +0.00 -0.00    +0.000 AC
DOCKED: ENDROOT
DOCKED: BRANCH   1   8
DOCKED: ATOM      8  O   UNL     1      34.178  15.692 125.761 -0.72 -0.00    +0.000 OA
DOCKED: ATOM      9  S   UNL     1      34.459  15.913 124.301 -0.72 -0.00    +0.000 S 
DOCKED: ATOM     10  O   UNL     1      33.317  15.365 123.494 -0.34 -0.00    +0.000 OA
DOCKED: BRANCH   8  10
DOCKED: ATOM     11  N   UNL     1      34.604  17.617 124.004 -0.36 -0.00    +0.000 N 
DOCKED: ATOM     12  H   UNL     1      34.439  18.233 124.754 -0.01 -0.00    +0.000 HD
DOCKED: BRANCH  10  12
DOCKED: ATOM     13  C   UNL     1      34.952  18.183 122.727 -0.28 -0.00    +0.000 A 
DOCKED: ATOM     14  C   UNL     1      36.039  19.065 122.575 -0.18 -0.00    +0.000 A 
DOCKED: ATOM     15  C   UNL     1      36.353  19.588 121.316 -0.13 -0.00    +0.000 A 
DOCKED: ATOM     16  C   UNL     1      35.585  19.244 120.202 -0.16 -0.00    +0.000 A 
DOCKED: ATOM     17  C   UNL     1      34.499  18.377 120.344 -0.27 -0.00    +0.000 A 
DOCKED: ATOM     18  C   UNL     1      34.182  17.852 121.600 -0.34 -0.00    +0.000 A 
DOCKED: ATOM     19  CM  UNL     1      35.268  18.718 121.460 +0.00 -0.00    +0.000 AC
DOCKED: ENDBRANCH  10  12
DOCKED: ENDBRANCH   8  10
DOCKED: ENDBRANCH   1   8
DOCKED: BRANCH   3  18
DOCKED: ATOM     20  C   UNL     1      37.221  11.531 123.261 -0.55 -0.00    +0.000 C 
DOCKED: ATOM     21  C   UNL     1      36.699  10.826 122.246 -0.64 -0.00    +0.000 C 
DOCKED: BRANCH  19  20
DOCKED: ATOM     22  C   UNL     1      36.783   9.354 122.151 -0.69 -0.00    +0.000 C 
DOCKED: ATOM     23  N   UNL     1      36.889   8.515 123.307 -0.68 -0.00    +0.000 N 
DOCKED: ATOM     24  O   UNL     1      37.069   7.181 123.164 -2.17 -0.00    +0.000 OA
DOCKED: ATOM     25  O   UNL     1      36.733   8.822 121.009 -2.60 -0.00    +0.000 OA
DOCKED: ATOM     26  H   UNL     1      36.832   8.910 124.208 -0.50 -0.00    +0.000 HD
DOCKED: ENDBRANCH  19  20
DOCKED: ENDBRANCH   3  18
DOCKED: TORSDOF 5DOCKED: TER
DOCKED: ENDMDL
________________________________________________________________________________


	BEGINNING GENETIC ALGORITHM DOCKING 33 of 100
Run: 33 Seed: 594383039 166421084 [ Run 33 of 100 GA/GALS ]
Beginning LAMARCKIAN GENETIC ALGORITHM (LGA), with a maximum of 2500000 energy evaluations.

Final-Value: -14.514


	FINAL GENETIC ALGORITHM DOCKED STATE
	_______________________________________________


Detailed state:  trans 39.026 13.320 123.596 quatxyzw 0.214919 -0.135908 -0.926154 -0.278529 center 0.217 0.012 -0.211 ntor 5 -34.2188 -109.7231 -44.7395 124.9908 -131.6522
State:	 39.026  13.320 123.596   0.224 -0.142 -0.964 -147.655    -34.22 -109.72  -44.74  124.99 -131.65

DOCKED: MODEL       33
DOCKED: USER    Run = 33
DOCKED: USER    DPF = ligand_dock.biased.dpf
DOCKED: USER  
DOCKED: USER    Estimated Free Energy of Binding    =  -11.92 kcal/mol  [=(1)+(2)+(3)-(4)]
DOCKED: USER    Estimated Inhibition Constant, Ki   =    1.83 nM (nanomolar)  [Temperature = 298.15 K]
DOCKED: USER    
DOCKED: USER    (1) Final Intermolecular Energy     =  -13.41 kcal/mol
DOCKED: USER        vdW + Hbond + desolv Energy     =  -13.41 kcal/mol
DOCKED: USER        Electrostatic Energy            =   +0.00 kcal/mol
DOCKED: USER    (2) Final Total Internal Energy     =   -1.10 kcal/mol
DOCKED: USER    (3) Torsional Free Energy           =   +1.49 kcal/mol
DOCKED: USER    (4) Unbound System's Energy  [=(2)] =   -1.10 kcal/mol
DOCKED: USER    
DOCKED: USER    
DOCKED: USER    NEWDPF move ligand.dum.pdbqt
DOCKED: USER    NEWDPF about 0.217000 0.012000 -0.211000
DOCKED: USER    NEWDPF tran0 39.026190 13.320434 123.595805
DOCKED: USER    NEWDPF quaternion0 0.214919 -0.135908 -0.926154 -0.278529
DOCKED: USER    NEWDPF axisangle0 0.223774 -0.141508 -0.964314 -147.655189
DOCKED: USER    NEWDPF quat0 0.223774 -0.141508 -0.964314 -147.655189
DOCKED: USER    NEWDPF dihe0 -34.22 -109.72 -44.74 124.99 -131.65 
DOCKED: USER  keepresnum = 1 
DOCKED: USER  
DOCKED: REMARK  Name = 
DOCKED: REMARK  5 active torsions:
DOCKED: REMARK  status: ('A' for Active; 'I' for Inactive)
DOCKED: REMARK    1  A    between atoms: S_2  and  N_3
DOCKED: REMARK    2  A    between atoms: S_2  and  C_10
DOCKED: REMARK    3  A    between atoms: N_3  and  C_4
DOCKED: REMARK    4  A    between atoms: C_12  and  C_13
DOCKED: REMARK    5  A    between atoms: C_14  and  C_15
DOCKED: REMARK                            x       y       z     vdW  Elec       q    Type
DOCKED: REMARK                         _______ _______ _______ _____ _____    ______ ____
DOCKED: USER                              x       y       z     vdW  Elec       q    Type
DOCKED: USER                           _______ _______ _______ _____ _____    ______ ____
DOCKED: ROOT
DOCKED: ATOM      1  C   UNL     1      38.489  15.329 122.936 -0.29 -0.00    +0.000 A 
DOCKED: ATOM      2  C   UNL     1      38.392  13.931 122.905 -0.38 -0.00    +0.000 A 
DOCKED: ATOM      3  C   UNL     1      37.174  13.290 123.216 -0.51 -0.00    +0.000 A 
DOCKED: ATOM      4  C   UNL     1      36.067  14.077 123.572 -0.49 -0.00    +0.000 A 
DOCKED: ATOM      5  C   UNL     1      36.161  15.471 123.592 -0.39 -0.00    +0.000 A 
DOCKED: ATOM      6  C   UNL     1      37.367  16.097 123.271 -0.28 -0.00    +0.000 A 
DOCKED: ATOM      7  CM  UNL     1      37.275  14.699 123.248 +0.00 -0.00    +0.000 AC
DOCKED: ENDROOT
DOCKED: BRANCH   1   8
DOCKED: ATOM      8  O   UNL     1      40.308  16.053 121.093 -0.23 -0.00    +0.000 OA
DOCKED: ATOM      9  S   UNL     1      40.023  16.115 122.567 -0.40 -0.00    +0.000 S 
DOCKED: ATOM     10  O   UNL     1      41.118  15.404 123.309 -0.79 +0.00    +0.000 OA
DOCKED: BRANCH   8  10
DOCKED: ATOM     11  N   UNL     1      39.979  17.777 123.066 -0.17 -0.00    +0.000 N 
DOCKED: ATOM     12  H   UNL     1      39.922  18.468 122.367 +0.00 -0.00    +0.000 HD
DOCKED: BRANCH  10  12
DOCKED: ATOM     13  C   UNL     1      40.021  18.205 124.439 -0.24 -0.00    +0.000 A 
DOCKED: ATOM     14  C   UNL     1      38.996  18.987 125.007 -0.15 -0.00    +0.000 A 
DOCKED: ATOM     15  C   UNL     1      39.066  19.376 126.349 -0.15 -0.00    +0.000 A 
DOCKED: ATOM     16  C   UNL     1      40.157  18.998 127.133 -0.23 -0.00    +0.000 A 
DOCKED: ATOM     17  C   UNL     1      41.183  18.230 126.577 -0.35 -0.00    +0.000 A 
DOCKED: ATOM     18  C   UNL     1      41.117  17.838 125.237 -0.28 -0.00    +0.000 A 
DOCKED: ATOM     19  CM  UNL     1      40.091  18.606 125.790 +0.00 -0.00    +0.000 AC
DOCKED: ENDBRANCH  10  12
DOCKED: ENDBRANCH   8  10
DOCKED: ENDBRANCH   1   8
DOCKED: BRANCH   3  18
DOCKED: ATOM     20  C   UNL     1      37.027  11.814 123.223 -0.67 -0.00    +0.000 C 
DOCKED: ATOM     21  C   UNL     1      37.096  11.053 122.120 -0.51 -0.00    +0.000 C 
DOCKED: BRANCH  19  20
DOCKED: ATOM     22  C   UNL     1      36.951   9.583 122.135 -0.63 -0.00    +0.000 C 
DOCKED: ATOM     23  N   UNL     1      37.062   8.813 123.339 -0.64 -0.00    +0.000 N 
DOCKED: ATOM     24  O   UNL     1      37.026   7.462 123.285 -2.43 -0.00    +0.000 OA
DOCKED: ATOM     25  O   UNL     1      36.694   8.994 121.051 -2.61 -0.00    +0.000 OA
DOCKED: ATOM     26  H   UNL     1      37.167   9.269 124.206 -0.60 -0.00    +0.000 HD
DOCKED: ENDBRANCH  19  20
DOCKED: ENDBRANCH   3  18
DOCKED: TORSDOF 5DOCKED: TER
DOCKED: ENDMDL
________________________________________________________________________________


	BEGINNING GENETIC ALGORITHM DOCKING 34 of 100
Run: 34 Seed: 1017169928 1030250733 [ Run 34 of 100 GA/GALS ]
Beginning LAMARCKIAN GENETIC ALGORITHM (LGA), with a maximum of 2500000 energy evaluations.

Final-Value: -14.279


	FINAL GENETIC ALGORITHM DOCKED STATE
	_______________________________________________


Detailed state:  trans 38.088 14.102 122.509 quatxyzw -0.003305 0.058092 0.887740 0.456654 center 0.217 0.012 -0.211 ntor 5 13.2379 -74.0645 -50.8049 -24.6013 19.6909
State:	 38.088  14.102 122.509  -0.004  0.065  0.998 125.657     13.24  -74.06  -50.80  -24.60   19.69

DOCKED: MODEL       34
DOCKED: USER    Run = 34
DOCKED: USER    DPF = ligand_dock.biased.dpf
DOCKED: USER  
DOCKED: USER    Estimated Free Energy of Binding    =  -11.59 kcal/mol  [=(1)+(2)+(3)-(4)]
DOCKED: USER    Estimated Inhibition Constant, Ki   =    3.20 nM (nanomolar)  [Temperature = 298.15 K]
DOCKED: USER    
DOCKED: USER    (1) Final Intermolecular Energy     =  -13.08 kcal/mol
DOCKED: USER        vdW + Hbond + desolv Energy     =  -13.08 kcal/mol
DOCKED: USER        Electrostatic Energy            =   +0.00 kcal/mol
DOCKED: USER    (2) Final Total Internal Energy     =   -1.20 kcal/mol
DOCKED: USER    (3) Torsional Free Energy           =   +1.49 kcal/mol
DOCKED: USER    (4) Unbound System's Energy  [=(2)] =   -1.20 kcal/mol
DOCKED: USER    
DOCKED: USER    
DOCKED: USER    NEWDPF move ligand.dum.pdbqt
DOCKED: USER    NEWDPF about 0.217000 0.012000 -0.211000
DOCKED: USER    NEWDPF tran0 38.088453 14.101562 122.508675
DOCKED: USER    NEWDPF quaternion0 -0.003305 0.058092 0.887740 0.456654
DOCKED: USER    NEWDPF axisangle0 -0.003715 0.065297 0.997859 125.657198
DOCKED: USER    NEWDPF quat0 -0.003715 0.065297 0.997859 125.657198
DOCKED: USER    NEWDPF dihe0 13.24 -74.06 -50.80 -24.60 19.69 
DOCKED: USER  keepresnum = 1 
DOCKED: USER  
DOCKED: REMARK  Name = 
DOCKED: REMARK  5 active torsions:
DOCKED: REMARK  status: ('A' for Active; 'I' for Inactive)
DOCKED: REMARK    1  A    between atoms: S_2  and  N_3
DOCKED: REMARK    2  A    between atoms: S_2  and  C_10
DOCKED: REMARK    3  A    between atoms: N_3  and  C_4
DOCKED: REMARK    4  A    between atoms: C_12  and  C_13
DOCKED: REMARK    5  A    between atoms: C_14  and  C_15
DOCKED: REMARK                            x       y       z     vdW  Elec       q    Type
DOCKED: REMARK                         _______ _______ _______ _____ _____    ______ ____
DOCKED: USER                              x       y       z     vdW  Elec       q    Type
DOCKED: USER                           _______ _______ _______ _____ _____    ______ ____
DOCKED: ROOT
DOCKED: ATOM      1  C   UNL     1      36.692  15.750 122.204 -0.26 -0.00    +0.000 A 
DOCKED: ATOM      2  C   UNL     1      37.055  14.396 122.196 -0.36 -0.00    +0.000 A 
DOCKED: ATOM      3  C   UNL     1      36.382  13.468 123.018 -0.49 -0.00    +0.000 A 
DOCKED: ATOM      4  C   UNL     1      35.352  13.927 123.855 -0.35 -0.00    +0.000 A 
DOCKED: ATOM      5  C   UNL     1      34.983  15.275 123.855 -0.51 -0.00    +0.000 A 
DOCKED: ATOM      6  C   UNL     1      35.647  16.184 123.030 -0.34 -0.00    +0.000 A 
DOCKED: ATOM      7  CM  UNL     1      36.018  14.833 123.026 +0.00 -0.00    +0.000 AC
DOCKED: ENDROOT
DOCKED: BRANCH   1   8
DOCKED: ATOM      8  O   UNL     1      37.884  18.148 121.962 -0.10 -0.00    +0.000 OA
DOCKED: ATOM      9  S   UNL     1      37.557  16.901 121.189 -0.19 -0.00    +0.000 S 
DOCKED: ATOM     10  O   UNL     1      36.685  17.263 120.021 -0.14 -0.00    +0.000 OA
DOCKED: BRANCH   8  10
DOCKED: ATOM     11  N   UNL     1      39.031  16.193 120.605 -0.15 -0.00    +0.000 N 
DOCKED: ATOM     12  H   UNL     1      39.053  15.877 119.673 -0.00 -0.00    +0.000 HD
DOCKED: BRANCH  10  12
DOCKED: ATOM     13  C   UNL     1      40.220  16.042 121.400 -0.22 -0.00    +0.000 A 
DOCKED: ATOM     14  C   UNL     1      41.172  17.072 121.519 -0.16 -0.00    +0.000 A 
DOCKED: ATOM     15  C   UNL     1      42.312  16.892 122.310 -0.30 -0.00    +0.000 A 
DOCKED: ATOM     16  C   UNL     1      42.517  15.686 122.982 -0.34 +0.00    +0.000 A 
DOCKED: ATOM     17  C   UNL     1      41.583  14.654 122.863 -0.50 -0.00    +0.000 A 
DOCKED: ATOM     18  C   UNL     1      40.442  14.829 122.075 -0.38 -0.00    +0.000 A 
DOCKED: ATOM     19  CM  UNL     1      41.374  15.862 122.192 +0.00 -0.00    +0.000 AC
DOCKED: ENDBRANCH  10  12
DOCKED: ENDBRANCH   8  10
DOCKED: ENDBRANCH   1   8
DOCKED: BRANCH   3  18
DOCKED: ATOM     20  C   UNL     1      36.745  12.030 123.065 -0.67 -0.00    +0.000 C 
DOCKED: ATOM     21  C   UNL     1      36.464  11.158 122.084 -0.63 -0.00    +0.000 C 
DOCKED: BRANCH  19  20
DOCKED: ATOM     22  C   UNL     1      36.831   9.728 122.137 -0.65 -0.00    +0.000 C 
DOCKED: ATOM     23  N   UNL     1      36.903   8.999 123.368 -0.60 -0.00    +0.000 N 
DOCKED: ATOM     24  O   UNL     1      37.345   7.721 123.375 -2.57 -0.00    +0.000 OA
DOCKED: ATOM     25  O   UNL     1      37.063   9.127 121.053 -2.73 -0.00    +0.000 OA
DOCKED: ATOM     26  H   UNL     1      36.631   9.430 124.211 -0.46 -0.00    +0.000 HD
DOCKED: ENDBRANCH  19  20
DOCKED: ENDBRANCH   3  18
DOCKED: TORSDOF 5DOCKED: TER
DOCKED: ENDMDL
________________________________________________________________________________


	BEGINNING GENETIC ALGORITHM DOCKING 35 of 100
Run: 35 Seed: 1988712066 1690433558 [ Run 35 of 100 GA/GALS ]
Beginning LAMARCKIAN GENETIC ALGORITHM (LGA), with a maximum of 2500000 energy evaluations.

Final-Value: -14.765


	FINAL GENETIC ALGORITHM DOCKED STATE
	_______________________________________________


Detailed state:  trans 35.262 13.620 123.339 quatxyzw 0.940442 -0.314266 0.094821 0.088401 center 0.217 0.012 -0.211 ntor 5 7.7668 -146.2509 121.0814 -132.9555 177.5882
State:	 35.262  13.620 123.339   0.944 -0.316  0.095 169.857      7.77 -146.25  121.08 -132.96  177.59

DOCKED: MODEL       35
DOCKED: USER    Run = 35
DOCKED: USER    DPF = ligand_dock.biased.dpf
DOCKED: USER  
DOCKED: USER    Estimated Free Energy of Binding    =  -12.35 kcal/mol  [=(1)+(2)+(3)-(4)]
DOCKED: USER    Estimated Inhibition Constant, Ki   =  881.56 pM (picomolar)  [Temperature = 298.15 K]
DOCKED: USER    
DOCKED: USER    (1) Final Intermolecular Energy     =  -13.84 kcal/mol
DOCKED: USER        vdW + Hbond + desolv Energy     =  -13.84 kcal/mol
DOCKED: USER        Electrostatic Energy            =   +0.00 kcal/mol
DOCKED: USER    (2) Final Total Internal Energy     =   -0.92 kcal/mol
DOCKED: USER    (3) Torsional Free Energy           =   +1.49 kcal/mol
DOCKED: USER    (4) Unbound System's Energy  [=(2)] =   -0.92 kcal/mol
DOCKED: USER    
DOCKED: USER    
DOCKED: USER    NEWDPF move ligand.dum.pdbqt
DOCKED: USER    NEWDPF about 0.217000 0.012000 -0.211000
DOCKED: USER    NEWDPF tran0 35.262182 13.619563 123.338903
DOCKED: USER    NEWDPF quaternion0 0.940442 -0.314266 0.094821 0.088401
DOCKED: USER    NEWDPF axisangle0 0.944138 -0.315501 0.095194 169.856801
DOCKED: USER    NEWDPF quat0 0.944138 -0.315501 0.095194 169.856801
DOCKED: USER    NEWDPF dihe0 7.77 -146.25 121.08 -132.96 177.59 
DOCKED: USER  keepresnum = 1 
DOCKED: USER  
DOCKED: REMARK  Name = 
DOCKED: REMARK  5 active torsions:
DOCKED: REMARK  status: ('A' for Active; 'I' for Inactive)
DOCKED: REMARK    1  A    between atoms: S_2  and  N_3
DOCKED: REMARK    2  A    between atoms: S_2  and  C_10
DOCKED: REMARK    3  A    between atoms: N_3  and  C_4
DOCKED: REMARK    4  A    between atoms: C_12  and  C_13
DOCKED: REMARK    5  A    between atoms: C_14  and  C_15
DOCKED: REMARK                            x       y       z     vdW  Elec       q    Type
DOCKED: REMARK                         _______ _______ _______ _____ _____    ______ ____
DOCKED: USER                              x       y       z     vdW  Elec       q    Type
DOCKED: USER                           _______ _______ _______ _____ _____    ______ ____
DOCKED: ROOT
DOCKED: ATOM      1  C   UNL     1      36.042  15.604 123.804 -0.40 -0.00    +0.000 A 
DOCKED: ATOM      2  C   UNL     1      36.082  14.202 123.829 -0.48 -0.00    +0.000 A 
DOCKED: ATOM      3  C   UNL     1      37.145  13.504 123.220 -0.49 -0.00    +0.000 A 
DOCKED: ATOM      4  C   UNL     1      38.154  14.237 122.575 -0.42 -0.00    +0.000 A 
DOCKED: ATOM      5  C   UNL     1      38.120  15.634 122.558 -0.29 -0.00    +0.000 A 
DOCKED: ATOM      6  C   UNL     1      37.070  16.316 123.174 -0.27 -0.00    +0.000 A 
DOCKED: ATOM      7  CM  UNL     1      37.102  14.916 123.194 +0.00 -0.00    +0.000 AC
DOCKED: ENDROOT
DOCKED: BRANCH   1   8
DOCKED: ATOM      8  O   UNL     1      34.037  15.606 125.595 -0.79 -0.00    +0.000 OA
DOCKED: ATOM      9  S   UNL     1      34.696  16.461 124.549 -0.63 -0.00    +0.000 S 
DOCKED: ATOM     10  O   UNL     1      33.691  16.797 123.485 -0.39 -0.00    +0.000 OA
DOCKED: BRANCH   8  10
DOCKED: ATOM     11  N   UNL     1      35.257  17.928 125.289 -0.28 -0.00    +0.000 N 
DOCKED: ATOM     12  H   UNL     1      36.227  18.097 125.301 -0.01 -0.00    +0.000 HD
DOCKED: BRANCH  10  12
DOCKED: ATOM     13  C   UNL     1      34.391  18.911 125.884 -0.24 -0.00    +0.000 A 
DOCKED: ATOM     14  C   UNL     1      34.794  20.248 126.064 -0.15 -0.00    +0.000 A 
DOCKED: ATOM     15  C   UNL     1      33.921  21.178 126.638 -0.13 -0.00    +0.000 A 
DOCKED: ATOM     16  C   UNL     1      32.644  20.784 127.042 -0.17 -0.00    +0.000 A 
DOCKED: ATOM     17  C   UNL     1      32.238  19.459 126.876 -0.24 -0.00    +0.000 A 
DOCKED: ATOM     18  C   UNL     1      33.106  18.526 126.303 -0.26 -0.00    +0.000 A 
DOCKED: ATOM     19  CM  UNL     1      33.515  19.851 126.468 +0.00 -0.00    +0.000 AC
DOCKED: ENDBRANCH  10  12
DOCKED: ENDBRANCH   8  10
DOCKED: ENDBRANCH   1   8
DOCKED: BRANCH   3  18
DOCKED: ATOM     20  C   UNL     1      37.221  12.022 123.198 -0.60 -0.00    +0.000 C 
DOCKED: ATOM     21  C   UNL     1      36.841  11.273 122.151 -0.60 -0.00    +0.000 C 
DOCKED: BRANCH  19  20
DOCKED: ATOM     22  C   UNL     1      36.921   9.797 122.136 -0.62 -0.00    +0.000 C 
DOCKED: ATOM     23  N   UNL     1      36.885   9.015 123.335 -0.61 -0.00    +0.000 N 
DOCKED: ATOM     24  O   UNL     1      37.067   7.675 123.276 -2.58 -0.00    +0.000 OA
DOCKED: ATOM     25  O   UNL     1      36.998   9.212 121.023 -2.71 -0.00    +0.000 OA
DOCKED: ATOM     26  H   UNL     1      36.729   9.452 124.204 -0.50 -0.00    +0.000 HD
DOCKED: ENDBRANCH  19  20
DOCKED: ENDBRANCH   3  18
DOCKED: TORSDOF 5DOCKED: TER
DOCKED: ENDMDL
________________________________________________________________________________


	BEGINNING GENETIC ALGORITHM DOCKING 36 of 100
Run: 36 Seed: 525362300 2024690960 [ Run 36 of 100 GA/GALS ]
Beginning LAMARCKIAN GENETIC ALGORITHM (LGA), with a maximum of 2500000 energy evaluations.

Final-Value: -14.742


	FINAL GENETIC ALGORITHM DOCKED STATE
	_______________________________________________


Detailed state:  trans 34.923 13.504 123.260 quatxyzw -0.914524 0.362034 -0.143758 -0.109139 center 0.217 0.012 -0.211 ntor 5 -44.3682 -13.5904 156.3654 134.8966 178.2186
State:	 34.923  13.504 123.260  -0.920  0.364 -0.145 -167.469    -44.37  -13.59  156.37  134.90  178.22

DOCKED: MODEL       36
DOCKED: USER    Run = 36
DOCKED: USER    DPF = ligand_dock.biased.dpf
DOCKED: USER  
DOCKED: USER    Estimated Free Energy of Binding    =  -12.25 kcal/mol  [=(1)+(2)+(3)-(4)]
DOCKED: USER    Estimated Inhibition Constant, Ki   =    1.05 nM (nanomolar)  [Temperature = 298.15 K]
DOCKED: USER    
DOCKED: USER    (1) Final Intermolecular Energy     =  -13.74 kcal/mol
DOCKED: USER        vdW + Hbond + desolv Energy     =  -13.74 kcal/mol
DOCKED: USER        Electrostatic Energy            =   +0.00 kcal/mol
DOCKED: USER    (2) Final Total Internal Energy     =   -1.00 kcal/mol
DOCKED: USER    (3) Torsional Free Energy           =   +1.49 kcal/mol
DOCKED: USER    (4) Unbound System's Energy  [=(2)] =   -1.00 kcal/mol
DOCKED: USER    
DOCKED: USER    
DOCKED: USER    NEWDPF move ligand.dum.pdbqt
DOCKED: USER    NEWDPF about 0.217000 0.012000 -0.211000
DOCKED: USER    NEWDPF tran0 34.922798 13.504084 123.259649
DOCKED: USER    NEWDPF quaternion0 -0.914524 0.362034 -0.143758 -0.109139
DOCKED: USER    NEWDPF axisangle0 -0.920020 0.364209 -0.144622 -167.468615
DOCKED: USER    NEWDPF quat0 -0.920020 0.364209 -0.144622 -167.468615
DOCKED: USER    NEWDPF dihe0 -44.37 -13.59 156.37 134.90 178.22 
DOCKED: USER  keepresnum = 1 
DOCKED: USER  
DOCKED: REMARK  Name = 
DOCKED: REMARK  5 active torsions:
DOCKED: REMARK  status: ('A' for Active; 'I' for Inactive)
DOCKED: REMARK    1  A    between atoms: S_2  and  N_3
DOCKED: REMARK    2  A    between atoms: S_2  and  C_10
DOCKED: REMARK    3  A    between atoms: N_3  and  C_4
DOCKED: REMARK    4  A    between atoms: C_12  and  C_13
DOCKED: REMARK    5  A    between atoms: C_14  and  C_15
DOCKED: REMARK                            x       y       z     vdW  Elec       q    Type
DOCKED: REMARK                         _______ _______ _______ _____ _____    ______ ____
DOCKED: USER                              x       y       z     vdW  Elec       q    Type
DOCKED: USER                           _______ _______ _______ _____ _____    ______ ____
DOCKED: ROOT
DOCKED: ATOM      1  C   UNL     1      35.863  15.381 123.854 -0.43 -0.00    +0.000 A 
DOCKED: ATOM      2  C   UNL     1      35.747  13.984 123.845 -0.49 -0.00    +0.000 A 
DOCKED: ATOM      3  C   UNL     1      36.784  13.181 123.327 -0.54 -0.00    +0.000 A 
DOCKED: ATOM      4  C   UNL     1      37.928  13.807 122.806 -0.44 -0.00    +0.000 A 
DOCKED: ATOM      5  C   UNL     1      38.049  15.199 122.824 -0.33 -0.00    +0.000 A 
DOCKED: ATOM      6  C   UNL     1      37.022  15.984 123.351 -0.30 -0.00    +0.000 A 
DOCKED: ATOM      7  CM  UNL     1      36.899  14.589 123.335 +0.00 -0.00    +0.000 AC
DOCKED: ENDROOT
DOCKED: BRANCH   1   8
DOCKED: ATOM      8  O   UNL     1      33.706  15.583 125.447 -0.79 -0.00    +0.000 OA
DOCKED: ATOM      9  S   UNL     1      34.550  16.371 124.485 -0.65 -0.00    +0.000 S 
DOCKED: ATOM     10  O   UNL     1      33.693  16.821 123.337 -0.38 -0.00    +0.000 OA
DOCKED: BRANCH   8  10
DOCKED: ATOM     11  N   UNL     1      35.189  17.764 125.302 -0.29 -0.00    +0.000 N 
DOCKED: ATOM     12  H   UNL     1      35.273  17.726 126.282 -0.01 -0.00    +0.000 HD
DOCKED: BRANCH  10  12
DOCKED: ATOM     13  C   UNL     1      35.603  18.968 124.632 -0.21 -0.00    +0.000 A 
DOCKED: ATOM     14  C   UNL     1      36.026  18.966 123.289 -0.19 -0.00    +0.000 A 
DOCKED: ATOM     15  C   UNL     1      36.411  20.158 122.668 -0.14 -0.00    +0.000 A 
DOCKED: ATOM     16  C   UNL     1      36.387  21.360 123.379 -0.13 -0.00    +0.000 A 
DOCKED: ATOM     17  C   UNL     1      35.978  21.371 124.714 -0.14 -0.00    +0.000 A 
DOCKED: ATOM     18  C   UNL     1      35.591  20.182 125.339 -0.15 -0.00    +0.000 A 
DOCKED: ATOM     19  CM  UNL     1      36.000  20.168 124.004 +0.00 -0.00    +0.000 AC
DOCKED: ENDBRANCH  10  12
DOCKED: ENDBRANCH   8  10
DOCKED: ENDBRANCH   1   8
DOCKED: BRANCH   3  18
DOCKED: ATOM     20  C   UNL     1      36.699  11.701 123.271 -0.69 -0.00    +0.000 C 
DOCKED: ATOM     21  C   UNL     1      37.024  10.975 122.190 -0.56 -0.00    +0.000 C 
DOCKED: BRANCH  19  20
DOCKED: ATOM     22  C   UNL     1      36.938   9.501 122.144 -0.64 -0.00    +0.000 C 
DOCKED: ATOM     23  N   UNL     1      37.046   8.689 123.319 -0.66 -0.00    +0.000 N 
DOCKED: ATOM     24  O   UNL     1      37.066   7.340 123.212 -2.36 -0.00    +0.000 OA
DOCKED: ATOM     25  O   UNL     1      36.738   8.946 121.030 -2.62 -0.00    +0.000 OA
DOCKED: ATOM     26  H   UNL     1      37.106   9.113 124.206 -0.58 -0.00    +0.000 HD
DOCKED: ENDBRANCH  19  20
DOCKED: ENDBRANCH   3  18
DOCKED: TORSDOF 5DOCKED: TER
DOCKED: ENDMDL
________________________________________________________________________________


	BEGINNING GENETIC ALGORITHM DOCKING 37 of 100
Run: 37 Seed: 265630820 1551944954 [ Run 37 of 100 GA/GALS ]
Beginning LAMARCKIAN GENETIC ALGORITHM (LGA), with a maximum of 2500000 energy evaluations.

Final-Value: -14.629


	FINAL GENETIC ALGORITHM DOCKED STATE
	_______________________________________________


Detailed state:  trans 36.042 11.624 120.539 quatxyzw -0.491260 -0.165968 0.404560 -0.753292 center 0.217 0.012 -0.211 ntor 5 129.7243 -52.8631 12.4714 -160.1251 -74.7577
State:	 36.042  11.624 120.539  -0.747 -0.252  0.615 -82.247    129.72  -52.86   12.47 -160.13  -74.76

DOCKED: MODEL       37
DOCKED: USER    Run = 37
DOCKED: USER    DPF = ligand_dock.biased.dpf
DOCKED: USER  
DOCKED: USER    Estimated Free Energy of Binding    =  -12.19 kcal/mol  [=(1)+(2)+(3)-(4)]
DOCKED: USER    Estimated Inhibition Constant, Ki   =    1.16 nM (nanomolar)  [Temperature = 298.15 K]
DOCKED: USER    
DOCKED: USER    (1) Final Intermolecular Energy     =  -13.68 kcal/mol
DOCKED: USER        vdW + Hbond + desolv Energy     =  -13.68 kcal/mol
DOCKED: USER        Electrostatic Energy            =   +0.00 kcal/mol
DOCKED: USER    (2) Final Total Internal Energy     =   -0.95 kcal/mol
DOCKED: USER    (3) Torsional Free Energy           =   +1.49 kcal/mol
DOCKED: USER    (4) Unbound System's Energy  [=(2)] =   -0.95 kcal/mol
DOCKED: USER    
DOCKED: USER    
DOCKED: USER    NEWDPF move ligand.dum.pdbqt
DOCKED: USER    NEWDPF about 0.217000 0.012000 -0.211000
DOCKED: USER    NEWDPF tran0 36.041647 11.623512 120.538666
DOCKED: USER    NEWDPF quaternion0 -0.491260 -0.165968 0.404560 -0.753292
DOCKED: USER    NEWDPF axisangle0 -0.746952 -0.252351 0.615127 -82.247260
DOCKED: USER    NEWDPF quat0 -0.746952 -0.252351 0.615127 -82.247260
DOCKED: USER    NEWDPF dihe0 129.72 -52.86 12.47 -160.13 -74.76 
DOCKED: USER  keepresnum = 1 
DOCKED: USER  
DOCKED: REMARK  Name = 
DOCKED: REMARK  5 active torsions:
DOCKED: REMARK  status: ('A' for Active; 'I' for Inactive)
DOCKED: REMARK    1  A    between atoms: S_2  and  N_3
DOCKED: REMARK    2  A    between atoms: S_2  and  C_10
DOCKED: REMARK    3  A    between atoms: N_3  and  C_4
DOCKED: REMARK    4  A    between atoms: C_12  and  C_13
DOCKED: REMARK    5  A    between atoms: C_14  and  C_15
DOCKED: REMARK                            x       y       z     vdW  Elec       q    Type
DOCKED: REMARK                         _______ _______ _______ _____ _____    ______ ____
DOCKED: USER                              x       y       z     vdW  Elec       q    Type
DOCKED: USER                           _______ _______ _______ _____ _____    ______ ____
DOCKED: ROOT
DOCKED: ATOM      1  C   UNL     1      36.689  10.774 122.441 -0.58 -0.00    +0.000 A 
DOCKED: ATOM      2  C   UNL     1      36.864  11.562 121.295 -0.44 -0.00    +0.000 A 
DOCKED: ATOM      3  C   UNL     1      37.067  12.954 121.407 -0.44 -0.00    +0.000 A 
DOCKED: ATOM      4  C   UNL     1      37.076  13.536 122.684 -0.47 -0.00    +0.000 A 
DOCKED: ATOM      5  C   UNL     1      36.912  12.749 123.827 -0.46 -0.00    +0.000 A 
DOCKED: ATOM      6  C   UNL     1      36.724  11.371 123.707 -0.58 -0.00    +0.000 A 
DOCKED: ATOM      7  CM  UNL     1      36.889  12.158 122.560 +0.00 -0.00    +0.000 AC
DOCKED: ENDROOT
DOCKED: BRANCH   1   8
DOCKED: ATOM      8  O   UNL     1      37.333   8.274 123.194 -2.14 -0.00    +0.000 OA
DOCKED: ATOM      9  S   UNL     1      36.414   9.040 122.285 -0.90 -0.00    +0.000 S 
DOCKED: ATOM     10  O   UNL     1      36.682   8.637 120.863 -2.42 -0.00    +0.000 OA
DOCKED: BRANCH   8  10
DOCKED: ATOM     11  N   UNL     1      34.769   8.657 122.688 -0.60 -0.00    +0.000 N 
DOCKED: ATOM     12  H   UNL     1      34.323   9.203 123.375 -0.43 -0.00    +0.000 HD
DOCKED: BRANCH  10  12
DOCKED: ATOM     13  C   UNL     1      34.021   7.590 122.080 -0.60 -0.00    +0.000 A 
DOCKED: ATOM     14  C   UNL     1      33.688   7.600 120.711 -0.53 -0.00    +0.000 A 
DOCKED: ATOM     15  C   UNL     1      32.967   6.540 120.152 -0.11 -0.00    +0.000 A 
DOCKED: ATOM     16  C   UNL     1      32.566   5.466 120.949 +0.10 -0.00    +0.000 A 
DOCKED: ATOM     17  C   UNL     1      32.883   5.451 122.309 -0.37 -0.00    +0.000 A 
DOCKED: ATOM     18  C   UNL     1      33.604   6.507 122.873 -0.68 -0.00    +0.000 A 
DOCKED: ATOM     19  CM  UNL     1      33.288   6.526 121.513 +0.00 -0.00    +0.000 AC
DOCKED: ENDBRANCH  10  12
DOCKED: ENDBRANCH   8  10
DOCKED: ENDBRANCH   1   8
DOCKED: BRANCH   3  18
DOCKED: ATOM     20  C   UNL     1      37.232  13.835 120.224 -0.37 -0.00    +0.000 C 
DOCKED: ATOM     21  C   UNL     1      37.402  13.380 118.973 -0.43 -0.00    +0.000 C 
DOCKED: BRANCH  19  20
DOCKED: ATOM     22  C   UNL     1      37.563  14.264 117.801 -0.33 -0.00    +0.000 C 
DOCKED: ATOM     23  N   UNL     1      38.370  13.904 116.673 -0.32 -0.00    +0.000 N 
DOCKED: ATOM     24  O   UNL     1      38.570  14.791 115.671 -0.27 -0.00    +0.000 OA
DOCKED: ATOM     25  O   UNL     1      36.944  15.362 117.787 -0.19 -0.00    +0.000 OA
DOCKED: ATOM     26  H   UNL     1      38.781  13.010 116.628 -0.11 -0.00    +0.000 HD
DOCKED: ENDBRANCH  19  20
DOCKED: ENDBRANCH   3  18
DOCKED: TORSDOF 5DOCKED: TER
DOCKED: ENDMDL
________________________________________________________________________________


	BEGINNING GENETIC ALGORITHM DOCKING 38 of 100
Run: 38 Seed: 1439772462 1922293683 [ Run 38 of 100 GA/GALS ]
Beginning LAMARCKIAN GENETIC ALGORITHM (LGA), with a maximum of 2500000 energy evaluations.

Final-Value: -14.162


	FINAL GENETIC ALGORITHM DOCKED STATE
	_______________________________________________


Detailed state:  trans 38.558 13.957 123.279 quatxyzw -0.150700 0.051536 0.892398 0.422208 center 0.217 0.012 -0.211 ntor 5 25.4254 -48.0018 -79.4728 178.2127 -38.2698
State:	 38.558  13.957 123.279  -0.166  0.057  0.984 130.052     25.43  -48.00  -79.47  178.21  -38.27

DOCKED: MODEL       38
DOCKED: USER    Run = 38
DOCKED: USER    DPF = ligand_dock.biased.dpf
DOCKED: USER  
DOCKED: USER    Estimated Free Energy of Binding    =  -11.68 kcal/mol  [=(1)+(2)+(3)-(4)]
DOCKED: USER    Estimated Inhibition Constant, Ki   =    2.75 nM (nanomolar)  [Temperature = 298.15 K]
DOCKED: USER    
DOCKED: USER    (1) Final Intermolecular Energy     =  -13.17 kcal/mol
DOCKED: USER        vdW + Hbond + desolv Energy     =  -13.17 kcal/mol
DOCKED: USER        Electrostatic Energy            =   +0.00 kcal/mol
DOCKED: USER    (2) Final Total Internal Energy     =   -0.99 kcal/mol
DOCKED: USER    (3) Torsional Free Energy           =   +1.49 kcal/mol
DOCKED: USER    (4) Unbound System's Energy  [=(2)] =   -0.99 kcal/mol
DOCKED: USER    
DOCKED: USER    
DOCKED: USER    NEWDPF move ligand.dum.pdbqt
DOCKED: USER    NEWDPF about 0.217000 0.012000 -0.211000
DOCKED: USER    NEWDPF tran0 38.557656 13.957208 123.278605
DOCKED: USER    NEWDPF quaternion0 -0.150700 0.051536 0.892398 0.422208
DOCKED: USER    NEWDPF axisangle0 -0.166244 0.056852 0.984444 130.051907
DOCKED: USER    NEWDPF quat0 -0.166244 0.056852 0.984444 130.051907
DOCKED: USER    NEWDPF dihe0 25.43 -48.00 -79.47 178.21 -38.27 
DOCKED: USER  keepresnum = 1 
DOCKED: USER  
DOCKED: REMARK  Name = 
DOCKED: REMARK  5 active torsions:
DOCKED: REMARK  status: ('A' for Active; 'I' for Inactive)
DOCKED: REMARK    1  A    between atoms: S_2  and  N_3
DOCKED: REMARK    2  A    between atoms: S_2  and  C_10
DOCKED: REMARK    3  A    between atoms: N_3  and  C_4
DOCKED: REMARK    4  A    between atoms: C_12  and  C_13
DOCKED: REMARK    5  A    between atoms: C_14  and  C_15
DOCKED: REMARK                            x       y       z     vdW  Elec       q    Type
DOCKED: REMARK                         _______ _______ _______ _____ _____    ______ ____
DOCKED: USER                              x       y       z     vdW  Elec       q    Type
DOCKED: USER                           _______ _______ _______ _____ _____    ______ ____
DOCKED: ROOT
DOCKED: ATOM      1  C   UNL     1      37.336  15.721 122.884 -0.30 -0.00    +0.000 A 
DOCKED: ATOM      2  C   UNL     1      37.650  14.360 122.763 -0.41 -0.00    +0.000 A 
DOCKED: ATOM      3  C   UNL     1      36.760  13.374 123.237 -0.52 -0.00    +0.000 A 
DOCKED: ATOM      4  C   UNL     1      35.561  13.780 123.846 -0.45 -0.00    +0.000 A 
DOCKED: ATOM      5  C   UNL     1      35.243  15.137 123.957 -0.50 -0.00    +0.000 A 
DOCKED: ATOM      6  C   UNL     1      36.125  16.105 123.474 -0.35 -0.00    +0.000 A 
DOCKED: ATOM      7  CM  UNL     1      36.446  14.746 123.360 +0.00 -0.00    +0.000 AC
DOCKED: ENDROOT
DOCKED: BRANCH   1   8
DOCKED: ATOM      8  O   UNL     1      37.808  18.291 122.250 -0.11 -0.00    +0.000 OA
DOCKED: ATOM      9  S   UNL     1      38.468  16.942 122.308 -0.24 -0.00    +0.000 S 
DOCKED: ATOM     10  O   UNL     1      38.926  16.561 120.929 -0.14 -0.00    +0.000 OA
DOCKED: BRANCH   8  10
DOCKED: ATOM     11  N   UNL     1      39.844  17.028 123.364 -0.25 -0.00    +0.000 N 
DOCKED: ATOM     12  H   UNL     1      39.680  17.175 124.323 -0.02 -0.00    +0.000 HD
DOCKED: BRANCH  10  12
DOCKED: ATOM     13  C   UNL     1      41.206  16.899 122.920 -0.30 -0.00    +0.000 A 
DOCKED: ATOM     14  C   UNL     1      41.673  15.737 122.277 -0.40 -0.00    +0.000 A 
DOCKED: ATOM     15  C   UNL     1      43.002  15.651 121.850 -0.23 -0.00    +0.000 A 
DOCKED: ATOM     16  C   UNL     1      43.878  16.716 122.066 -0.30 -0.00    +0.000 A 
DOCKED: ATOM     17  C   UNL     1      43.428  17.870 122.711 -0.24 -0.00    +0.000 A 
DOCKED: ATOM     18  C   UNL     1      42.100  17.961 123.139 -0.24 -0.00    +0.000 A 
DOCKED: ATOM     19  CM  UNL     1      42.548  16.806 122.494 +0.00 -0.00    +0.000 AC
DOCKED: ENDBRANCH  10  12
DOCKED: ENDBRANCH   8  10
DOCKED: ENDBRANCH   1   8
DOCKED: BRANCH   3  18
DOCKED: ATOM     20  C   UNL     1      37.057  11.923 123.156 -0.66 -0.00    +0.000 C 
DOCKED: ATOM     21  C   UNL     1      36.523  11.103 122.237 -0.64 -0.00    +0.000 C 
DOCKED: BRANCH  19  20
DOCKED: ATOM     22  C   UNL     1      36.826   9.659 122.161 -0.66 -0.00    +0.000 C 
DOCKED: ATOM     23  N   UNL     1      36.887   8.826 123.325 -0.63 -0.00    +0.000 N 
DOCKED: ATOM     24  O   UNL     1      37.271   7.533 123.214 -2.37 -0.00    +0.000 OA
DOCKED: ATOM     25  O   UNL     1      37.011   9.143 121.026 -2.71 -0.00    +0.000 OA
DOCKED: ATOM     26  H   UNL     1      36.650   9.194 124.207 -0.47 -0.00    +0.000 HD
DOCKED: ENDBRANCH  19  20
DOCKED: ENDBRANCH   3  18
DOCKED: TORSDOF 5DOCKED: TER
DOCKED: ENDMDL
________________________________________________________________________________


	BEGINNING GENETIC ALGORITHM DOCKING 39 of 100
Run: 39 Seed: 1820292536 127152463 [ Run 39 of 100 GA/GALS ]
Beginning LAMARCKIAN GENETIC ALGORITHM (LGA), with a maximum of 2500000 energy evaluations.

Final-Value: -14.405


	FINAL GENETIC ALGORITHM DOCKED STATE
	_______________________________________________


Detailed state:  trans 36.750 13.606 122.023 quatxyzw 0.827493 -0.370861 -0.380419 -0.181658 center 0.217 0.012 -0.211 ntor 5 128.7791 130.6026 54.1520 164.8554 -72.5309
State:	 36.750  13.606 122.023   0.841 -0.377 -0.387 -159.067    128.78  130.60   54.15  164.86  -72.53

DOCKED: MODEL       39
DOCKED: USER    Run = 39
DOCKED: USER    DPF = ligand_dock.biased.dpf
DOCKED: USER  
DOCKED: USER    Estimated Free Energy of Binding    =  -11.86 kcal/mol  [=(1)+(2)+(3)-(4)]
DOCKED: USER    Estimated Inhibition Constant, Ki   =    2.02 nM (nanomolar)  [Temperature = 298.15 K]
DOCKED: USER    
DOCKED: USER    (1) Final Intermolecular Energy     =  -13.35 kcal/mol
DOCKED: USER        vdW + Hbond + desolv Energy     =  -13.35 kcal/mol
DOCKED: USER        Electrostatic Energy            =   +0.00 kcal/mol
DOCKED: USER    (2) Final Total Internal Energy     =   -1.05 kcal/mol
DOCKED: USER    (3) Torsional Free Energy           =   +1.49 kcal/mol
DOCKED: USER    (4) Unbound System's Energy  [=(2)] =   -1.05 kcal/mol
DOCKED: USER    
DOCKED: USER    
DOCKED: USER    NEWDPF move ligand.dum.pdbqt
DOCKED: USER    NEWDPF about 0.217000 0.012000 -0.211000
DOCKED: USER    NEWDPF tran0 36.750184 13.605572 122.022802
DOCKED: USER    NEWDPF quaternion0 0.827493 -0.370861 -0.380419 -0.181658
DOCKED: USER    NEWDPF axisangle0 0.841494 -0.377136 -0.386855 -159.067322
DOCKED: USER    NEWDPF quat0 0.841494 -0.377136 -0.386855 -159.067322
DOCKED: USER    NEWDPF dihe0 128.78 130.60 54.15 164.86 -72.53 
DOCKED: USER  keepresnum = 1 
DOCKED: USER  
DOCKED: REMARK  Name = 
DOCKED: REMARK  5 active torsions:
DOCKED: REMARK  status: ('A' for Active; 'I' for Inactive)
DOCKED: REMARK    1  A    between atoms: S_2  and  N_3
DOCKED: REMARK    2  A    between atoms: S_2  and  C_10
DOCKED: REMARK    3  A    between atoms: N_3  and  C_4
DOCKED: REMARK    4  A    between atoms: C_12  and  C_13
DOCKED: REMARK    5  A    between atoms: C_14  and  C_15
DOCKED: REMARK                            x       y       z     vdW  Elec       q    Type
DOCKED: REMARK                         _______ _______ _______ _____ _____    ______ ____
DOCKED: USER                              x       y       z     vdW  Elec       q    Type
DOCKED: USER                           _______ _______ _______ _____ _____    ______ ____
DOCKED: ROOT
DOCKED: ATOM      1  C   UNL     1      37.564  15.403 121.092 -0.22 -0.00    +0.000 A 
DOCKED: ATOM      2  C   UNL     1      37.565  14.032 121.386 -0.36 -0.00    +0.000 A 
DOCKED: ATOM      3  C   UNL     1      37.461  13.078 120.352 -0.43 -0.00    +0.000 A 
DOCKED: ATOM      4  C   UNL     1      37.341  13.525 119.027 -0.37 -0.00    +0.000 A 
DOCKED: ATOM      5  C   UNL     1      37.350  14.892 118.733 -0.23 -0.00    +0.000 A 
DOCKED: ATOM      6  C   UNL     1      37.465  15.829 119.761 -0.17 -0.00    +0.000 A 
DOCKED: ATOM      7  CM  UNL     1      37.458  14.460 120.059 +0.00 -0.00    +0.000 AC
DOCKED: ENDROOT
DOCKED: BRANCH   1   8
DOCKED: ATOM      8  O   UNL     1      38.696  17.636 122.073 -0.12 -0.00    +0.000 OA
DOCKED: ATOM      9  S   UNL     1      37.671  16.584 122.395 -0.29 -0.00    +0.000 S 
DOCKED: ATOM     10  O   UNL     1      38.076  15.875 123.655 -0.34 -0.00    +0.000 OA
DOCKED: BRANCH   8  10
DOCKED: ATOM     11  N   UNL     1      36.131  17.349 122.638 -0.22 -0.00    +0.000 N 
DOCKED: ATOM     12  H   UNL     1      35.791  17.939 121.927 -0.00 -0.00    +0.000 HD
DOCKED: BRANCH  10  12
DOCKED: ATOM     13  C   UNL     1      35.324  17.172 123.816 -0.34 -0.00    +0.000 A 
DOCKED: ATOM     14  C   UNL     1      34.989  18.251 124.657 -0.29 -0.00    +0.000 A 
DOCKED: ATOM     15  C   UNL     1      34.193  18.043 125.788 -0.32 -0.00    +0.000 A 
DOCKED: ATOM     16  C   UNL     1      33.730  16.762 126.095 -0.37 -0.00    +0.000 A 
DOCKED: ATOM     17  C   UNL     1      34.065  15.684 125.272 -0.40 -0.00    +0.000 A 
DOCKED: ATOM     18  C   UNL     1      34.859  15.887 124.141 -0.49 -0.00    +0.000 A 
DOCKED: ATOM     19  CM  UNL     1      34.527  16.966 124.962 -0.29 -0.00    +0.000 AC
DOCKED: ENDBRANCH  10  12
DOCKED: ENDBRANCH   8  10
DOCKED: ENDBRANCH   1   8
DOCKED: BRANCH   3  18
DOCKED: ATOM     20  C   UNL     1      37.432  11.617 120.613 -0.48 -0.00    +0.000 C 
DOCKED: ATOM     21  C   UNL     1      36.911  11.068 121.721 -0.54 -0.00    +0.000 C 
DOCKED: BRANCH  19  20
DOCKED: ATOM     22  C   UNL     1      36.883   9.612 121.972 -0.64 -0.00    +0.000 C 
DOCKED: ATOM     23  N   UNL     1      37.002   9.059 123.288 -0.62 -0.00    +0.000 N 
DOCKED: ATOM     24  O   UNL     1      37.077   7.718 123.455 -2.70 -0.00    +0.000 OA
DOCKED: ATOM     25  O   UNL     1      36.725   8.837 120.991 -2.62 -0.00    +0.000 OA
DOCKED: ATOM     26  H   UNL     1      37.030   9.655 124.072 -0.53 -0.00    +0.000 HD
DOCKED: ENDBRANCH  19  20
DOCKED: ENDBRANCH   3  18
DOCKED: TORSDOF 5DOCKED: TER
DOCKED: ENDMDL
________________________________________________________________________________


	BEGINNING GENETIC ALGORITHM DOCKING 40 of 100
Run: 40 Seed: 650998264 57725806 [ Run 40 of 100 GA/GALS ]
Beginning LAMARCKIAN GENETIC ALGORITHM (LGA), with a maximum of 2500000 energy evaluations.

Final-Value: -14.121


	FINAL GENETIC ALGORITHM DOCKED STATE
	_______________________________________________


Detailed state:  trans 38.024 13.873 122.384 quatxyzw -0.048001 -0.055991 -0.907173 -0.414244 center 0.217 0.012 -0.211 ntor 5 -17.4667 26.8951 -17.1414 128.8930 -70.0426
State:	 38.024  13.873 122.384  -0.053 -0.062 -0.997 -131.057    -17.47   26.90  -17.14  128.89  -70.04

DOCKED: MODEL       40
DOCKED: USER    Run = 40
DOCKED: USER    DPF = ligand_dock.biased.dpf
DOCKED: USER  
DOCKED: USER    Estimated Free Energy of Binding    =  -11.51 kcal/mol  [=(1)+(2)+(3)-(4)]
DOCKED: USER    Estimated Inhibition Constant, Ki   =    3.67 nM (nanomolar)  [Temperature = 298.15 K]
DOCKED: USER    
DOCKED: USER    (1) Final Intermolecular Energy     =  -13.00 kcal/mol
DOCKED: USER        vdW + Hbond + desolv Energy     =  -13.00 kcal/mol
DOCKED: USER        Electrostatic Energy            =   +0.00 kcal/mol
DOCKED: USER    (2) Final Total Internal Energy     =   -1.12 kcal/mol
DOCKED: USER    (3) Torsional Free Energy           =   +1.49 kcal/mol
DOCKED: USER    (4) Unbound System's Energy  [=(2)] =   -1.12 kcal/mol
DOCKED: USER    
DOCKED: USER    
DOCKED: USER    NEWDPF move ligand.dum.pdbqt
DOCKED: USER    NEWDPF about 0.217000 0.012000 -0.211000
DOCKED: USER    NEWDPF tran0 38.023946 13.873251 122.384223
DOCKED: USER    NEWDPF quaternion0 -0.048001 -0.055991 -0.907173 -0.414244
DOCKED: USER    NEWDPF axisangle0 -0.052738 -0.061518 -0.996712 -131.056531
DOCKED: USER    NEWDPF quat0 -0.052738 -0.061518 -0.996712 -131.056531
DOCKED: USER    NEWDPF dihe0 -17.47 26.90 -17.14 128.89 -70.04 
DOCKED: USER  keepresnum = 1 
DOCKED: USER  
DOCKED: REMARK  Name = 
DOCKED: REMARK  5 active torsions:
DOCKED: REMARK  status: ('A' for Active; 'I' for Inactive)
DOCKED: REMARK    1  A    between atoms: S_2  and  N_3
DOCKED: REMARK    2  A    between atoms: S_2  and  C_10
DOCKED: REMARK    3  A    between atoms: N_3  and  C_4
DOCKED: REMARK    4  A    between atoms: C_12  and  C_13
DOCKED: REMARK    5  A    between atoms: C_14  and  C_15
DOCKED: REMARK                            x       y       z     vdW  Elec       q    Type
DOCKED: REMARK                         _______ _______ _______ _____ _____    ______ ____
DOCKED: USER                              x       y       z     vdW  Elec       q    Type
DOCKED: USER                           _______ _______ _______ _____ _____    ______ ____
DOCKED: ROOT
DOCKED: ATOM      1  C   UNL     1      36.772  15.641 122.127 -0.26 -0.00    +0.000 A 
DOCKED: ATOM      2  C   UNL     1      37.000  14.258 122.149 -0.35 -0.00    +0.000 A 
DOCKED: ATOM      3  C   UNL     1      36.317  13.433 123.066 -0.50 -0.00    +0.000 A 
DOCKED: ATOM      4  C   UNL     1      35.416  14.024 123.967 -0.36 -0.00    +0.000 A 
DOCKED: ATOM      5  C   UNL     1      35.181  15.401 123.939 -0.49 -0.00    +0.000 A 
DOCKED: ATOM      6  C   UNL     1      35.853  16.208 123.020 -0.33 -0.00    +0.000 A 
DOCKED: ATOM      7  CM  UNL     1      36.089  14.827 123.044 +0.00 -0.00    +0.000 AC
DOCKED: ENDROOT
DOCKED: BRANCH   1   8
DOCKED: ATOM      8  O   UNL     1      36.721  17.647 120.338 -0.13 -0.00    +0.000 OA
DOCKED: ATOM      9  S   UNL     1      37.649  16.662 120.991 -0.20 -0.00    +0.000 S 
DOCKED: ATOM     10  O   UNL     1      38.262  15.789 119.934 -0.18 -0.00    +0.000 OA
DOCKED: BRANCH   8  10
DOCKED: ATOM     11  N   UNL     1      38.908  17.530 121.815 -0.10 -0.00    +0.000 N 
DOCKED: ATOM     12  H   UNL     1      38.758  18.483 122.012 +0.00 -0.00    +0.000 HD
DOCKED: BRANCH  10  12
DOCKED: ATOM     13  C   UNL     1      40.154  16.941 122.227 -0.19 -0.00    +0.000 A 
DOCKED: ATOM     14  C   UNL     1      40.588  15.696 121.732 -0.30 -0.00    +0.000 A 
DOCKED: ATOM     15  C   UNL     1      41.810  15.158 122.147 -0.42 -0.00    +0.000 A 
DOCKED: ATOM     16  C   UNL     1      42.607  15.850 123.062 -0.34 +0.00    +0.000 A 
DOCKED: ATOM     17  C   UNL     1      42.181  17.081 123.566 -0.30 -0.00    +0.000 A 
DOCKED: ATOM     18  C   UNL     1      40.960  17.623 123.153 -0.24 -0.00    +0.000 A 
DOCKED: ATOM     19  CM  UNL     1      41.383  16.392 122.648 +0.00 -0.00    +0.000 AC
DOCKED: ENDBRANCH  10  12
DOCKED: ENDBRANCH   8  10
DOCKED: ENDBRANCH   1   8
DOCKED: BRANCH   3  18
DOCKED: ATOM     20  C   UNL     1      36.541  11.968 123.146 -0.68 -0.00    +0.000 C 
DOCKED: ATOM     21  C   UNL     1      36.710  11.181 122.073 -0.62 -0.00    +0.000 C 
DOCKED: BRANCH  19  20
DOCKED: ATOM     22  C   UNL     1      36.936   9.723 122.160 -0.62 -0.00    +0.000 C 
DOCKED: ATOM     23  N   UNL     1      36.983   9.029 123.412 -0.59 -0.00    +0.000 N 
DOCKED: ATOM     24  O   UNL     1      37.297   7.713 123.446 -2.63 -0.00    +0.000 OA
DOCKED: ATOM     25  O   UNL     1      37.065   9.071 121.090 -2.72 -0.00    +0.000 OA
DOCKED: ATOM     26  H   UNL     1      36.788   9.509 124.249 -0.47 -0.00    +0.000 HD
DOCKED: ENDBRANCH  19  20
DOCKED: ENDBRANCH   3  18
DOCKED: TORSDOF 5DOCKED: TER
DOCKED: ENDMDL
________________________________________________________________________________


	BEGINNING GENETIC ALGORITHM DOCKING 41 of 100
Run: 41 Seed: 157827217 714653986 [ Run 41 of 100 GA/GALS ]
Beginning LAMARCKIAN GENETIC ALGORITHM (LGA), with a maximum of 2500000 energy evaluations.

Final-Value: -14.379


	FINAL GENETIC ALGORITHM DOCKED STATE
	_______________________________________________


Detailed state:  trans 38.027 13.877 122.318 quatxyzw -0.083363 -0.030701 -0.909813 -0.405399 center 0.217 0.012 -0.211 ntor 5 -16.6417 -175.4359 -12.3672 122.1993 -71.0452
State:	 38.027  13.877 122.318  -0.091 -0.034 -0.995 -132.168    -16.64 -175.44  -12.37  122.20  -71.05

DOCKED: MODEL       41
DOCKED: USER    Run = 41
DOCKED: USER    DPF = ligand_dock.biased.dpf
DOCKED: USER  
DOCKED: USER    Estimated Free Energy of Binding    =  -11.68 kcal/mol  [=(1)+(2)+(3)-(4)]
DOCKED: USER    Estimated Inhibition Constant, Ki   =    2.74 nM (nanomolar)  [Temperature = 298.15 K]
DOCKED: USER    
DOCKED: USER    (1) Final Intermolecular Energy     =  -13.17 kcal/mol
DOCKED: USER        vdW + Hbond + desolv Energy     =  -13.17 kcal/mol
DOCKED: USER        Electrostatic Energy            =   +0.00 kcal/mol
DOCKED: USER    (2) Final Total Internal Energy     =   -1.21 kcal/mol
DOCKED: USER    (3) Torsional Free Energy           =   +1.49 kcal/mol
DOCKED: USER    (4) Unbound System's Energy  [=(2)] =   -1.21 kcal/mol
DOCKED: USER    
DOCKED: USER    
DOCKED: USER    NEWDPF move ligand.dum.pdbqt
DOCKED: USER    NEWDPF about 0.217000 0.012000 -0.211000
DOCKED: USER    NEWDPF tran0 38.026647 13.877306 122.317794
DOCKED: USER    NEWDPF quaternion0 -0.083363 -0.030701 -0.909813 -0.405399
DOCKED: USER    NEWDPF axisangle0 -0.091193 -0.033585 -0.995267 -132.167755
DOCKED: USER    NEWDPF quat0 -0.091193 -0.033585 -0.995267 -132.167755
DOCKED: USER    NEWDPF dihe0 -16.64 -175.44 -12.37 122.20 -71.05 
DOCKED: USER  keepresnum = 1 
DOCKED: USER  
DOCKED: REMARK  Name = 
DOCKED: REMARK  5 active torsions:
DOCKED: REMARK  status: ('A' for Active; 'I' for Inactive)
DOCKED: REMARK    1  A    between atoms: S_2  and  N_3
DOCKED: REMARK    2  A    between atoms: S_2  and  C_10
DOCKED: REMARK    3  A    between atoms: N_3  and  C_4
DOCKED: REMARK    4  A    between atoms: C_12  and  C_13
DOCKED: REMARK    5  A    between atoms: C_14  and  C_15
DOCKED: REMARK                            x       y       z     vdW  Elec       q    Type
DOCKED: REMARK                         _______ _______ _______ _____ _____    ______ ____
DOCKED: USER                              x       y       z     vdW  Elec       q    Type
DOCKED: USER                           _______ _______ _______ _____ _____    ______ ____
DOCKED: ROOT
DOCKED: ATOM      1  C   UNL     1      36.802  15.679 122.194 -0.26 -0.00    +0.000 A 
DOCKED: ATOM      2  C   UNL     1      36.997  14.291 122.175 -0.35 -0.00    +0.000 A 
DOCKED: ATOM      3  C   UNL     1      36.372  13.467 123.134 -0.50 -0.00    +0.000 A 
DOCKED: ATOM      4  C   UNL     1      35.565  14.063 124.116 -0.41 -0.00    +0.000 A 
DOCKED: ATOM      5  C   UNL     1      35.363  15.446 124.129 -0.47 -0.00    +0.000 A 
DOCKED: ATOM      6  C   UNL     1      35.976  16.252 123.168 -0.33 -0.00    +0.000 A 
DOCKED: ATOM      7  CM  UNL     1      36.179  14.866 123.152 +0.00 -0.00    +0.000 AC
DOCKED: ENDROOT
DOCKED: BRANCH   1   8
DOCKED: ATOM      8  O   UNL     1      36.647  17.700 120.427 -0.14 -0.00    +0.000 OA
DOCKED: ATOM      9  S   UNL     1      37.608  16.698 121.003 -0.20 -0.00    +0.000 S 
DOCKED: ATOM     10  O   UNL     1      38.129  15.826 119.897 -0.17 -0.00    +0.000 OA
DOCKED: BRANCH   8  10
DOCKED: ATOM     11  N   UNL     1      38.934  17.543 121.738 -0.10 -0.00    +0.000 N 
DOCKED: ATOM     12  H   UNL     1      38.851  18.516 121.860 +0.00 -0.00    +0.000 HD
DOCKED: BRANCH  10  12
DOCKED: ATOM     13  C   UNL     1      40.147  16.907 122.179 -0.19 -0.00    +0.000 A 
DOCKED: ATOM     14  C   UNL     1      41.257  17.649 122.627 -0.20 -0.00    +0.000 A 
DOCKED: ATOM     15  C   UNL     1      42.416  16.995 123.058 -0.36 -0.00    +0.000 A 
DOCKED: ATOM     16  C   UNL     1      42.483  15.600 123.040 -0.32 +0.00    +0.000 A 
DOCKED: ATOM     17  C   UNL     1      41.392  14.856 122.588 -0.51 -0.00    +0.000 A 
DOCKED: ATOM     18  C   UNL     1      40.231  15.504 122.157 -0.34 -0.00    +0.000 A 
DOCKED: ATOM     19  CM  UNL     1      41.321  16.251 122.608 +0.00 -0.00    +0.000 AC
DOCKED: ENDBRANCH  10  12
DOCKED: ENDBRANCH   8  10
DOCKED: ENDBRANCH   1   8
DOCKED: BRANCH   3  18
DOCKED: ATOM     20  C   UNL     1      36.565  11.996 123.173 -0.68 -0.00    +0.000 C 
DOCKED: ATOM     21  C   UNL     1      36.716  11.235 122.078 -0.62 -0.00    +0.000 C 
DOCKED: BRANCH  19  20
DOCKED: ATOM     22  C   UNL     1      36.911   9.771 122.124 -0.62 -0.00    +0.000 C 
DOCKED: ATOM     23  N   UNL     1      36.928   9.039 123.356 -0.60 -0.00    +0.000 N 
DOCKED: ATOM     24  O   UNL     1      37.214   7.716 123.354 -2.60 -0.00    +0.000 OA
DOCKED: ATOM     25  O   UNL     1      37.041   9.148 121.037 -2.72 -0.00    +0.000 OA
DOCKED: ATOM     26  H   UNL     1      36.731   9.498 124.204 -0.50 -0.00    +0.000 HD
DOCKED: ENDBRANCH  19  20
DOCKED: ENDBRANCH   3  18
DOCKED: TORSDOF 5DOCKED: TER
DOCKED: ENDMDL
________________________________________________________________________________


	BEGINNING GENETIC ALGORITHM DOCKING 42 of 100
Run: 42 Seed: 1331248977 780428392 [ Run 42 of 100 GA/GALS ]
Beginning LAMARCKIAN GENETIC ALGORITHM (LGA), with a maximum of 2500000 energy evaluations.

Final-Value: -14.596


	FINAL GENETIC ALGORITHM DOCKED STATE
	_______________________________________________


Detailed state:  trans 38.628 13.350 122.938 quatxyzw -0.075164 0.082299 0.938943 0.325520 center 0.217 0.012 -0.211 ntor 5 -37.2114 101.5538 -22.5057 76.1287 92.2147
State:	 38.628  13.350 122.938  -0.079  0.087  0.993 142.006    -37.21  101.55  -22.51   76.13   92.21

DOCKED: MODEL       42
DOCKED: USER    Run = 42
DOCKED: USER    DPF = ligand_dock.biased.dpf
DOCKED: USER  
DOCKED: USER    Estimated Free Energy of Binding    =  -11.61 kcal/mol  [=(1)+(2)+(3)-(4)]
DOCKED: USER    Estimated Inhibition Constant, Ki   =    3.08 nM (nanomolar)  [Temperature = 298.15 K]
DOCKED: USER    
DOCKED: USER    (1) Final Intermolecular Energy     =  -13.10 kcal/mol
DOCKED: USER        vdW + Hbond + desolv Energy     =  -13.10 kcal/mol
DOCKED: USER        Electrostatic Energy            =   +0.00 kcal/mol
DOCKED: USER    (2) Final Total Internal Energy     =   -1.49 kcal/mol
DOCKED: USER    (3) Torsional Free Energy           =   +1.49 kcal/mol
DOCKED: USER    (4) Unbound System's Energy  [=(2)] =   -1.49 kcal/mol
DOCKED: USER    
DOCKED: USER    
DOCKED: USER    NEWDPF move ligand.dum.pdbqt
DOCKED: USER    NEWDPF about 0.217000 0.012000 -0.211000
DOCKED: USER    NEWDPF tran0 38.628478 13.349698 122.937506
DOCKED: USER    NEWDPF quaternion0 -0.075164 0.082299 0.938943 0.325520
DOCKED: USER    NEWDPF axisangle0 -0.079494 0.087039 0.993028 142.005792
DOCKED: USER    NEWDPF quat0 -0.079494 0.087039 0.993028 142.005792
DOCKED: USER    NEWDPF dihe0 -37.21 101.55 -22.51 76.13 92.21 
DOCKED: USER  keepresnum = 1 
DOCKED: USER  
DOCKED: REMARK  Name = 
DOCKED: REMARK  5 active torsions:
DOCKED: REMARK  status: ('A' for Active; 'I' for Inactive)
DOCKED: REMARK    1  A    between atoms: S_2  and  N_3
DOCKED: REMARK    2  A    between atoms: S_2  and  C_10
DOCKED: REMARK    3  A    between atoms: N_3  and  C_4
DOCKED: REMARK    4  A    between atoms: C_12  and  C_13
DOCKED: REMARK    5  A    between atoms: C_14  and  C_15
DOCKED: REMARK                            x       y       z     vdW  Elec       q    Type
DOCKED: REMARK                         _______ _______ _______ _____ _____    ______ ____
DOCKED: USER                              x       y       z     vdW  Elec       q    Type
DOCKED: USER                           _______ _______ _______ _____ _____    ______ ____
DOCKED: ROOT
DOCKED: ATOM      1  C   UNL     1      37.790  15.316 122.501 -0.31 -0.00    +0.000 A 
DOCKED: ATOM      2  C   UNL     1      37.777  13.914 122.481 -0.43 -0.00    +0.000 A 
DOCKED: ATOM      3  C   UNL     1      36.755  13.198 123.137 -0.53 -0.00    +0.000 A 
DOCKED: ATOM      4  C   UNL     1      35.760  13.912 123.822 -0.49 -0.00    +0.000 A 
DOCKED: ATOM      5  C   UNL     1      35.767  15.310 123.833 -0.44 -0.00    +0.000 A 
DOCKED: ATOM      6  C   UNL     1      36.776  16.011 123.172 -0.30 -0.00    +0.000 A 
DOCKED: ATOM      7  CM  UNL     1      36.771  14.610 123.157 +0.00 -0.00    +0.000 AC
DOCKED: ENDROOT
DOCKED: BRANCH   1   8
DOCKED: ATOM      8  O   UNL     1      40.414  15.875 122.322 -0.35 -0.00    +0.000 OA
DOCKED: ATOM      9  S   UNL     1      39.086  16.197 121.696 -0.28 -0.00    +0.000 S 
DOCKED: ATOM     10  O   UNL     1      38.824  17.670 121.833 -0.11 -0.00    +0.000 OA
DOCKED: BRANCH   8  10
DOCKED: ATOM     11  N   UNL     1      39.138  15.780 120.012 -0.17 -0.00    +0.000 N 
DOCKED: ATOM     12  H   UNL     1      39.988  15.903 119.531 -0.01 -0.00    +0.000 HD
DOCKED: BRANCH  10  12
DOCKED: ATOM     13  C   UNL     1      38.014  15.264 119.277 -0.19 -0.00    +0.000 A 
DOCKED: ATOM     14  C   UNL     1      37.102  16.112 118.618 -0.14 -0.00    +0.000 A 
DOCKED: ATOM     15  C   UNL     1      36.026  15.575 117.905 -0.19 -0.00    +0.000 A 
DOCKED: ATOM     16  C   UNL     1      35.844  14.191 117.846 -0.32 -0.00    +0.000 A 
DOCKED: ATOM     17  C   UNL     1      36.737  13.342 118.503 -0.37 -0.00    +0.000 A 
DOCKED: ATOM     18  C   UNL     1      37.814  13.874 119.217 -0.30 -0.00    +0.000 A 
DOCKED: ATOM     19  CM  UNL     1      36.923  14.726 118.561 +0.00 -0.00    +0.000 AC
DOCKED: ENDBRANCH  10  12
DOCKED: ENDBRANCH   8  10
DOCKED: ENDBRANCH   1   8
DOCKED: BRANCH   3  18
DOCKED: ATOM     20  C   UNL     1      36.710  11.715 123.166 -0.69 -0.00    +0.000 C 
DOCKED: ATOM     21  C   UNL     1      36.920  10.941 122.090 -0.58 -0.00    +0.000 C 
DOCKED: BRANCH  19  20
DOCKED: ATOM     22  C   UNL     1      36.876   9.465 122.128 -0.66 -0.00    +0.000 C 
DOCKED: ATOM     23  N   UNL     1      37.008   8.725 123.348 -0.65 -0.00    +0.000 N 
DOCKED: ATOM     24  O   UNL     1      37.067   7.373 123.318 -2.41 -0.00    +0.000 OA
DOCKED: ATOM     25  O   UNL     1      36.691   8.842 121.048 -2.61 -0.00    +0.000 OA
DOCKED: ATOM     26  H   UNL     1      37.056   9.200 124.209 -0.58 -0.00    +0.000 HD
DOCKED: ENDBRANCH  19  20
DOCKED: ENDBRANCH   3  18
DOCKED: TORSDOF 5DOCKED: TER
DOCKED: ENDMDL
________________________________________________________________________________


	BEGINNING GENETIC ALGORITHM DOCKING 43 of 100
Run: 43 Seed: 633089752 801375278 [ Run 43 of 100 GA/GALS ]
Beginning LAMARCKIAN GENETIC ALGORITHM (LGA), with a maximum of 2500000 energy evaluations.

Final-Value: -14.765


	FINAL GENETIC ALGORITHM DOCKED STATE
	_______________________________________________


Detailed state:  trans 35.177 13.987 123.200 quatxyzw 0.913932 -0.384754 0.118181 0.052215 center 0.217 0.012 -0.211 ntor 5 -47.9292 -134.4278 157.9273 -160.8190 52.4768
State:	 35.177  13.987 123.200   0.915 -0.385  0.118 174.014    -47.93 -134.43  157.93 -160.82   52.48

DOCKED: MODEL       43
DOCKED: USER    Run = 43
DOCKED: USER    DPF = ligand_dock.biased.dpf
DOCKED: USER  
DOCKED: USER    Estimated Free Energy of Binding    =  -12.34 kcal/mol  [=(1)+(2)+(3)-(4)]
DOCKED: USER    Estimated Inhibition Constant, Ki   =  906.60 pM (picomolar)  [Temperature = 298.15 K]
DOCKED: USER    
DOCKED: USER    (1) Final Intermolecular Energy     =  -13.83 kcal/mol
DOCKED: USER        vdW + Hbond + desolv Energy     =  -13.83 kcal/mol
DOCKED: USER        Electrostatic Energy            =   +0.00 kcal/mol
DOCKED: USER    (2) Final Total Internal Energy     =   -0.94 kcal/mol
DOCKED: USER    (3) Torsional Free Energy           =   +1.49 kcal/mol
DOCKED: USER    (4) Unbound System's Energy  [=(2)] =   -0.94 kcal/mol
DOCKED: USER    
DOCKED: USER    
DOCKED: USER    NEWDPF move ligand.dum.pdbqt
DOCKED: USER    NEWDPF about 0.217000 0.012000 -0.211000
DOCKED: USER    NEWDPF tran0 35.177406 13.986921 123.199670
DOCKED: USER    NEWDPF quaternion0 0.913932 -0.384754 0.118181 0.052215
DOCKED: USER    NEWDPF axisangle0 0.915180 -0.385280 0.118343 174.013887
DOCKED: USER    NEWDPF quat0 0.915180 -0.385280 0.118343 174.013887
DOCKED: USER    NEWDPF dihe0 -47.93 -134.43 157.93 -160.82 52.48 
DOCKED: USER  keepresnum = 1 
DOCKED: USER  
DOCKED: REMARK  Name = 
DOCKED: REMARK  5 active torsions:
DOCKED: REMARK  status: ('A' for Active; 'I' for Inactive)
DOCKED: REMARK    1  A    between atoms: S_2  and  N_3
DOCKED: REMARK    2  A    between atoms: S_2  and  C_10
DOCKED: REMARK    3  A    between atoms: N_3  and  C_4
DOCKED: REMARK    4  A    between atoms: C_12  and  C_13
DOCKED: REMARK    5  A    between atoms: C_14  and  C_15
DOCKED: REMARK                            x       y       z     vdW  Elec       q    Type
DOCKED: REMARK                         _______ _______ _______ _____ _____    ______ ____
DOCKED: USER                              x       y       z     vdW  Elec       q    Type
DOCKED: USER                           _______ _______ _______ _____ _____    ______ ____
DOCKED: ROOT
DOCKED: ATOM      1  C   UNL     1      36.261  15.848 123.552 -0.36 -0.00    +0.000 A 
DOCKED: ATOM      2  C   UNL     1      36.076  14.463 123.668 -0.46 -0.00    +0.000 A 
DOCKED: ATOM      3  C   UNL     1      37.019  13.566 123.124 -0.50 -0.00    +0.000 A 
DOCKED: ATOM      4  C   UNL     1      38.138  14.084 122.453 -0.42 -0.00    +0.000 A 
DOCKED: ATOM      5  C   UNL     1      38.328  15.465 122.347 -0.29 -0.00    +0.000 A 
DOCKED: ATOM      6  C   UNL     1      37.395  16.345 122.898 -0.25 -0.00    +0.000 A 
DOCKED: ATOM      7  CM  UNL     1      37.203  14.961 123.007 +0.00 -0.00    +0.000 AC
DOCKED: ENDROOT
DOCKED: BRANCH   1   8
DOCKED: ATOM      8  O   UNL     1      34.189  17.507 123.125 -0.45 -0.00    +0.000 OA
DOCKED: ATOM      9  S   UNL     1      35.063  16.956 124.217 -0.53 -0.00    +0.000 S 
DOCKED: ATOM     10  O   UNL     1      35.779  18.090 124.892 -0.27 -0.00    +0.000 OA
DOCKED: BRANCH   8  10
DOCKED: ATOM     11  N   UNL     1      34.068  16.134 125.379 -0.52 -0.00    +0.000 N 
DOCKED: ATOM     12  H   UNL     1      33.872  15.182 125.227 -0.07 -0.00    +0.000 HD
DOCKED: BRANCH  10  12
DOCKED: ATOM     13  C   UNL     1      33.513  16.763 126.548 -0.35 -0.00    +0.000 A 
DOCKED: ATOM     14  C   UNL     1      33.335  16.061 127.756 -0.19 -0.00    +0.000 A 
DOCKED: ATOM     15  C   UNL     1      32.801  16.708 128.876 -0.34 -0.00    +0.000 A 
DOCKED: ATOM     16  C   UNL     1      32.435  18.053 128.801 -0.21 -0.00    +0.000 A 
DOCKED: ATOM     17  C   UNL     1      32.599  18.755 127.605 -0.21 -0.00    +0.000 A 
DOCKED: ATOM     18  C   UNL     1      33.132  18.114 126.484 -0.24 -0.00    +0.000 A 
DOCKED: ATOM     19  CM  UNL     1      32.969  17.409 127.678 +0.00 -0.00    +0.000 AC
DOCKED: ENDBRANCH  10  12
DOCKED: ENDBRANCH   8  10
DOCKED: ENDBRANCH   1   8
DOCKED: BRANCH   3  18
DOCKED: ATOM     20  C   UNL     1      36.856  12.092 123.197 -0.67 -0.00    +0.000 C 
DOCKED: ATOM     21  C   UNL     1      37.071  11.267 122.161 -0.56 -0.00    +0.000 C 
DOCKED: BRANCH  19  20
DOCKED: ATOM     22  C   UNL     1      36.909   9.800 122.242 -0.63 -0.00    +0.000 C 
DOCKED: ATOM     23  N   UNL     1      37.128   9.071 123.456 -0.55 -0.00    +0.000 N 
DOCKED: ATOM     24  O   UNL     1      37.069   7.719 123.454 -2.70 -0.00    +0.000 OA
DOCKED: ATOM     25  O   UNL     1      36.540   9.179 121.210 -2.45 -0.00    +0.000 OA
DOCKED: ATOM     26  H   UNL     1      37.322   9.553 124.292 -0.61 -0.00    +0.000 HD
DOCKED: ENDBRANCH  19  20
DOCKED: ENDBRANCH   3  18
DOCKED: TORSDOF 5DOCKED: TER
DOCKED: ENDMDL
________________________________________________________________________________


	BEGINNING GENETIC ALGORITHM DOCKING 44 of 100
Run: 44 Seed: 556653305 703422971 [ Run 44 of 100 GA/GALS ]
Beginning LAMARCKIAN GENETIC ALGORITHM (LGA), with a maximum of 2500000 energy evaluations.

Final-Value: -14.362


	FINAL GENETIC ALGORITHM DOCKED STATE
	_______________________________________________


Detailed state:  trans 38.155 14.021 122.535 quatxyzw 0.042504 0.029723 0.901460 0.429744 center 0.217 0.012 -0.211 ntor 5 5.5805 174.8134 -35.7259 128.1530 -65.0364
State:	 38.155  14.021 122.535   0.047  0.033  0.998 129.097      5.58  174.81  -35.73  128.15  -65.04

DOCKED: MODEL       44
DOCKED: USER    Run = 44
DOCKED: USER    DPF = ligand_dock.biased.dpf
DOCKED: USER  
DOCKED: USER    Estimated Free Energy of Binding    =  -11.69 kcal/mol  [=(1)+(2)+(3)-(4)]
DOCKED: USER    Estimated Inhibition Constant, Ki   =    2.68 nM (nanomolar)  [Temperature = 298.15 K]
DOCKED: USER    
DOCKED: USER    (1) Final Intermolecular Energy     =  -13.18 kcal/mol
DOCKED: USER        vdW + Hbond + desolv Energy     =  -13.18 kcal/mol
DOCKED: USER        Electrostatic Energy            =   +0.00 kcal/mol
DOCKED: USER    (2) Final Total Internal Energy     =   -1.18 kcal/mol
DOCKED: USER    (3) Torsional Free Energy           =   +1.49 kcal/mol
DOCKED: USER    (4) Unbound System's Energy  [=(2)] =   -1.18 kcal/mol
DOCKED: USER    
DOCKED: USER    
DOCKED: USER    NEWDPF move ligand.dum.pdbqt
DOCKED: USER    NEWDPF about 0.217000 0.012000 -0.211000
DOCKED: USER    NEWDPF tran0 38.154655 14.020560 122.534721
DOCKED: USER    NEWDPF quaternion0 0.042504 0.029723 0.901460 0.429744
DOCKED: USER    NEWDPF axisangle0 0.047073 0.032918 0.998349 129.097309
DOCKED: USER    NEWDPF quat0 0.047073 0.032918 0.998349 129.097309
DOCKED: USER    NEWDPF dihe0 5.58 174.81 -35.73 128.15 -65.04 
DOCKED: USER  keepresnum = 1 
DOCKED: USER  
DOCKED: REMARK  Name = 
DOCKED: REMARK  5 active torsions:
DOCKED: REMARK  status: ('A' for Active; 'I' for Inactive)
DOCKED: REMARK    1  A    between atoms: S_2  and  N_3
DOCKED: REMARK    2  A    between atoms: S_2  and  C_10
DOCKED: REMARK    3  A    between atoms: N_3  and  C_4
DOCKED: REMARK    4  A    between atoms: C_12  and  C_13
DOCKED: REMARK    5  A    between atoms: C_14  and  C_15
DOCKED: REMARK                            x       y       z     vdW  Elec       q    Type
DOCKED: REMARK                         _______ _______ _______ _____ _____    ______ ____
DOCKED: USER                              x       y       z     vdW  Elec       q    Type
DOCKED: USER                           _______ _______ _______ _____ _____    ______ ____
DOCKED: ROOT
DOCKED: ATOM      1  C   UNL     1      36.845  15.760 122.389 -0.27 -0.00    +0.000 A 
DOCKED: ATOM      2  C   UNL     1      37.116  14.385 122.334 -0.38 -0.00    +0.000 A 
DOCKED: ATOM      3  C   UNL     1      36.472  13.492 123.215 -0.51 -0.00    +0.000 A 
DOCKED: ATOM      4  C   UNL     1      35.567  14.005 124.158 -0.38 -0.00    +0.000 A 
DOCKED: ATOM      5  C   UNL     1      35.289  15.374 124.206 -0.48 -0.00    +0.000 A 
DOCKED: ATOM      6  C   UNL     1      35.923  16.249 123.322 -0.34 -0.00    +0.000 A 
DOCKED: ATOM      7  CM  UNL     1      36.202  14.877 123.270 +0.00 -0.00    +0.000 AC
DOCKED: ENDROOT
DOCKED: BRANCH   1   8
DOCKED: ATOM      8  O   UNL     1      36.733  17.929 120.804 -0.13 -0.00    +0.000 OA
DOCKED: ATOM      9  S   UNL     1      37.674  16.866 121.297 -0.19 -0.00    +0.000 S 
DOCKED: ATOM     10  O   UNL     1      38.192  16.086 120.123 -0.16 -0.00    +0.000 OA
DOCKED: BRANCH   8  10
DOCKED: ATOM     11  N   UNL     1      39.007  17.624 122.112 -0.11 -0.00    +0.000 N 
DOCKED: ATOM     12  H   UNL     1      38.902  18.561 122.398 +0.00 -0.00    +0.000 HD
DOCKED: BRANCH  10  12
DOCKED: ATOM     13  C   UNL     1      40.255  16.967 122.394 -0.20 -0.00    +0.000 A 
DOCKED: ATOM     14  C   UNL     1      41.419  17.689 122.724 -0.21 -0.00    +0.000 A 
DOCKED: ATOM     15  C   UNL     1      42.613  17.014 123.003 -0.36 -0.00    +0.000 A 
DOCKED: ATOM     16  C   UNL     1      42.660  15.620 122.948 -0.29 +0.00    +0.000 A 
DOCKED: ATOM     17  C   UNL     1      41.514  14.896 122.613 -0.51 -0.00    +0.000 A 
DOCKED: ATOM     18  C   UNL     1      40.319  15.565 122.335 -0.36 -0.00    +0.000 A 
DOCKED: ATOM     19  CM  UNL     1      41.463  16.291 122.669 +0.00 -0.00    +0.000 AC
DOCKED: ENDBRANCH  10  12
DOCKED: ENDBRANCH   8  10
DOCKED: ENDBRANCH   1   8
DOCKED: BRANCH   3  18
DOCKED: ATOM     20  C   UNL     1      36.743  12.033 123.214 -0.68 -0.00    +0.000 C 
DOCKED: ATOM     21  C   UNL     1      36.568  11.244 122.142 -0.63 -0.00    +0.000 C 
DOCKED: BRANCH  19  20
DOCKED: ATOM     22  C   UNL     1      36.842   9.792 122.148 -0.64 -0.00    +0.000 C 
DOCKED: ATOM     23  N   UNL     1      36.838   9.015 123.352 -0.60 -0.00    +0.000 N 
DOCKED: ATOM     24  O   UNL     1      37.198   7.711 123.319 -2.58 -0.00    +0.000 OA
DOCKED: ATOM     25  O   UNL     1      37.061   9.218 121.048 -2.74 -0.00    +0.000 OA
DOCKED: ATOM     26  H   UNL     1      36.574   9.431 124.205 -0.44 -0.00    +0.000 HD
DOCKED: ENDBRANCH  19  20
DOCKED: ENDBRANCH   3  18
DOCKED: TORSDOF 5DOCKED: TER
DOCKED: ENDMDL
________________________________________________________________________________


	BEGINNING GENETIC ALGORITHM DOCKING 45 of 100
Run: 45 Seed: 216817845 1475840577 [ Run 45 of 100 GA/GALS ]
Beginning LAMARCKIAN GENETIC ALGORITHM (LGA), with a maximum of 2500000 energy evaluations.

Final-Value: -14.633


	FINAL GENETIC ALGORITHM DOCKED STATE
	_______________________________________________


Detailed state:  trans 35.287 13.632 122.233 quatxyzw 0.880188 -0.347261 0.189020 0.262585 center 0.217 0.012 -0.211 ntor 5 138.4998 -70.1783 -36.3927 -119.7877 160.1173
State:	 35.287  13.632 122.233   0.912 -0.360  0.196 149.553    138.50  -70.18  -36.39 -119.79  160.12

DOCKED: MODEL       45
DOCKED: USER    Run = 45
DOCKED: USER    DPF = ligand_dock.biased.dpf
DOCKED: USER  
DOCKED: USER    Estimated Free Energy of Binding    =  -12.23 kcal/mol  [=(1)+(2)+(3)-(4)]
DOCKED: USER    Estimated Inhibition Constant, Ki   =    1.08 nM (nanomolar)  [Temperature = 298.15 K]
DOCKED: USER    
DOCKED: USER    (1) Final Intermolecular Energy     =  -13.72 kcal/mol
DOCKED: USER        vdW + Hbond + desolv Energy     =  -13.72 kcal/mol
DOCKED: USER        Electrostatic Energy            =   +0.00 kcal/mol
DOCKED: USER    (2) Final Total Internal Energy     =   -0.91 kcal/mol
DOCKED: USER    (3) Torsional Free Energy           =   +1.49 kcal/mol
DOCKED: USER    (4) Unbound System's Energy  [=(2)] =   -0.91 kcal/mol
DOCKED: USER    
DOCKED: USER    
DOCKED: USER    NEWDPF move ligand.dum.pdbqt
DOCKED: USER    NEWDPF about 0.217000 0.012000 -0.211000
DOCKED: USER    NEWDPF tran0 35.286727 13.631628 122.232612
DOCKED: USER    NEWDPF quaternion0 0.880188 -0.347261 0.189020 0.262585
DOCKED: USER    NEWDPF axisangle0 0.912198 -0.359890 0.195894 149.553032
DOCKED: USER    NEWDPF quat0 0.912198 -0.359890 0.195894 149.553032
DOCKED: USER    NEWDPF dihe0 138.50 -70.18 -36.39 -119.79 160.12 
DOCKED: USER  keepresnum = 1 
DOCKED: USER  
DOCKED: REMARK  Name = 
DOCKED: REMARK  5 active torsions:
DOCKED: REMARK  status: ('A' for Active; 'I' for Inactive)
DOCKED: REMARK    1  A    between atoms: S_2  and  N_3
DOCKED: REMARK    2  A    between atoms: S_2  and  C_10
DOCKED: REMARK    3  A    between atoms: N_3  and  C_4
DOCKED: REMARK    4  A    between atoms: C_12  and  C_13
DOCKED: REMARK    5  A    between atoms: C_14  and  C_15
DOCKED: REMARK                            x       y       z     vdW  Elec       q    Type
DOCKED: REMARK                         _______ _______ _______ _____ _____    ______ ____
DOCKED: USER                              x       y       z     vdW  Elec       q    Type
DOCKED: USER                           _______ _______ _______ _____ _____    ______ ____
DOCKED: ROOT
DOCKED: ATOM      1  C   UNL     1      35.972  15.308 123.450 -0.42 -0.00    +0.000 A 
DOCKED: ATOM      2  C   UNL     1      35.946  13.957 123.076 -0.37 -0.00    +0.000 A 
DOCKED: ATOM      3  C   UNL     1      37.114  13.321 122.606 -0.48 -0.00    +0.000 A 
DOCKED: ATOM      4  C   UNL     1      38.298  14.068 122.504 -0.41 -0.00    +0.000 A 
DOCKED: ATOM      5  C   UNL     1      38.326  15.412 122.886 -0.30 -0.00    +0.000 A 
DOCKED: ATOM      6  C   UNL     1      37.168  16.030 123.362 -0.29 -0.00    +0.000 A 
DOCKED: ATOM      7  CM  UNL     1      37.137  14.682 122.981 +0.00 -0.00    +0.000 AC
DOCKED: ENDROOT
DOCKED: BRANCH   1   8
DOCKED: ATOM      8  O   UNL     1      33.382  15.098 124.142 -0.54 -0.00    +0.000 OA
DOCKED: ATOM      9  S   UNL     1      34.500  16.095 124.015 -0.68 -0.00    +0.000 S 
DOCKED: ATOM     10  O   UNL     1      34.107  17.149 123.020 -0.48 -0.00    +0.000 OA
DOCKED: BRANCH   8  10
DOCKED: ATOM     11  N   UNL     1      34.774  16.839 125.559 -0.33 -0.00    +0.000 N 
DOCKED: ATOM     12  H   UNL     1      35.696  16.861 125.904 +0.03 -0.00    +0.000 HD
DOCKED: BRANCH  10  12
DOCKED: ATOM     13  C   UNL     1      33.735  17.424 126.365 -0.35 -0.00    +0.000 A 
DOCKED: ATOM     14  C   UNL     1      33.263  18.731 126.136 -0.28 -0.00    +0.000 A 
DOCKED: ATOM     15  C   UNL     1      32.244  19.263 126.933 -0.23 -0.00    +0.000 A 
DOCKED: ATOM     16  C   UNL     1      31.693  18.504 127.967 -0.22 -0.00    +0.000 A 
DOCKED: ATOM     17  C   UNL     1      32.162  17.210 128.208 -0.35 -0.00    +0.000 A 
DOCKED: ATOM     18  C   UNL     1      33.178  16.674 127.414 -0.40 -0.00    +0.000 A 
DOCKED: ATOM     19  CM  UNL     1      32.713  17.967 127.171 +0.00 -0.00    +0.000 AC
DOCKED: ENDBRANCH  10  12
DOCKED: ENDBRANCH   8  10
DOCKED: ENDBRANCH   1   8
DOCKED: BRANCH   3  18
DOCKED: ATOM     20  C   UNL     1      37.133  11.901 122.174 -0.56 -0.00    +0.000 C 
DOCKED: ATOM     21  C   UNL     1      36.799  10.875 122.973 -0.67 -0.00    +0.000 C 
DOCKED: BRANCH  19  20
DOCKED: ATOM     22  C   UNL     1      36.818   9.464 122.535 -0.68 -0.00    +0.000 C 
DOCKED: ATOM     23  N   UNL     1      36.949   8.376 123.458 -0.69 -0.00    +0.000 N 
DOCKED: ATOM     24  O   UNL     1      37.066   7.108 123.000 -2.01 -0.00    +0.000 OA
DOCKED: ATOM     25  O   UNL     1      36.689   9.215 121.306 -2.55 -0.00    +0.000 OA
DOCKED: ATOM     26  H   UNL     1      36.953   8.551 124.427 -0.45 -0.00    +0.000 HD
DOCKED: ENDBRANCH  19  20
DOCKED: ENDBRANCH   3  18
DOCKED: TORSDOF 5DOCKED: TER
DOCKED: ENDMDL
________________________________________________________________________________


	BEGINNING GENETIC ALGORITHM DOCKING 46 of 100
Run: 46 Seed: 2120286822 1667294777 [ Run 46 of 100 GA/GALS ]
Beginning LAMARCKIAN GENETIC ALGORITHM (LGA), with a maximum of 2500000 energy evaluations.

Final-Value: -14.334


	FINAL GENETIC ALGORITHM DOCKED STATE
	_______________________________________________


Detailed state:  trans 38.023 13.413 121.588 quatxyzw -0.209722 -0.013981 -0.920588 -0.329149 center 0.217 0.012 -0.211 ntor 5 -45.5157 75.6561 18.3372 2.3047 -22.2815
State:	 38.023  13.413 121.588  -0.222 -0.015 -0.975 -141.566    -45.52   75.66   18.34    2.30  -22.28

DOCKED: MODEL       46
DOCKED: USER    Run = 46
DOCKED: USER    DPF = ligand_dock.biased.dpf
DOCKED: USER  
DOCKED: USER    Estimated Free Energy of Binding    =  -11.56 kcal/mol  [=(1)+(2)+(3)-(4)]
DOCKED: USER    Estimated Inhibition Constant, Ki   =    3.37 nM (nanomolar)  [Temperature = 298.15 K]
DOCKED: USER    
DOCKED: USER    (1) Final Intermolecular Energy     =  -13.05 kcal/mol
DOCKED: USER        vdW + Hbond + desolv Energy     =  -13.05 kcal/mol
DOCKED: USER        Electrostatic Energy            =   +0.00 kcal/mol
DOCKED: USER    (2) Final Total Internal Energy     =   -1.28 kcal/mol
DOCKED: USER    (3) Torsional Free Energy           =   +1.49 kcal/mol
DOCKED: USER    (4) Unbound System's Energy  [=(2)] =   -1.28 kcal/mol
DOCKED: USER    
DOCKED: USER    
DOCKED: USER    NEWDPF move ligand.dum.pdbqt
DOCKED: USER    NEWDPF about 0.217000 0.012000 -0.211000
DOCKED: USER    NEWDPF tran0 38.022775 13.413360 121.588220
DOCKED: USER    NEWDPF quaternion0 -0.209722 -0.013981 -0.920588 -0.329149
DOCKED: USER    NEWDPF axisangle0 -0.222098 -0.014806 -0.974912 -141.565707
DOCKED: USER    NEWDPF quat0 -0.222098 -0.014806 -0.974912 -141.565707
DOCKED: USER    NEWDPF dihe0 -45.52 75.66 18.34 2.30 -22.28 
DOCKED: USER  keepresnum = 1 
DOCKED: USER  
DOCKED: REMARK  Name = 
DOCKED: REMARK  5 active torsions:
DOCKED: REMARK  status: ('A' for Active; 'I' for Inactive)
DOCKED: REMARK    1  A    between atoms: S_2  and  N_3
DOCKED: REMARK    2  A    between atoms: S_2  and  C_10
DOCKED: REMARK    3  A    between atoms: N_3  and  C_4
DOCKED: REMARK    4  A    between atoms: C_12  and  C_13
DOCKED: REMARK    5  A    between atoms: C_14  and  C_15
DOCKED: REMARK                            x       y       z     vdW  Elec       q    Type
DOCKED: REMARK                         _______ _______ _______ _____ _____    ______ ____
DOCKED: USER                              x       y       z     vdW  Elec       q    Type
DOCKED: USER                           _______ _______ _______ _____ _____    ______ ____
DOCKED: ROOT
DOCKED: ATOM      1  C   UNL     1      37.082  15.382 121.563 -0.24 -0.00    +0.000 A 
DOCKED: ATOM      2  C   UNL     1      37.061  13.982 121.642 -0.33 -0.00    +0.000 A 
DOCKED: ATOM      3  C   UNL     1      36.572  13.337 122.798 -0.48 -0.00    +0.000 A 
DOCKED: ATOM      4  C   UNL     1      36.122  14.121 123.872 -0.46 -0.00    +0.000 A 
DOCKED: ATOM      5  C   UNL     1      36.133  15.516 123.789 -0.39 -0.00    +0.000 A 
DOCKED: ATOM      6  C   UNL     1      36.607  16.146 122.637 -0.27 -0.00    +0.000 A 
DOCKED: ATOM      7  CM  UNL     1      36.596  14.747 122.716 +0.00 -0.00    +0.000 AC
DOCKED: ENDROOT
DOCKED: BRANCH   1   8
DOCKED: ATOM      8  O   UNL     1      37.712  17.667 120.294 -0.08 -0.00    +0.000 OA
DOCKED: ATOM      9  S   UNL     1      37.717  16.174 120.123 -0.21 -0.00    +0.000 S 
DOCKED: ATOM     10  O   UNL     1      36.849  15.811 118.953 -0.19 -0.00    +0.000 OA
DOCKED: BRANCH   8  10
DOCKED: ATOM     11  N   UNL     1      39.341  15.644 119.816 -0.17 -0.00    +0.000 N 
DOCKED: ATOM     12  H   UNL     1      39.562  15.333 118.908 -0.06 -0.00    +0.000 HD
DOCKED: BRANCH  10  12
DOCKED: ATOM     13  C   UNL     1      40.384  15.633 120.808 -0.20 -0.00    +0.000 A 
DOCKED: ATOM     14  C   UNL     1      40.309  14.820 121.956 -0.36 -0.00    +0.000 A 
DOCKED: ATOM     15  C   UNL     1      41.347  14.828 122.894 -0.47 -0.00    +0.000 A 
DOCKED: ATOM     16  C   UNL     1      42.462  15.647 122.702 -0.41 -0.00    +0.000 A 
DOCKED: ATOM     17  C   UNL     1      42.540  16.462 121.571 -0.26 -0.00    +0.000 A 
DOCKED: ATOM     18  C   UNL     1      41.507  16.458 120.630 -0.17 -0.00    +0.000 A 
DOCKED: ATOM     19  CM  UNL     1      41.425  15.642 121.760 +0.00 -0.00    +0.000 AC
DOCKED: ENDBRANCH  10  12
DOCKED: ENDBRANCH   8  10
DOCKED: ENDBRANCH   1   8
DOCKED: BRANCH   3  18
DOCKED: ATOM     20  C   UNL     1      36.552  11.860 122.941 -0.67 -0.00    +0.000 C 
DOCKED: ATOM     21  C   UNL     1      36.910  11.012 121.965 -0.57 -0.00    +0.000 C 
DOCKED: BRANCH  19  20
DOCKED: ATOM     22  C   UNL     1      36.890   9.542 122.116 -0.65 -0.00    +0.000 C 
DOCKED: ATOM     23  N   UNL     1      37.055   8.899 123.385 -0.62 -0.00    +0.000 N 
DOCKED: ATOM     24  O   UNL     1      37.134   7.550 123.457 -2.56 -0.00    +0.000 OA
DOCKED: ATOM     25  O   UNL     1      36.694   8.836 121.090 -2.61 -0.00    +0.000 OA
DOCKED: ATOM     26  H   UNL     1      37.112   9.440 124.207 -0.59 -0.00    +0.000 HD
DOCKED: ENDBRANCH  19  20
DOCKED: ENDBRANCH   3  18
DOCKED: TORSDOF 5DOCKED: TER
DOCKED: ENDMDL
________________________________________________________________________________


	BEGINNING GENETIC ALGORITHM DOCKING 47 of 100
Run: 47 Seed: 659858613 923751634 [ Run 47 of 100 GA/GALS ]
Beginning LAMARCKIAN GENETIC ALGORITHM (LGA), with a maximum of 2500000 energy evaluations.

Final-Value: -14.235


	FINAL GENETIC ALGORITHM DOCKED STATE
	_______________________________________________


Detailed state:  trans 38.492 13.300 122.934 quatxyzw 0.079501 -0.065912 -0.945474 -0.308893 center 0.217 0.012 -0.211 ntor 5 -54.6841 -28.1486 -2.3070 -153.8637 -50.6292
State:	 38.492  13.300 122.934   0.084 -0.069 -0.994 -144.015    -54.68  -28.15   -2.31 -153.86  -50.63

DOCKED: MODEL       47
DOCKED: USER    Run = 47
DOCKED: USER    DPF = ligand_dock.biased.dpf
DOCKED: USER  
DOCKED: USER    Estimated Free Energy of Binding    =  -11.82 kcal/mol  [=(1)+(2)+(3)-(4)]
DOCKED: USER    Estimated Inhibition Constant, Ki   =    2.18 nM (nanomolar)  [Temperature = 298.15 K]
DOCKED: USER    
DOCKED: USER    (1) Final Intermolecular Energy     =  -13.31 kcal/mol
DOCKED: USER        vdW + Hbond + desolv Energy     =  -13.31 kcal/mol
DOCKED: USER        Electrostatic Energy            =   +0.00 kcal/mol
DOCKED: USER    (2) Final Total Internal Energy     =   -0.93 kcal/mol
DOCKED: USER    (3) Torsional Free Energy           =   +1.49 kcal/mol
DOCKED: USER    (4) Unbound System's Energy  [=(2)] =   -0.93 kcal/mol
DOCKED: USER    
DOCKED: USER    
DOCKED: USER    NEWDPF move ligand.dum.pdbqt
DOCKED: USER    NEWDPF about 0.217000 0.012000 -0.211000
DOCKED: USER    NEWDPF tran0 38.492461 13.300130 122.933949
DOCKED: USER    NEWDPF quaternion0 0.079501 -0.065912 -0.945474 -0.308893
DOCKED: USER    NEWDPF axisangle0 0.083589 -0.069301 -0.994088 -144.014971
DOCKED: USER    NEWDPF quat0 0.083589 -0.069301 -0.994088 -144.014971
DOCKED: USER    NEWDPF dihe0 -54.68 -28.15 -2.31 -153.86 -50.63 
DOCKED: USER  keepresnum = 1 
DOCKED: USER  
DOCKED: REMARK  Name = 
DOCKED: REMARK  5 active torsions:
DOCKED: REMARK  status: ('A' for Active; 'I' for Inactive)
DOCKED: REMARK    1  A    between atoms: S_2  and  N_3
DOCKED: REMARK    2  A    between atoms: S_2  and  C_10
DOCKED: REMARK    3  A    between atoms: N_3  and  C_4
DOCKED: REMARK    4  A    between atoms: C_12  and  C_13
DOCKED: REMARK    5  A    between atoms: C_14  and  C_15
DOCKED: REMARK                            x       y       z     vdW  Elec       q    Type
DOCKED: REMARK                         _______ _______ _______ _____ _____    ______ ____
DOCKED: USER                              x       y       z     vdW  Elec       q    Type
DOCKED: USER                           _______ _______ _______ _____ _____    ______ ____
DOCKED: ROOT
DOCKED: ATOM      1  C   UNL     1      37.718  15.307 122.572 -0.32 -0.00    +0.000 A 
DOCKED: ATOM      2  C   UNL     1      37.660  13.909 122.500 -0.43 -0.00    +0.000 A 
DOCKED: ATOM      3  C   UNL     1      36.615  13.201 123.130 -0.53 -0.00    +0.000 A 
DOCKED: ATOM      4  C   UNL     1      35.643  13.922 123.843 -0.48 -0.00    +0.000 A 
DOCKED: ATOM      5  C   UNL     1      35.696  15.317 123.906 -0.44 -0.00    +0.000 A 
DOCKED: ATOM      6  C   UNL     1      36.727  16.009 123.269 -0.31 -0.00    +0.000 A 
DOCKED: ATOM      7  CM  UNL     1      36.676  14.611 123.203 +0.00 -0.00    +0.000 AC
DOCKED: ENDROOT
DOCKED: BRANCH   1   8
DOCKED: ATOM      8  O   UNL     1      38.629  17.581 121.461 -0.10 -0.00    +0.000 OA
DOCKED: ATOM      9  S   UNL     1      39.042  16.176 121.799 -0.29 -0.00    +0.000 S 
DOCKED: ATOM     10  O   UNL     1      39.415  15.457 120.534 -0.24 -0.00    +0.000 OA
DOCKED: BRANCH   8  10
DOCKED: ATOM     11  N   UNL     1      40.420  16.229 122.854 -0.31 -0.00    +0.000 N 
DOCKED: ATOM     12  H   UNL     1      40.261  16.174 123.824 -0.02 -0.00    +0.000 HD
DOCKED: BRANCH  10  12
DOCKED: ATOM     13  C   UNL     1      41.778  16.348 122.396 -0.35 -0.00    +0.000 A 
DOCKED: ATOM     14  C   UNL     1      42.245  15.659 121.259 -0.25 -0.00    +0.000 A 
DOCKED: ATOM     15  C   UNL     1      43.570  15.808 120.838 -0.24 -0.00    +0.000 A 
DOCKED: ATOM     16  C   UNL     1      44.443  16.637 121.546 -0.25 -0.00    +0.000 A 
DOCKED: ATOM     17  C   UNL     1      43.993  17.317 122.680 -0.30 -0.00    +0.000 A 
DOCKED: ATOM     18  C   UNL     1      42.669  17.172 123.104 -0.34 -0.00    +0.000 A 
DOCKED: ATOM     19  CM  UNL     1      43.117  16.491 121.971 +0.00 -0.00    +0.000 AC
DOCKED: ENDBRANCH  10  12
DOCKED: ENDBRANCH   8  10
DOCKED: ENDBRANCH   1   8
DOCKED: BRANCH   3  18
DOCKED: ATOM     20  C   UNL     1      36.522  11.720 123.104 -0.69 -0.00    +0.000 C 
DOCKED: ATOM     21  C   UNL     1      37.069  10.956 122.146 -0.54 -0.00    +0.000 C 
DOCKED: BRANCH  19  20
DOCKED: ATOM     22  C   UNL     1      36.975   9.482 122.129 -0.64 -0.00    +0.000 C 
DOCKED: ATOM     23  N   UNL     1      37.024   8.696 123.327 -0.66 -0.00    +0.000 N 
DOCKED: ATOM     24  O   UNL     1      37.039   7.345 123.251 -2.36 -0.00    +0.000 OA
DOCKED: ATOM     25  O   UNL     1      36.820   8.903 121.021 -2.64 -0.00    +0.000 OA
DOCKED: ATOM     26  H   UNL     1      37.047   9.140 124.206 -0.57 -0.00    +0.000 HD
DOCKED: ENDBRANCH  19  20
DOCKED: ENDBRANCH   3  18
DOCKED: TORSDOF 5DOCKED: TER
DOCKED: ENDMDL
________________________________________________________________________________


	BEGINNING GENETIC ALGORITHM DOCKING 48 of 100
Run: 48 Seed: 1308877753 945835696 [ Run 48 of 100 GA/GALS ]
Beginning LAMARCKIAN GENETIC ALGORITHM (LGA), with a maximum of 2500000 energy evaluations.

Final-Value: -13.894


	FINAL GENETIC ALGORITHM DOCKED STATE
	_______________________________________________


Detailed state:  trans 38.099 13.450 122.995 quatxyzw 0.137095 0.012357 -0.949538 -0.281834 center 0.217 0.012 -0.211 ntor 5 -124.4440 -111.3836 59.7014 -112.6856 7.1010
State:	 38.099  13.450 122.995   0.143  0.013 -0.990 -147.261   -124.44 -111.38   59.70 -112.69    7.10

DOCKED: MODEL       48
DOCKED: USER    Run = 48
DOCKED: USER    DPF = ligand_dock.biased.dpf
DOCKED: USER  
DOCKED: USER    Estimated Free Energy of Binding    =  -11.46 kcal/mol  [=(1)+(2)+(3)-(4)]
DOCKED: USER    Estimated Inhibition Constant, Ki   =    4.00 nM (nanomolar)  [Temperature = 298.15 K]
DOCKED: USER    
DOCKED: USER    (1) Final Intermolecular Energy     =  -12.95 kcal/mol
DOCKED: USER        vdW + Hbond + desolv Energy     =  -12.95 kcal/mol
DOCKED: USER        Electrostatic Energy            =   +0.00 kcal/mol
DOCKED: USER    (2) Final Total Internal Energy     =   -0.95 kcal/mol
DOCKED: USER    (3) Torsional Free Energy           =   +1.49 kcal/mol
DOCKED: USER    (4) Unbound System's Energy  [=(2)] =   -0.95 kcal/mol
DOCKED: USER    
DOCKED: USER    
DOCKED: USER    NEWDPF move ligand.dum.pdbqt
DOCKED: USER    NEWDPF about 0.217000 0.012000 -0.211000
DOCKED: USER    NEWDPF tran0 38.099331 13.450335 122.995345
DOCKED: USER    NEWDPF quaternion0 0.137095 0.012357 -0.949538 -0.281834
DOCKED: USER    NEWDPF axisangle0 0.142888 0.012879 -0.989655 -147.260577
DOCKED: USER    NEWDPF quat0 0.142888 0.012879 -0.989655 -147.260577
DOCKED: USER    NEWDPF dihe0 -124.44 -111.38 59.70 -112.69 7.10 
DOCKED: USER  keepresnum = 1 
DOCKED: USER  
DOCKED: REMARK  Name = 
DOCKED: REMARK  5 active torsions:
DOCKED: REMARK  status: ('A' for Active; 'I' for Inactive)
DOCKED: REMARK    1  A    between atoms: S_2  and  N_3
DOCKED: REMARK    2  A    between atoms: S_2  and  C_10
DOCKED: REMARK    3  A    between atoms: N_3  and  C_4
DOCKED: REMARK    4  A    between atoms: C_12  and  C_13
DOCKED: REMARK    5  A    between atoms: C_14  and  C_15
DOCKED: REMARK                            x       y       z     vdW  Elec       q    Type
DOCKED: REMARK                         _______ _______ _______ _____ _____    ______ ____
DOCKED: USER                              x       y       z     vdW  Elec       q    Type
DOCKED: USER                           _______ _______ _______ _____ _____    ______ ____
DOCKED: ROOT
DOCKED: ATOM      1  C   UNL     1      37.406  15.519 122.972 -0.32 -0.00    +0.000 A 
DOCKED: ATOM      2  C   UNL     1      37.314  14.161 122.634 -0.42 -0.00    +0.000 A 
DOCKED: ATOM      3  C   UNL     1      36.211  13.391 123.056 -0.47 -0.00    +0.000 A 
DOCKED: ATOM      4  C   UNL     1      35.214  14.004 123.833 -0.34 -0.00    +0.000 A 
DOCKED: ATOM      5  C   UNL     1      35.301  15.360 124.161 -0.48 -0.00    +0.000 A 
DOCKED: ATOM      6  C   UNL     1      36.390  16.117 123.729 -0.33 -0.00    +0.000 A 
DOCKED: ATOM      7  CM  UNL     1      36.306  14.758 123.397 +0.00 -0.00    +0.000 AC
DOCKED: ENDROOT
DOCKED: BRANCH   1   8
DOCKED: ATOM      8  O   UNL     1      39.129  17.522 123.473 -0.23 -0.00    +0.000 OA
DOCKED: ATOM      9  S   UNL     1      38.802  16.463 122.457 -0.31 -0.00    +0.000 S 
DOCKED: ATOM     10  O   UNL     1      38.479  17.123 121.148 -0.11 -0.00    +0.000 OA
DOCKED: BRANCH   8  10
DOCKED: ATOM     11  N   UNL     1      40.181  15.429 122.253 -0.35 -0.00    +0.000 N 
DOCKED: ATOM     12  H   UNL     1      40.028  14.458 122.211 -0.03 -0.00    +0.000 HD
DOCKED: BRANCH  10  12
DOCKED: ATOM     13  C   UNL     1      41.534  15.906 122.141 -0.36 -0.00    +0.000 A 
DOCKED: ATOM     14  C   UNL     1      42.345  15.593 121.033 -0.18 -0.00    +0.000 A 
DOCKED: ATOM     15  C   UNL     1      43.652  16.083 120.954 -0.25 -0.00    +0.000 A 
DOCKED: ATOM     16  C   UNL     1      44.165  16.883 121.977 -0.28 -0.00    +0.000 A 
DOCKED: ATOM     17  C   UNL     1      43.372  17.192 123.084 -0.29 -0.00    +0.000 A 
DOCKED: ATOM     18  C   UNL     1      42.065  16.705 123.168 -0.36 -0.00    +0.000 A 
DOCKED: ATOM     19  CM  UNL     1      42.856  16.394 122.060 +0.00 -0.00    +0.000 AC
DOCKED: ENDBRANCH  10  12
DOCKED: ENDBRANCH   8  10
DOCKED: ENDBRANCH   1   8
DOCKED: BRANCH   3  18
DOCKED: ATOM     20  C   UNL     1      36.079  11.945 122.746 -0.61 -0.00    +0.000 C 
DOCKED: ATOM     21  C   UNL     1      37.114  11.092 122.723 -0.55 -0.00    +0.000 C 
DOCKED: BRANCH  19  20
DOCKED: ATOM     22  C   UNL     1      36.975   9.653 122.416 -0.62 -0.00    +0.000 C 
DOCKED: ATOM     23  N   UNL     1      37.082   8.640 123.424 -0.65 -0.00    +0.000 N 
DOCKED: ATOM     24  O   UNL     1      37.052   7.332 123.076 -2.31 -0.00    +0.000 OA
DOCKED: ATOM     25  O   UNL     1      36.729   9.314 121.228 -2.54 -0.00    +0.000 OA
DOCKED: ATOM     26  H   UNL     1      37.179   8.896 124.370 -0.55 -0.00    +0.000 HD
DOCKED: ENDBRANCH  19  20
DOCKED: ENDBRANCH   3  18
DOCKED: TORSDOF 5DOCKED: TER
DOCKED: ENDMDL
________________________________________________________________________________


	BEGINNING GENETIC ALGORITHM DOCKING 49 of 100
Run: 49 Seed: 2110297480 69600922 [ Run 49 of 100 GA/GALS ]
Beginning LAMARCKIAN GENETIC ALGORITHM (LGA), with a maximum of 2500000 energy evaluations.

Final-Value: -14.738


	FINAL GENETIC ALGORITHM DOCKED STATE
	_______________________________________________


Detailed state:  trans 34.797 13.563 123.300 quatxyzw -0.915676 0.374070 -0.110548 -0.096888 center 0.217 0.012 -0.211 ntor 5 -56.7827 147.5202 173.0930 148.5198 172.6109
State:	 34.797  13.563 123.300  -0.920  0.376 -0.111 -168.880    -56.78  147.52  173.09  148.52  172.61

DOCKED: MODEL       49
DOCKED: USER    Run = 49
DOCKED: USER    DPF = ligand_dock.biased.dpf
DOCKED: USER  
DOCKED: USER    Estimated Free Energy of Binding    =  -12.23 kcal/mol  [=(1)+(2)+(3)-(4)]
DOCKED: USER    Estimated Inhibition Constant, Ki   =    1.09 nM (nanomolar)  [Temperature = 298.15 K]
DOCKED: USER    
DOCKED: USER    (1) Final Intermolecular Energy     =  -13.72 kcal/mol
DOCKED: USER        vdW + Hbond + desolv Energy     =  -13.72 kcal/mol
DOCKED: USER        Electrostatic Energy            =   +0.00 kcal/mol
DOCKED: USER    (2) Final Total Internal Energy     =   -1.02 kcal/mol
DOCKED: USER    (3) Torsional Free Energy           =   +1.49 kcal/mol
DOCKED: USER    (4) Unbound System's Energy  [=(2)] =   -1.02 kcal/mol
DOCKED: USER    
DOCKED: USER    
DOCKED: USER    NEWDPF move ligand.dum.pdbqt
DOCKED: USER    NEWDPF about 0.217000 0.012000 -0.211000
DOCKED: USER    NEWDPF tran0 34.797230 13.563046 123.300187
DOCKED: USER    NEWDPF quaternion0 -0.915676 0.374070 -0.110548 -0.096888
DOCKED: USER    NEWDPF axisangle0 -0.920005 0.375838 -0.111071 -168.880009
DOCKED: USER    NEWDPF quat0 -0.920005 0.375838 -0.111071 -168.880009
DOCKED: USER    NEWDPF dihe0 -56.78 147.52 173.09 148.52 172.61 
DOCKED: USER  keepresnum = 1 
DOCKED: USER  
DOCKED: REMARK  Name = 
DOCKED: REMARK  5 active torsions:
DOCKED: REMARK  status: ('A' for Active; 'I' for Inactive)
DOCKED: REMARK    1  A    between atoms: S_2  and  N_3
DOCKED: REMARK    2  A    between atoms: S_2  and  C_10
DOCKED: REMARK    3  A    between atoms: N_3  and  C_4
DOCKED: REMARK    4  A    between atoms: C_12  and  C_13
DOCKED: REMARK    5  A    between atoms: C_14  and  C_15
DOCKED: REMARK                            x       y       z     vdW  Elec       q    Type
DOCKED: REMARK                         _______ _______ _______ _____ _____    ______ ____
DOCKED: USER                              x       y       z     vdW  Elec       q    Type
DOCKED: USER                           _______ _______ _______ _____ _____    ______ ____
DOCKED: ROOT
DOCKED: ATOM      1  C   UNL     1      35.811  15.420 123.833 -0.43 -0.00    +0.000 A 
DOCKED: ATOM      2  C   UNL     1      35.670  14.025 123.827 -0.49 -0.00    +0.000 A 
DOCKED: ATOM      3  C   UNL     1      36.653  13.208 123.231 -0.54 -0.00    +0.000 A 
DOCKED: ATOM      4  C   UNL     1      37.767  13.816 122.631 -0.44 -0.00    +0.000 A 
DOCKED: ATOM      5  C   UNL     1      37.913  15.206 122.646 -0.33 -0.00    +0.000 A 
DOCKED: ATOM      6  C   UNL     1      36.941  16.006 123.249 -0.30 -0.00    +0.000 A 
DOCKED: ATOM      7  CM  UNL     1      36.792  14.613 123.236 +0.00 -0.00    +0.000 AC
DOCKED: ENDROOT
DOCKED: BRANCH   1   8
DOCKED: ATOM      8  O   UNL     1      33.693  15.617 125.477 -0.80 -0.00    +0.000 OA
DOCKED: ATOM      9  S   UNL     1      34.565  16.429 124.561 -0.64 -0.00    +0.000 S 
DOCKED: ATOM     10  O   UNL     1      33.717  17.012 123.467 -0.41 -0.00    +0.000 OA
DOCKED: BRANCH   8  10
DOCKED: ATOM     11  N   UNL     1      35.293  17.719 125.468 -0.27 -0.00    +0.000 N 
DOCKED: ATOM     12  H   UNL     1      35.576  17.530 126.392 -0.01 -0.00    +0.000 HD
DOCKED: BRANCH  10  12
DOCKED: ATOM     13  C   UNL     1      35.506  19.044 124.951 -0.21 -0.00    +0.000 A 
DOCKED: ATOM     14  C   UNL     1      35.206  20.195 125.706 -0.15 -0.00    +0.000 A 
DOCKED: ATOM     15  C   UNL     1      35.437  21.468 125.174 -0.14 -0.00    +0.000 A 
DOCKED: ATOM     16  C   UNL     1      35.960  21.606 123.886 -0.14 -0.00    +0.000 A 
DOCKED: ATOM     17  C   UNL     1      36.252  20.471 123.127 -0.13 -0.00    +0.000 A 
DOCKED: ATOM     18  C   UNL     1      36.024  19.197 123.654 -0.19 -0.00    +0.000 A 
DOCKED: ATOM     19  CM  UNL     1      35.731  20.330 124.416 +0.00 -0.00    +0.000 AC
DOCKED: ENDBRANCH  10  12
DOCKED: ENDBRANCH   8  10
DOCKED: ENDBRANCH   1   8
DOCKED: BRANCH   3  18
DOCKED: ATOM     20  C   UNL     1      36.537  11.729 123.175 -0.69 -0.00    +0.000 C 
DOCKED: ATOM     21  C   UNL     1      37.067  10.976 122.199 -0.55 -0.00    +0.000 C 
DOCKED: BRANCH  19  20
DOCKED: ATOM     22  C   UNL     1      36.950   9.504 122.152 -0.64 -0.00    +0.000 C 
DOCKED: ATOM     23  N   UNL     1      37.037   8.690 123.328 -0.66 -0.00    +0.000 N 
DOCKED: ATOM     24  O   UNL     1      37.029   7.341 123.221 -2.34 -0.00    +0.000 OA
DOCKED: ATOM     25  O   UNL     1      36.741   8.954 121.038 -2.62 -0.00    +0.000 OA
DOCKED: ATOM     26  H   UNL     1      37.104   9.113 124.215 -0.58 -0.00    +0.000 HD
DOCKED: ENDBRANCH  19  20
DOCKED: ENDBRANCH   3  18
DOCKED: TORSDOF 5DOCKED: TER
DOCKED: ENDMDL
________________________________________________________________________________


	BEGINNING GENETIC ALGORITHM DOCKING 50 of 100
Run: 50 Seed: 678628928 1947761163 [ Run 50 of 100 GA/GALS ]
Beginning LAMARCKIAN GENETIC ALGORITHM (LGA), with a maximum of 2500000 energy evaluations.

Final-Value: -14.816


	FINAL GENETIC ALGORITHM DOCKED STATE
	_______________________________________________


Detailed state:  trans 35.064 13.596 123.485 quatxyzw 0.947078 -0.316542 0.035882 0.039462 center 0.217 0.012 -0.211 ntor 5 -4.0309 -106.5256 143.0060 -157.3836 162.9248
State:	 35.064  13.596 123.485   0.948 -0.317  0.036 175.477     -4.03 -106.53  143.01 -157.38  162.92

DOCKED: MODEL       50
DOCKED: USER    Run = 50
DOCKED: USER    DPF = ligand_dock.biased.dpf
DOCKED: USER  
DOCKED: USER    Estimated Free Energy of Binding    =  -12.39 kcal/mol  [=(1)+(2)+(3)-(4)]
DOCKED: USER    Estimated Inhibition Constant, Ki   =  834.36 pM (picomolar)  [Temperature = 298.15 K]
DOCKED: USER    
DOCKED: USER    (1) Final Intermolecular Energy     =  -13.88 kcal/mol
DOCKED: USER        vdW + Hbond + desolv Energy     =  -13.88 kcal/mol
DOCKED: USER        Electrostatic Energy            =   +0.00 kcal/mol
DOCKED: USER    (2) Final Total Internal Energy     =   -0.94 kcal/mol
DOCKED: USER    (3) Torsional Free Energy           =   +1.49 kcal/mol
DOCKED: USER    (4) Unbound System's Energy  [=(2)] =   -0.94 kcal/mol
DOCKED: USER    
DOCKED: USER    
DOCKED: USER    NEWDPF move ligand.dum.pdbqt
DOCKED: USER    NEWDPF about 0.217000 0.012000 -0.211000
DOCKED: USER    NEWDPF tran0 35.063567 13.596361 123.485007
DOCKED: USER    NEWDPF quaternion0 0.947078 -0.316542 0.035882 0.039462
DOCKED: USER    NEWDPF axisangle0 0.947816 -0.316789 0.035910 175.476817
DOCKED: USER    NEWDPF quat0 0.947816 -0.316789 0.035910 175.476817
DOCKED: USER    NEWDPF dihe0 -4.03 -106.53 143.01 -157.38 162.92 
DOCKED: USER  keepresnum = 1 
DOCKED: USER  
DOCKED: REMARK  Name = 
DOCKED: REMARK  5 active torsions:
DOCKED: REMARK  status: ('A' for Active; 'I' for Inactive)
DOCKED: REMARK    1  A    between atoms: S_2  and  N_3
DOCKED: REMARK    2  A    between atoms: S_2  and  C_10
DOCKED: REMARK    3  A    between atoms: N_3  and  C_4
DOCKED: REMARK    4  A    between atoms: C_12  and  C_13
DOCKED: REMARK    5  A    between atoms: C_14  and  C_15
DOCKED: REMARK                            x       y       z     vdW  Elec       q    Type
DOCKED: REMARK                         _______ _______ _______ _____ _____    ______ ____
DOCKED: USER                              x       y       z     vdW  Elec       q    Type
DOCKED: USER                           _______ _______ _______ _____ _____    ______ ____
DOCKED: ROOT
DOCKED: ATOM      1  C   UNL     1      35.892  15.601 123.723 -0.41 -0.00    +0.000 A 
DOCKED: ATOM      2  C   UNL     1      35.942  14.203 123.820 -0.49 -0.00    +0.000 A 
DOCKED: ATOM      3  C   UNL     1      36.911  13.469 123.105 -0.51 -0.00    +0.000 A 
DOCKED: ATOM      4  C   UNL     1      37.814  14.161 122.282 -0.41 -0.00    +0.000 A 
DOCKED: ATOM      5  C   UNL     1      37.771  15.555 122.193 -0.27 -0.00    +0.000 A 
DOCKED: ATOM      6  C   UNL     1      36.816  16.274 122.914 -0.27 -0.00    +0.000 A 
DOCKED: ATOM      7  CM  UNL     1      36.858  14.877 123.007 +0.00 -0.00    +0.000 AC
DOCKED: ENDROOT
DOCKED: BRANCH   1   8
DOCKED: ATOM      8  O   UNL     1      33.914  15.599 125.545 -0.79 -0.00    +0.000 OA
DOCKED: ATOM      9  S   UNL     1      34.662  16.503 124.604 -0.62 -0.00    +0.000 S 
DOCKED: ATOM     10  O   UNL     1      33.695  17.090 123.616 -0.42 -0.00    +0.000 OA
DOCKED: BRANCH   8  10
DOCKED: ATOM     11  N   UNL     1      35.397  17.785 125.515 -0.26 -0.00    +0.000 N 
DOCKED: ATOM     12  H   UNL     1      36.318  17.652 125.839 -0.02 -0.00    +0.000 HD
DOCKED: BRANCH  10  12
DOCKED: ATOM     13  C   UNL     1      34.743  19.028 125.825 -0.22 -0.00    +0.000 A 
DOCKED: ATOM     14  C   UNL     1      35.244  20.265 125.376 -0.16 -0.00    +0.000 A 
DOCKED: ATOM     15  C   UNL     1      34.575  21.453 125.689 -0.15 -0.00    +0.000 A 
DOCKED: ATOM     16  C   UNL     1      33.409  21.421 126.456 -0.16 -0.00    +0.000 A 
DOCKED: ATOM     17  C   UNL     1      32.909  20.200 126.914 -0.19 -0.00    +0.000 A 
DOCKED: ATOM     18  C   UNL     1      33.573  19.010 126.603 -0.24 -0.00    +0.000 A 
DOCKED: ATOM     19  CM  UNL     1      34.075  20.230 126.144 +0.00 -0.00    +0.000 AC
DOCKED: ENDBRANCH  10  12
DOCKED: ENDBRANCH   8  10
DOCKED: ENDBRANCH   1   8
DOCKED: BRANCH   3  18
DOCKED: ATOM     20  C   UNL     1      36.990  11.988 123.154 -0.66 -0.00    +0.000 C 
DOCKED: ATOM     21  C   UNL     1      36.869  11.199 122.076 -0.59 -0.00    +0.000 C 
DOCKED: BRANCH  19  20
DOCKED: ATOM     22  C   UNL     1      36.951   9.725 122.133 -0.62 -0.00    +0.000 C 
DOCKED: ATOM     23  N   UNL     1      36.876   8.999 123.366 -0.60 -0.00    +0.000 N 
DOCKED: ATOM     24  O   UNL     1      37.061   7.659 123.377 -2.62 -0.00    +0.000 OA
DOCKED: ATOM     25  O   UNL     1      37.065   9.088 121.051 -2.72 -0.00    +0.000 OA
DOCKED: ATOM     26  H   UNL     1      36.690   9.477 124.207 -0.49 -0.00    +0.000 HD
DOCKED: ENDBRANCH  19  20
DOCKED: ENDBRANCH   3  18
DOCKED: TORSDOF 5DOCKED: TER
DOCKED: ENDMDL
________________________________________________________________________________


	BEGINNING GENETIC ALGORITHM DOCKING 51 of 100
Run: 51 Seed: 1453905496 1656263245 [ Run 51 of 100 GA/GALS ]
Beginning LAMARCKIAN GENETIC ALGORITHM (LGA), with a maximum of 2500000 energy evaluations.

Final-Value: -14.365


	FINAL GENETIC ALGORITHM DOCKED STATE
	_______________________________________________


Detailed state:  trans 38.570 13.362 122.549 quatxyzw -0.001692 0.065802 0.943611 0.324446 center 0.217 0.012 -0.211 ntor 5 -41.1430 74.9693 -9.2487 -13.4147 121.5369
State:	 38.570  13.362 122.549  -0.002  0.070  0.998 142.136    -41.14   74.97   -9.25  -13.41  121.54

DOCKED: MODEL       51
DOCKED: USER    Run = 51
DOCKED: USER    DPF = ligand_dock.biased.dpf
DOCKED: USER  
DOCKED: USER    Estimated Free Energy of Binding    =  -11.55 kcal/mol  [=(1)+(2)+(3)-(4)]
DOCKED: USER    Estimated Inhibition Constant, Ki   =    3.44 nM (nanomolar)  [Temperature = 298.15 K]
DOCKED: USER    
DOCKED: USER    (1) Final Intermolecular Energy     =  -13.04 kcal/mol
DOCKED: USER        vdW + Hbond + desolv Energy     =  -13.04 kcal/mol
DOCKED: USER        Electrostatic Energy            =   +0.00 kcal/mol
DOCKED: USER    (2) Final Total Internal Energy     =   -1.33 kcal/mol
DOCKED: USER    (3) Torsional Free Energy           =   +1.49 kcal/mol
DOCKED: USER    (4) Unbound System's Energy  [=(2)] =   -1.33 kcal/mol
DOCKED: USER    
DOCKED: USER    
DOCKED: USER    NEWDPF move ligand.dum.pdbqt
DOCKED: USER    NEWDPF about 0.217000 0.012000 -0.211000
DOCKED: USER    NEWDPF tran0 38.569820 13.361539 122.548894
DOCKED: USER    NEWDPF quaternion0 -0.001692 0.065802 0.943611 0.324446
DOCKED: USER    NEWDPF axisangle0 -0.001789 0.069566 0.997576 142.135986
DOCKED: USER    NEWDPF quat0 -0.001789 0.069566 0.997576 142.135986
DOCKED: USER    NEWDPF dihe0 -41.14 74.97 -9.25 -13.41 121.54 
DOCKED: USER  keepresnum = 1 
DOCKED: USER  
DOCKED: REMARK  Name = 
DOCKED: REMARK  5 active torsions:
DOCKED: REMARK  status: ('A' for Active; 'I' for Inactive)
DOCKED: REMARK    1  A    between atoms: S_2  and  N_3
DOCKED: REMARK    2  A    between atoms: S_2  and  C_10
DOCKED: REMARK    3  A    between atoms: N_3  and  C_4
DOCKED: REMARK    4  A    between atoms: C_12  and  C_13
DOCKED: REMARK    5  A    between atoms: C_14  and  C_15
DOCKED: REMARK                            x       y       z     vdW  Elec       q    Type
DOCKED: REMARK                         _______ _______ _______ _____ _____    ______ ____
DOCKED: USER                              x       y       z     vdW  Elec       q    Type
DOCKED: USER                           _______ _______ _______ _____ _____    ______ ____
DOCKED: ROOT
DOCKED: ATOM      1  C   UNL     1      37.702  15.334 122.208 -0.29 -0.00    +0.000 A 
DOCKED: ATOM      2  C   UNL     1      37.668  13.933 122.214 -0.42 -0.00    +0.000 A 
DOCKED: ATOM      3  C   UNL     1      36.745  13.242 123.027 -0.52 -0.00    +0.000 A 
DOCKED: ATOM      4  C   UNL     1      35.873  13.983 123.841 -0.49 -0.00    +0.000 A 
DOCKED: ATOM      5  C   UNL     1      35.900  15.380 123.827 -0.42 -0.00    +0.000 A 
DOCKED: ATOM      6  C   UNL     1      36.809  16.055 123.011 -0.29 -0.00    +0.000 A 
DOCKED: ATOM      7  CM  UNL     1      36.783  14.654 123.021 +0.00 -0.00    +0.000 AC
DOCKED: ENDROOT
DOCKED: BRANCH   1   8
DOCKED: ATOM      8  O   UNL     1      40.151  15.394 121.099 -0.31 -0.00    +0.000 OA
DOCKED: ATOM      9  S   UNL     1      38.876  16.183 121.205 -0.24 -0.00    +0.000 S 
DOCKED: ATOM     10  O   UNL     1      39.173  17.514 121.834 -0.12 -0.00    +0.000 OA
DOCKED: BRANCH   8  10
DOCKED: ATOM     11  N   UNL     1      38.231  16.434 119.612 -0.11 -0.00    +0.000 N 
DOCKED: ATOM     12  H   UNL     1      38.056  17.359 119.326 +0.00 -0.00    +0.000 HD
DOCKED: BRANCH  10  12
DOCKED: ATOM     13  C   UNL     1      37.938  15.372 118.688 -0.17 -0.00    +0.000 A 
DOCKED: ATOM     14  C   UNL     1      36.966  14.390 118.965 -0.29 -0.00    +0.000 A 
DOCKED: ATOM     15  C   UNL     1      36.701  13.378 118.037 -0.35 -0.00    +0.000 A 
DOCKED: ATOM     16  C   UNL     1      37.403  13.329 116.831 -0.37 -0.00    +0.000 A 
DOCKED: ATOM     17  C   UNL     1      38.374  14.292 116.551 -0.28 -0.00    +0.000 A 
DOCKED: ATOM     18  C   UNL     1      38.643  15.306 117.474 -0.16 -0.00    +0.000 A 
DOCKED: ATOM     19  CM  UNL     1      37.671  14.344 117.757 +0.00 -0.00    +0.000 AC
DOCKED: ENDBRANCH  10  12
DOCKED: ENDBRANCH   8  10
DOCKED: ENDBRANCH   1   8
DOCKED: BRANCH   3  18
DOCKED: ATOM     20  C   UNL     1      36.685  11.760 123.088 -0.68 -0.00    +0.000 C 
DOCKED: ATOM     21  C   UNL     1      36.975  10.960 122.051 -0.56 -0.00    +0.000 C 
DOCKED: BRANCH  19  20
DOCKED: ATOM     22  C   UNL     1      36.916   9.485 122.121 -0.65 -0.00    +0.000 C 
DOCKED: ATOM     23  N   UNL     1      37.024   8.770 123.358 -0.64 -0.00    +0.000 N 
DOCKED: ATOM     24  O   UNL     1      37.069   7.418 123.358 -2.45 -0.00    +0.000 OA
DOCKED: ATOM     25  O   UNL     1      36.738   8.841 121.052 -2.62 -0.00    +0.000 OA
DOCKED: ATOM     26  H   UNL     1      37.066   9.264 124.209 -0.58 -0.00    +0.000 HD
DOCKED: ENDBRANCH  19  20
DOCKED: ENDBRANCH   3  18
DOCKED: TORSDOF 5DOCKED: TER
DOCKED: ENDMDL
________________________________________________________________________________


	BEGINNING GENETIC ALGORITHM DOCKING 52 of 100
Run: 52 Seed: 329719551 427513527 [ Run 52 of 100 GA/GALS ]
Beginning LAMARCKIAN GENETIC ALGORITHM (LGA), with a maximum of 2500000 energy evaluations.

Final-Value: -14.154


	FINAL GENETIC ALGORITHM DOCKED STATE
	_______________________________________________


Detailed state:  trans 37.462 13.609 121.941 quatxyzw 0.717737 -0.377577 -0.539693 -0.225877 center 0.217 0.012 -0.211 ntor 5 152.3167 105.2722 57.2025 -2.9510 -12.5688
State:	 37.462  13.609 121.941   0.737 -0.388 -0.554 -153.891    152.32  105.27   57.20   -2.95  -12.57

DOCKED: MODEL       52
DOCKED: USER    Run = 52
DOCKED: USER    DPF = ligand_dock.biased.dpf
DOCKED: USER  
DOCKED: USER    Estimated Free Energy of Binding    =  -11.35 kcal/mol  [=(1)+(2)+(3)-(4)]
DOCKED: USER    Estimated Inhibition Constant, Ki   =    4.80 nM (nanomolar)  [Temperature = 298.15 K]
DOCKED: USER    
DOCKED: USER    (1) Final Intermolecular Energy     =  -12.84 kcal/mol
DOCKED: USER        vdW + Hbond + desolv Energy     =  -12.84 kcal/mol
DOCKED: USER        Electrostatic Energy            =   +0.00 kcal/mol
DOCKED: USER    (2) Final Total Internal Energy     =   -1.31 kcal/mol
DOCKED: USER    (3) Torsional Free Energy           =   +1.49 kcal/mol
DOCKED: USER    (4) Unbound System's Energy  [=(2)] =   -1.31 kcal/mol
DOCKED: USER    
DOCKED: USER    
DOCKED: USER    NEWDPF move ligand.dum.pdbqt
DOCKED: USER    NEWDPF about 0.217000 0.012000 -0.211000
DOCKED: USER    NEWDPF tran0 37.462073 13.608556 121.940514
DOCKED: USER    NEWDPF quaternion0 0.717737 -0.377577 -0.539693 -0.225877
DOCKED: USER    NEWDPF axisangle0 0.736779 -0.387594 -0.554011 -153.891150
DOCKED: USER    NEWDPF quat0 0.736779 -0.387594 -0.554011 -153.891150
DOCKED: USER    NEWDPF dihe0 152.32 105.27 57.20 -2.95 -12.57 
DOCKED: USER  keepresnum = 1 
DOCKED: USER  
DOCKED: REMARK  Name = 
DOCKED: REMARK  5 active torsions:
DOCKED: REMARK  status: ('A' for Active; 'I' for Inactive)
DOCKED: REMARK    1  A    between atoms: S_2  and  N_3
DOCKED: REMARK    2  A    between atoms: S_2  and  C_10
DOCKED: REMARK    3  A    between atoms: N_3  and  C_4
DOCKED: REMARK    4  A    between atoms: C_12  and  C_13
DOCKED: REMARK    5  A    between atoms: C_14  and  C_15
DOCKED: REMARK                            x       y       z     vdW  Elec       q    Type
DOCKED: REMARK                         _______ _______ _______ _____ _____    ______ ____
DOCKED: USER                              x       y       z     vdW  Elec       q    Type
DOCKED: USER                           _______ _______ _______ _____ _____    ______ ____
DOCKED: ROOT
DOCKED: ATOM      1  C   UNL     1      38.073  15.321 120.735 -0.22 -0.00    +0.000 A 
DOCKED: ATOM      2  C   UNL     1      38.026  13.953 121.038 -0.35 -0.00    +0.000 A 
DOCKED: ATOM      3  C   UNL     1      37.439  13.040 120.138 -0.43 -0.00    +0.000 A 
DOCKED: ATOM      4  C   UNL     1      36.889  13.527 118.941 -0.37 -0.00    +0.000 A 
DOCKED: ATOM      5  C   UNL     1      36.945  14.890 118.635 -0.24 -0.00    +0.000 A 
DOCKED: ATOM      6  C   UNL     1      37.539  15.784 119.526 -0.17 -0.00    +0.000 A 
DOCKED: ATOM      7  CM  UNL     1      37.486  14.419 119.836 +0.00 -0.00    +0.000 AC
DOCKED: ENDROOT
DOCKED: BRANCH   1   8
DOCKED: ATOM      8  O   UNL     1      38.456  17.870 121.504 -0.09 -0.00    +0.000 OA
DOCKED: ATOM      9  S   UNL     1      38.790  16.453 121.880 -0.26 -0.00    +0.000 S 
DOCKED: ATOM     10  O   UNL     1      40.281  16.279 121.859 -0.24 -0.00    +0.000 OA
DOCKED: BRANCH   8  10
DOCKED: ATOM     11  N   UNL     1      38.200  16.138 123.482 -0.29 -0.00    +0.000 N 
DOCKED: ATOM     12  H   UNL     1      38.860  15.970 124.192 -0.00 -0.00    +0.000 HD
DOCKED: BRANCH  10  12
DOCKED: ATOM     13  C   UNL     1      36.805  16.108 123.833 -0.27 -0.00    +0.000 A 
DOCKED: ATOM     14  C   UNL     1      36.064  14.910 123.836 -0.44 -0.00    +0.000 A 
DOCKED: ATOM     15  C   UNL     1      34.711  14.918 124.192 -0.46 -0.00    +0.000 A 
DOCKED: ATOM     16  C   UNL     1      34.084  16.116 124.542 -0.46 -0.00    +0.000 A 
DOCKED: ATOM     17  C   UNL     1      34.808  17.310 124.534 -0.37 -0.00    +0.000 A 
DOCKED: ATOM     18  C   UNL     1      36.160  17.308 124.179 -0.26 -0.00    +0.000 A 
DOCKED: ATOM     19  CM  UNL     1      35.438  16.112 124.186 -0.04 -0.00    +0.000 AC
DOCKED: ENDBRANCH  10  12
DOCKED: ENDBRANCH   8  10
DOCKED: ENDBRANCH   1   8
DOCKED: BRANCH   3  18
DOCKED: ATOM     20  C   UNL     1      37.342  11.587 120.422 -0.36 -0.00    +0.000 C 
DOCKED: ATOM     21  C   UNL     1      37.149  11.079 121.650 -0.43 -0.00    +0.000 C 
DOCKED: BRANCH  19  20
DOCKED: ATOM     22  C   UNL     1      37.051   9.631 121.925 -0.60 -0.00    +0.000 C 
DOCKED: ATOM     23  N   UNL     1      37.049   9.102 123.256 -0.63 -0.00    +0.000 N 
DOCKED: ATOM     24  O   UNL     1      37.063   7.763 123.454 -2.68 -0.00    +0.000 OA
DOCKED: ATOM     25  O   UNL     1      36.939   8.841 120.950 -2.68 -0.00    +0.000 OA
DOCKED: ATOM     26  H   UNL     1      37.039   9.713 124.029 -0.51 -0.00    +0.000 HD
DOCKED: ENDBRANCH  19  20
DOCKED: ENDBRANCH   3  18
DOCKED: TORSDOF 5DOCKED: TER
DOCKED: ENDMDL
________________________________________________________________________________


	BEGINNING GENETIC ALGORITHM DOCKING 53 of 100
Run: 53 Seed: 2055148898 1694565552 [ Run 53 of 100 GA/GALS ]
Beginning LAMARCKIAN GENETIC ALGORITHM (LGA), with a maximum of 2500000 energy evaluations.

Final-Value: -15.263


	FINAL GENETIC ALGORITHM DOCKED STATE
	_______________________________________________


Detailed state:  trans 35.360 13.391 122.818 quatxyzw 0.927020 -0.294334 0.195226 0.126050 center 0.217 0.012 -0.211 ntor 5 18.6756 -101.4178 99.8584 -96.2484 155.9678
State:	 35.360  13.391 122.818   0.934 -0.297  0.197 165.517     18.68 -101.42   99.86  -96.25  155.97

DOCKED: MODEL       53
DOCKED: USER    Run = 53
DOCKED: USER    DPF = ligand_dock.biased.dpf
DOCKED: USER  
DOCKED: USER    Estimated Free Energy of Binding    =  -12.83 kcal/mol  [=(1)+(2)+(3)-(4)]
DOCKED: USER    Estimated Inhibition Constant, Ki   =  393.57 pM (picomolar)  [Temperature = 298.15 K]
DOCKED: USER    
DOCKED: USER    (1) Final Intermolecular Energy     =  -14.32 kcal/mol
DOCKED: USER        vdW + Hbond + desolv Energy     =  -14.32 kcal/mol
DOCKED: USER        Electrostatic Energy            =   +0.00 kcal/mol
DOCKED: USER    (2) Final Total Internal Energy     =   -0.94 kcal/mol
DOCKED: USER    (3) Torsional Free Energy           =   +1.49 kcal/mol
DOCKED: USER    (4) Unbound System's Energy  [=(2)] =   -0.94 kcal/mol
DOCKED: USER    
DOCKED: USER    
DOCKED: USER    NEWDPF move ligand.dum.pdbqt
DOCKED: USER    NEWDPF about 0.217000 0.012000 -0.211000
DOCKED: USER    NEWDPF tran0 35.360351 13.390961 122.818393
DOCKED: USER    NEWDPF quaternion0 0.927020 -0.294334 0.195226 0.126050
DOCKED: USER    NEWDPF axisangle0 0.934473 -0.296701 0.196796 165.517181
DOCKED: USER    NEWDPF quat0 0.934473 -0.296701 0.196796 165.517181
DOCKED: USER    NEWDPF dihe0 18.68 -101.42 99.86 -96.25 155.97 
DOCKED: USER  keepresnum = 1 
DOCKED: USER  
DOCKED: REMARK  Name = 
DOCKED: REMARK  5 active torsions:
DOCKED: REMARK  status: ('A' for Active; 'I' for Inactive)
DOCKED: REMARK    1  A    between atoms: S_2  and  N_3
DOCKED: REMARK    2  A    between atoms: S_2  and  C_10
DOCKED: REMARK    3  A    between atoms: N_3  and  C_4
DOCKED: REMARK    4  A    between atoms: C_12  and  C_13
DOCKED: REMARK    5  A    between atoms: C_14  and  C_15
DOCKED: REMARK                            x       y       z     vdW  Elec       q    Type
DOCKED: REMARK                         _______ _______ _______ _____ _____    ______ ____
DOCKED: USER                              x       y       z     vdW  Elec       q    Type
DOCKED: USER                           _______ _______ _______ _____ _____    ______ ____
DOCKED: ROOT
DOCKED: ATOM      1  C   UNL     1      35.983  15.384 123.450 -0.41 -0.00    +0.000 A 
DOCKED: ATOM      2  C   UNL     1      36.043  13.984 123.478 -0.49 -0.00    +0.000 A 
DOCKED: ATOM      3  C   UNL     1      37.226  13.310 123.111 -0.51 -0.00    +0.000 A 
DOCKED: ATOM      4  C   UNL     1      38.337  14.065 122.703 -0.42 -0.00    +0.000 A 
DOCKED: ATOM      5  C   UNL     1      38.281  15.462 122.686 -0.31 -0.00    +0.000 A 
DOCKED: ATOM      6  C   UNL     1      37.109  16.120 123.062 -0.28 -0.00    +0.000 A 
DOCKED: ATOM      7  CM  UNL     1      37.163  14.721 123.082 +0.00 -0.00    +0.000 AC
DOCKED: ENDROOT
DOCKED: BRANCH   1   8
DOCKED: ATOM      8  O   UNL     1      33.434  15.222 124.290 -0.52 -0.00    +0.000 OA
DOCKED: ATOM      9  S   UNL     1      34.491  16.212 123.889 -0.67 -0.00    +0.000 S 
DOCKED: ATOM     10  O   UNL     1      34.006  16.993 122.701 -0.47 -0.00    +0.000 OA
DOCKED: BRANCH   8  10
DOCKED: ATOM     11  N   UNL     1      34.777  17.301 125.211 -0.36 -0.00    +0.000 N 
DOCKED: ATOM     12  H   UNL     1      35.665  17.719 125.280 -0.01 -0.00    +0.000 HD
DOCKED: BRANCH  10  12
DOCKED: ATOM     13  C   UNL     1      33.794  17.628 126.210 -0.34 -0.00    +0.000 A 
DOCKED: ATOM     14  C   UNL     1      33.252  18.923 126.325 -0.27 -0.00    +0.000 A 
DOCKED: ATOM     15  C   UNL     1      32.291  19.201 127.302 -0.22 -0.00    +0.000 A 
DOCKED: ATOM     16  C   UNL     1      31.867  18.197 128.176 -0.24 -0.00    +0.000 A 
DOCKED: ATOM     17  C   UNL     1      32.405  16.913 128.075 -0.38 -0.00    +0.000 A 
DOCKED: ATOM     18  C   UNL     1      33.365  16.629 127.100 -0.39 -0.00    +0.000 A 
DOCKED: ATOM     19  CM  UNL     1      32.829  17.915 127.198 +0.00 -0.00    +0.000 AC
DOCKED: ENDBRANCH  10  12
DOCKED: ENDBRANCH   8  10
DOCKED: ENDBRANCH   1   8
DOCKED: BRANCH   3  18
DOCKED: ATOM     20  C   UNL     1      37.333  11.830 123.100 -0.52 -0.00    +0.000 C 
DOCKED: ATOM     21  C   UNL     1      36.819  11.053 122.133 -0.60 -0.00    +0.000 C 
DOCKED: BRANCH  19  20
DOCKED: ATOM     22  C   UNL     1      36.931   9.580 122.127 -0.64 -0.00    +0.000 C 
DOCKED: ATOM     23  N   UNL     1      36.865   8.801 123.328 -0.64 -0.00    +0.000 N 
DOCKED: ATOM     24  O   UNL     1      37.077   7.465 123.282 -2.45 -0.00    +0.000 OA
DOCKED: ATOM     25  O   UNL     1      37.064   8.993 121.020 -2.72 -0.00    +0.000 OA
DOCKED: ATOM     26  H   UNL     1      36.664   9.238 124.187 -0.47 -0.00    +0.000 HD
DOCKED: ENDBRANCH  19  20
DOCKED: ENDBRANCH   3  18
DOCKED: TORSDOF 5DOCKED: TER
DOCKED: ENDMDL
________________________________________________________________________________


	BEGINNING GENETIC ALGORITHM DOCKING 54 of 100
Run: 54 Seed: 1261394650 995495251 [ Run 54 of 100 GA/GALS ]
Beginning LAMARCKIAN GENETIC ALGORITHM (LGA), with a maximum of 2500000 energy evaluations.

Final-Value: -14.168


	FINAL GENETIC ALGORITHM DOCKED STATE
	_______________________________________________


Detailed state:  trans 38.264 13.937 122.940 quatxyzw 0.078388 -0.079279 -0.909205 -0.401143 center 0.217 0.012 -0.211 ntor 5 -6.5903 -41.0107 -38.1987 168.1258 -62.5016
State:	 38.264  13.937 122.940   0.086 -0.087 -0.993 -132.701     -6.59  -41.01  -38.20  168.13  -62.50

DOCKED: MODEL       54
DOCKED: USER    Run = 54
DOCKED: USER    DPF = ligand_dock.biased.dpf
DOCKED: USER  
DOCKED: USER    Estimated Free Energy of Binding    =  -11.65 kcal/mol  [=(1)+(2)+(3)-(4)]
DOCKED: USER    Estimated Inhibition Constant, Ki   =    2.87 nM (nanomolar)  [Temperature = 298.15 K]
DOCKED: USER    
DOCKED: USER    (1) Final Intermolecular Energy     =  -13.15 kcal/mol
DOCKED: USER        vdW + Hbond + desolv Energy     =  -13.15 kcal/mol
DOCKED: USER        Electrostatic Energy            =   +0.00 kcal/mol
DOCKED: USER    (2) Final Total Internal Energy     =   -1.02 kcal/mol
DOCKED: USER    (3) Torsional Free Energy           =   +1.49 kcal/mol
DOCKED: USER    (4) Unbound System's Energy  [=(2)] =   -1.02 kcal/mol
DOCKED: USER    
DOCKED: USER    
DOCKED: USER    NEWDPF move ligand.dum.pdbqt
DOCKED: USER    NEWDPF about 0.217000 0.012000 -0.211000
DOCKED: USER    NEWDPF tran0 38.263735 13.937162 122.939667
DOCKED: USER    NEWDPF quaternion0 0.078388 -0.079279 -0.909205 -0.401143
DOCKED: USER    NEWDPF axisangle0 0.085575 -0.086548 -0.992566 -132.700671
DOCKED: USER    NEWDPF quat0 0.085575 -0.086548 -0.992566 -132.700671
DOCKED: USER    NEWDPF dihe0 -6.59 -41.01 -38.20 168.13 -62.50 
DOCKED: USER  keepresnum = 1 
DOCKED: USER  
DOCKED: REMARK  Name = 
DOCKED: REMARK  5 active torsions:
DOCKED: REMARK  status: ('A' for Active; 'I' for Inactive)
DOCKED: REMARK    1  A    between atoms: S_2  and  N_3
DOCKED: REMARK    2  A    between atoms: S_2  and  C_10
DOCKED: REMARK    3  A    between atoms: N_3  and  C_4
DOCKED: REMARK    4  A    between atoms: C_12  and  C_13
DOCKED: REMARK    5  A    between atoms: C_14  and  C_15
DOCKED: REMARK                            x       y       z     vdW  Elec       q    Type
DOCKED: REMARK                         _______ _______ _______ _____ _____    ______ ____
DOCKED: USER                              x       y       z     vdW  Elec       q    Type
DOCKED: USER                           _______ _______ _______ _____ _____    ______ ____
DOCKED: ROOT
DOCKED: ATOM      1  C   UNL     1      37.117  15.738 122.491 -0.28 -0.00    +0.000 A 
DOCKED: ATOM      2  C   UNL     1      37.331  14.353 122.482 -0.40 -0.00    +0.000 A 
DOCKED: ATOM      3  C   UNL     1      36.440  13.486 123.149 -0.51 -0.00    +0.000 A 
DOCKED: ATOM      4  C   UNL     1      35.344  14.036 123.833 -0.40 -0.00    +0.000 A 
DOCKED: ATOM      5  C   UNL     1      35.125  15.416 123.833 -0.49 -0.00    +0.000 A 
DOCKED: ATOM      6  C   UNL     1      36.006  16.265 123.160 -0.33 -0.00    +0.000 A 
DOCKED: ATOM      7  CM  UNL     1      36.227  14.882 123.157 +0.00 -0.00    +0.000 AC
DOCKED: ENDROOT
DOCKED: BRANCH   1   8
DOCKED: ATOM      8  O   UNL     1      37.524  17.954 121.023 -0.10 -0.00    +0.000 OA
DOCKED: ATOM      9  S   UNL     1      38.251  16.810 121.673 -0.21 -0.00    +0.000 S 
DOCKED: ATOM     10  O   UNL     1      38.977  16.028 120.617 -0.17 -0.00    +0.000 OA
DOCKED: BRANCH   8  10
DOCKED: ATOM     11  N   UNL     1      39.402  17.443 122.809 -0.17 -0.00    +0.000 N 
DOCKED: ATOM     12  H   UNL     1      39.068  18.026 123.528 -0.00 -0.00    +0.000 HD
DOCKED: BRANCH  10  12
DOCKED: ATOM     13  C   UNL     1      40.813  17.166 122.762 -0.23 -0.00    +0.000 A 
DOCKED: ATOM     14  C   UNL     1      41.312  15.850 122.713 -0.42 -0.00    +0.000 A 
DOCKED: ATOM     15  C   UNL     1      42.691  15.620 122.657 -0.35 -0.00    +0.000 A 
DOCKED: ATOM     16  C   UNL     1      43.582  16.694 122.657 -0.34 -0.00    +0.000 A 
DOCKED: ATOM     17  C   UNL     1      43.097  18.002 122.715 -0.23 -0.00    +0.000 A 
DOCKED: ATOM     18  C   UNL     1      41.721  18.238 122.769 -0.17 -0.00    +0.000 A 
DOCKED: ATOM     19  CM  UNL     1      42.203  16.929 122.712 +0.00 -0.00    +0.000 AC
DOCKED: ENDBRANCH  10  12
DOCKED: ENDBRANCH   8  10
DOCKED: ENDBRANCH   1   8
DOCKED: BRANCH   3  18
DOCKED: ATOM     20  C   UNL     1      36.636  12.015 123.191 -0.68 -0.00    +0.000 C 
DOCKED: ATOM     21  C   UNL     1      36.664  11.236 122.098 -0.63 -0.00    +0.000 C 
DOCKED: BRANCH  19  20
DOCKED: ATOM     22  C   UNL     1      36.862   9.772 122.148 -0.64 -0.00    +0.000 C 
DOCKED: ATOM     23  N   UNL     1      36.805   9.032 123.373 -0.59 -0.00    +0.000 N 
DOCKED: ATOM     24  O   UNL     1      37.097   7.711 123.381 -2.65 -0.00    +0.000 OA
DOCKED: ATOM     25  O   UNL     1      37.062   9.157 121.067 -2.73 -0.00    +0.000 OA
DOCKED: ATOM     26  H   UNL     1      36.554   9.485 124.211 -0.43 -0.00    +0.000 HD
DOCKED: ENDBRANCH  19  20
DOCKED: ENDBRANCH   3  18
DOCKED: TORSDOF 5DOCKED: TER
DOCKED: ENDMDL
________________________________________________________________________________


	BEGINNING GENETIC ALGORITHM DOCKING 55 of 100
Run: 55 Seed: 1240402609 1105339120 [ Run 55 of 100 GA/GALS ]
Beginning LAMARCKIAN GENETIC ALGORITHM (LGA), with a maximum of 2500000 energy evaluations.

Final-Value: -14.696


	FINAL GENETIC ALGORITHM DOCKED STATE
	_______________________________________________


Detailed state:  trans 35.021 13.741 122.790 quatxyzw 0.875172 -0.385461 0.256254 0.140809 center 0.217 0.012 -0.211 ntor 5 -71.2864 39.8579 165.2111 179.4370 83.3034
State:	 35.021  13.741 122.790   0.884 -0.389  0.259 163.811    -71.29   39.86  165.21  179.44   83.30

DOCKED: MODEL       55
DOCKED: USER    Run = 55
DOCKED: USER    DPF = ligand_dock.biased.dpf
DOCKED: USER  
DOCKED: USER    Estimated Free Energy of Binding    =  -12.32 kcal/mol  [=(1)+(2)+(3)-(4)]
DOCKED: USER    Estimated Inhibition Constant, Ki   =  937.08 pM (picomolar)  [Temperature = 298.15 K]
DOCKED: USER    
DOCKED: USER    (1) Final Intermolecular Energy     =  -13.81 kcal/mol
DOCKED: USER        vdW + Hbond + desolv Energy     =  -13.81 kcal/mol
DOCKED: USER        Electrostatic Energy            =   +0.00 kcal/mol
DOCKED: USER    (2) Final Total Internal Energy     =   -0.89 kcal/mol
DOCKED: USER    (3) Torsional Free Energy           =   +1.49 kcal/mol
DOCKED: USER    (4) Unbound System's Energy  [=(2)] =   -0.89 kcal/mol
DOCKED: USER    
DOCKED: USER    
DOCKED: USER    NEWDPF move ligand.dum.pdbqt
DOCKED: USER    NEWDPF about 0.217000 0.012000 -0.211000
DOCKED: USER    NEWDPF tran0 35.021375 13.741429 122.790350
DOCKED: USER    NEWDPF quaternion0 0.875172 -0.385461 0.256254 0.140809
DOCKED: USER    NEWDPF axisangle0 0.883979 -0.389340 0.258833 163.810648
DOCKED: USER    NEWDPF quat0 0.883979 -0.389340 0.258833 163.810648
DOCKED: USER    NEWDPF dihe0 -71.29 39.86 165.21 179.44 83.30 
DOCKED: USER  keepresnum = 1 
DOCKED: USER  
DOCKED: REMARK  Name = 
DOCKED: REMARK  5 active torsions:
DOCKED: REMARK  status: ('A' for Active; 'I' for Inactive)
DOCKED: REMARK    1  A    between atoms: S_2  and  N_3
DOCKED: REMARK    2  A    between atoms: S_2  and  C_10
DOCKED: REMARK    3  A    between atoms: N_3  and  C_4
DOCKED: REMARK    4  A    between atoms: C_12  and  C_13
DOCKED: REMARK    5  A    between atoms: C_14  and  C_15
DOCKED: REMARK                            x       y       z     vdW  Elec       q    Type
DOCKED: REMARK                         _______ _______ _______ _____ _____    ______ ____
DOCKED: USER                              x       y       z     vdW  Elec       q    Type
DOCKED: USER                           _______ _______ _______ _____ _____    ______ ____
DOCKED: ROOT
DOCKED: ATOM      1  C   UNL     1      35.958  15.542 123.592 -0.40 -0.00    +0.000 A 
DOCKED: ATOM      2  C   UNL     1      35.725  14.160 123.553 -0.46 -0.00    +0.000 A 
DOCKED: ATOM      3  C   UNL     1      36.781  13.262 123.289 -0.53 -0.00    +0.000 A 
DOCKED: ATOM      4  C   UNL     1      38.065  13.779 123.051 -0.44 -0.00    +0.000 A 
DOCKED: ATOM      5  C   UNL     1      38.299  15.156 123.100 -0.29 -0.00    +0.000 A 
DOCKED: ATOM      6  C   UNL     1      37.250  16.035 123.374 -0.29 -0.00    +0.000 A 
DOCKED: ATOM      7  CM  UNL     1      37.013  14.655 123.327 +0.00 -0.00    +0.000 AC
DOCKED: ENDROOT
DOCKED: BRANCH   1   8
DOCKED: ATOM      8  O   UNL     1      33.700  16.712 122.717 -0.40 -0.00    +0.000 OA
DOCKED: ATOM      9  S   UNL     1      34.625  16.652 123.900 -0.60 -0.00    +0.000 S 
DOCKED: ATOM     10  O   UNL     1      35.187  18.021 124.153 -0.31 -0.00    +0.000 OA
DOCKED: BRANCH   8  10
DOCKED: ATOM     11  N   UNL     1      33.727  16.136 125.295 -0.46 -0.00    +0.000 N 
DOCKED: ATOM     12  H   UNL     1      33.397  15.209 125.315 -0.12 -0.00    +0.000 HD
DOCKED: BRANCH  10  12
DOCKED: ATOM     13  C   UNL     1      33.436  16.983 126.421 -0.31 -0.00    +0.000 A 
DOCKED: ATOM     14  C   UNL     1      33.327  18.381 126.293 -0.29 -0.00    +0.000 A 
DOCKED: ATOM     15  C   UNL     1      33.033  19.171 127.409 -0.19 -0.00    +0.000 A 
DOCKED: ATOM     16  C   UNL     1      32.853  18.579 128.661 -0.15 -0.00    +0.000 A 
DOCKED: ATOM     17  C   UNL     1      32.969  17.194 128.800 -0.30 -0.00    +0.000 A 
DOCKED: ATOM     18  C   UNL     1      33.261  16.400 127.688 -0.39 -0.00    +0.000 A 
DOCKED: ATOM     19  CM  UNL     1      33.147  17.784 127.546 +0.00 -0.00    +0.000 AC
DOCKED: ENDBRANCH  10  12
DOCKED: ENDBRANCH   8  10
DOCKED: ENDBRANCH   1   8
DOCKED: BRANCH   3  18
DOCKED: ATOM     20  C   UNL     1      36.582  11.794 123.213 -0.69 -0.00    +0.000 C 
DOCKED: ATOM     21  C   UNL     1      37.221  11.000 122.339 -0.34 -0.00    +0.000 C 
DOCKED: BRANCH  19  20
DOCKED: ATOM     22  C   UNL     1      37.019   9.538 122.270 -0.62 -0.00    +0.000 C 
DOCKED: ATOM     23  N   UNL     1      37.154   8.690 123.418 -0.63 -0.00    +0.000 N 
DOCKED: ATOM     24  O   UNL     1      37.063   7.347 123.282 -2.38 -0.00    +0.000 OA
DOCKED: ATOM     25  O   UNL     1      36.691   9.029 121.165 -2.62 -0.00    +0.000 OA
DOCKED: ATOM     26  H   UNL     1      37.315   9.086 124.305 -0.59 -0.00    +0.000 HD
DOCKED: ENDBRANCH  19  20
DOCKED: ENDBRANCH   3  18
DOCKED: TORSDOF 5DOCKED: TER
DOCKED: ENDMDL
________________________________________________________________________________


	BEGINNING GENETIC ALGORITHM DOCKING 56 of 100
Run: 56 Seed: 1018942504 1072863721 [ Run 56 of 100 GA/GALS ]
Beginning LAMARCKIAN GENETIC ALGORITHM (LGA), with a maximum of 2500000 energy evaluations.

Final-Value: -14.631


	FINAL GENETIC ALGORITHM DOCKED STATE
	_______________________________________________


Detailed state:  trans 34.852 13.546 123.623 quatxyzw 0.940781 -0.337828 -0.028324 -0.000675 center 0.217 0.012 -0.211 ntor 5 -30.7516 97.9592 168.2591 99.9532 160.6836
State:	 34.852  13.546 123.623   0.941 -0.338 -0.028 -179.923    -30.75   97.96  168.26   99.95  160.68

DOCKED: MODEL       56
DOCKED: USER    Run = 56
DOCKED: USER    DPF = ligand_dock.biased.dpf
DOCKED: USER  
DOCKED: USER    Estimated Free Energy of Binding    =  -11.99 kcal/mol  [=(1)+(2)+(3)-(4)]
DOCKED: USER    Estimated Inhibition Constant, Ki   =    1.62 nM (nanomolar)  [Temperature = 298.15 K]
DOCKED: USER    
DOCKED: USER    (1) Final Intermolecular Energy     =  -13.49 kcal/mol
DOCKED: USER        vdW + Hbond + desolv Energy     =  -13.49 kcal/mol
DOCKED: USER        Electrostatic Energy            =   +0.00 kcal/mol
DOCKED: USER    (2) Final Total Internal Energy     =   -1.15 kcal/mol
DOCKED: USER    (3) Torsional Free Energy           =   +1.49 kcal/mol
DOCKED: USER    (4) Unbound System's Energy  [=(2)] =   -1.15 kcal/mol
DOCKED: USER    
DOCKED: USER    
DOCKED: USER    NEWDPF move ligand.dum.pdbqt
DOCKED: USER    NEWDPF about 0.217000 0.012000 -0.211000
DOCKED: USER    NEWDPF tran0 34.851844 13.546158 123.622801
DOCKED: USER    NEWDPF quaternion0 0.940781 -0.337828 -0.028324 -0.000675
DOCKED: USER    NEWDPF axisangle0 0.940782 -0.337828 -0.028324 -179.922636
DOCKED: USER    NEWDPF quat0 0.940782 -0.337828 -0.028324 -179.922636
DOCKED: USER    NEWDPF dihe0 -30.75 97.96 168.26 99.95 160.68 
DOCKED: USER  keepresnum = 1 
DOCKED: USER  
DOCKED: REMARK  Name = 
DOCKED: REMARK  5 active torsions:
DOCKED: REMARK  status: ('A' for Active; 'I' for Inactive)
DOCKED: REMARK    1  A    between atoms: S_2  and  N_3
DOCKED: REMARK    2  A    between atoms: S_2  and  C_10
DOCKED: REMARK    3  A    between atoms: N_3  and  C_4
DOCKED: REMARK    4  A    between atoms: C_12  and  C_13
DOCKED: REMARK    5  A    between atoms: C_14  and  C_15
DOCKED: REMARK                            x       y       z     vdW  Elec       q    Type
DOCKED: REMARK                         _______ _______ _______ _____ _____    ______ ____
DOCKED: USER                              x       y       z     vdW  Elec       q    Type
DOCKED: USER                           _______ _______ _______ _____ _____    ______ ____
DOCKED: ROOT
DOCKED: ATOM      1  C   UNL     1      35.785  15.518 123.663 -0.42 -0.00    +0.000 A 
DOCKED: ATOM      2  C   UNL     1      35.793  14.123 123.803 -0.49 -0.00    +0.000 A 
DOCKED: ATOM      3  C   UNL     1      36.616  13.325 122.980 -0.51 -0.00    +0.000 A 
DOCKED: ATOM      4  C   UNL     1      37.413  13.952 122.009 -0.40 -0.00    +0.000 A 
DOCKED: ATOM      5  C   UNL     1      37.412  15.343 121.876 -0.27 -0.00    +0.000 A 
DOCKED: ATOM      6  C   UNL     1      36.604  16.125 122.703 -0.28 -0.00    +0.000 A 
DOCKED: ATOM      7  CM  UNL     1      36.604  14.731 122.840 +0.00 -0.00    +0.000 AC
DOCKED: ENDROOT
DOCKED: BRANCH   1   8
DOCKED: ATOM      8  O   UNL     1      34.059  15.649 125.721 -0.81 -0.00    +0.000 OA
DOCKED: ATOM      9  S   UNL     1      34.736  16.500 124.683 -0.61 -0.00    +0.000 S 
DOCKED: ATOM     10  O   UNL     1      33.690  17.143 123.818 -0.43 -0.00    +0.000 OA
DOCKED: BRANCH   8  10
DOCKED: ATOM     11  N   UNL     1      35.660  17.736 125.478 -0.23 -0.00    +0.000 N 
DOCKED: ATOM     12  H   UNL     1      35.525  17.864 126.444 -0.01 -0.00    +0.000 HD
DOCKED: BRANCH  10  12
DOCKED: ATOM     13  C   UNL     1      36.611  18.584 124.808 -0.18 -0.00    +0.000 A 
DOCKED: ATOM     14  C   UNL     1      36.222  19.774 124.164 -0.16 -0.00    +0.000 A 
DOCKED: ATOM     15  C   UNL     1      37.176  20.579 123.532 -0.11 -0.00    +0.000 A 
DOCKED: ATOM     16  C   UNL     1      38.521  20.204 123.531 -0.05 -0.00    +0.000 A 
DOCKED: ATOM     17  C   UNL     1      38.915  19.021 124.159 -0.12 -0.00    +0.000 A 
DOCKED: ATOM     18  C   UNL     1      37.966  18.213 124.792 -0.15 -0.00    +0.000 A 
DOCKED: ATOM     19  CM  UNL     1      37.569  19.396 124.164 +0.00 -0.00    +0.000 AC
DOCKED: ENDBRANCH  10  12
DOCKED: ENDBRANCH   8  10
DOCKED: ENDBRANCH   1   8
DOCKED: BRANCH   3  18
DOCKED: ATOM     20  C   UNL     1      36.642  11.844 123.071 -0.68 -0.00    +0.000 C 
DOCKED: ATOM     21  C   UNL     1      36.818  11.036 122.015 -0.60 -0.00    +0.000 C 
DOCKED: BRANCH  19  20
DOCKED: ATOM     22  C   UNL     1      36.846   9.562 122.114 -0.66 -0.00    +0.000 C 
DOCKED: ATOM     23  N   UNL     1      36.955   8.880 123.369 -0.62 -0.00    +0.000 N 
DOCKED: ATOM     24  O   UNL     1      37.082   7.533 123.400 -2.54 -0.00    +0.000 OA
DOCKED: ATOM     25  O   UNL     1      36.743   8.887 121.055 -2.63 -0.00    +0.000 OA
DOCKED: ATOM     26  H   UNL     1      36.939   9.391 124.210 -0.55 -0.00    +0.000 HD
DOCKED: ENDBRANCH  19  20
DOCKED: ENDBRANCH   3  18
DOCKED: TORSDOF 5DOCKED: TER
DOCKED: ENDMDL
________________________________________________________________________________


	BEGINNING GENETIC ALGORITHM DOCKING 57 of 100
Run: 57 Seed: 339253210 1919415546 [ Run 57 of 100 GA/GALS ]
Beginning LAMARCKIAN GENETIC ALGORITHM (LGA), with a maximum of 2500000 energy evaluations.

Final-Value: -13.406


	FINAL GENETIC ALGORITHM DOCKED STATE
	_______________________________________________


Detailed state:  trans 38.509 13.985 122.096 quatxyzw 0.049316 0.069823 -0.904124 -0.418631 center 0.217 0.012 -0.211 ntor 5 130.3888 115.1826 -166.5267 41.7664 90.7999
State:	 38.509  13.985 122.096   0.054  0.077 -0.996 -130.504    130.39  115.18 -166.53   41.77   90.80

DOCKED: MODEL       57
DOCKED: USER    Run = 57
DOCKED: USER    DPF = ligand_dock.biased.dpf
DOCKED: USER  
DOCKED: USER    Estimated Free Energy of Binding    =  -10.57 kcal/mol  [=(1)+(2)+(3)-(4)]
DOCKED: USER    Estimated Inhibition Constant, Ki   =   17.83 nM (nanomolar)  [Temperature = 298.15 K]
DOCKED: USER    
DOCKED: USER    (1) Final Intermolecular Energy     =  -12.06 kcal/mol
DOCKED: USER        vdW + Hbond + desolv Energy     =  -12.06 kcal/mol
DOCKED: USER        Electrostatic Energy            =   +0.00 kcal/mol
DOCKED: USER    (2) Final Total Internal Energy     =   -1.34 kcal/mol
DOCKED: USER    (3) Torsional Free Energy           =   +1.49 kcal/mol
DOCKED: USER    (4) Unbound System's Energy  [=(2)] =   -1.34 kcal/mol
DOCKED: USER    
DOCKED: USER    
DOCKED: USER    NEWDPF move ligand.dum.pdbqt
DOCKED: USER    NEWDPF about 0.217000 0.012000 -0.211000
DOCKED: USER    NEWDPF tran0 38.509006 13.984516 122.095909
DOCKED: USER    NEWDPF quaternion0 0.049316 0.069823 -0.904124 -0.418631
DOCKED: USER    NEWDPF axisangle0 0.054303 0.076884 -0.995560 -130.503584
DOCKED: USER    NEWDPF quat0 0.054303 0.076884 -0.995560 -130.503584
DOCKED: USER    NEWDPF dihe0 130.39 115.18 -166.53 41.77 90.80 
DOCKED: USER  keepresnum = 1 
DOCKED: USER  
DOCKED: REMARK  Name = 
DOCKED: REMARK  5 active torsions:
DOCKED: REMARK  status: ('A' for Active; 'I' for Inactive)
DOCKED: REMARK    1  A    between atoms: S_2  and  N_3
DOCKED: REMARK    2  A    between atoms: S_2  and  C_10
DOCKED: REMARK    3  A    between atoms: N_3  and  C_4
DOCKED: REMARK    4  A    between atoms: C_12  and  C_13
DOCKED: REMARK    5  A    between atoms: C_14  and  C_15
DOCKED: REMARK                            x       y       z     vdW  Elec       q    Type
DOCKED: REMARK                         _______ _______ _______ _____ _____    ______ ____
DOCKED: USER                              x       y       z     vdW  Elec       q    Type
DOCKED: USER                           _______ _______ _______ _____ _____    ______ ____
DOCKED: ROOT
DOCKED: ATOM      1  C   UNL     1      37.242  15.749 122.301 -0.26 -0.00    +0.000 A 
DOCKED: ATOM      2  C   UNL     1      37.496  14.425 121.916 -0.35 -0.00    +0.000 A 
DOCKED: ATOM      3  C   UNL     1      36.768  13.360 122.487 -0.46 -0.00    +0.000 A 
DOCKED: ATOM      4  C   UNL     1      35.795  13.649 123.457 -0.47 -0.00    +0.000 A 
DOCKED: ATOM      5  C   UNL     1      35.535  14.970 123.833 -0.48 -0.00    +0.000 A 
DOCKED: ATOM      6  C   UNL     1      36.252  16.017 123.254 -0.34 -0.00    +0.000 A 
DOCKED: ATOM      7  CM  UNL     1      36.515  14.695 122.874 +0.00 -0.00    +0.000 AC
DOCKED: ENDROOT
DOCKED: BRANCH   1   8
DOCKED: ATOM      8  O   UNL     1      39.627  16.946 121.969 -0.17 -0.00    +0.000 OA
DOCKED: ATOM      9  S   UNL     1      38.175  17.067 121.596 -0.18 -0.00    +0.000 S 
DOCKED: ATOM     10  O   UNL     1      37.641  18.369 122.119 -0.11 -0.00    +0.000 OA
DOCKED: BRANCH   8  10
DOCKED: ATOM     11  N   UNL     1      38.031  17.043 119.866 -0.08 -0.00    +0.000 N 
DOCKED: ATOM     12  H   UNL     1      38.372  17.818 119.363 +0.00 -0.00    +0.000 HD
DOCKED: BRANCH  10  12
DOCKED: ATOM     13  C   UNL     1      37.445  15.959 119.123 -0.15 -0.00    +0.000 A 
DOCKED: ATOM     14  C   UNL     1      36.145  16.042 118.586 -0.15 -0.00    +0.000 A 
DOCKED: ATOM     15  C   UNL     1      35.611  14.972 117.861 -0.21 -0.00    +0.000 A 
DOCKED: ATOM     16  C   UNL     1      36.362  13.810 117.669 -0.35 -0.00    +0.000 A 
DOCKED: ATOM     17  C   UNL     1      37.648  13.715 118.205 -0.30 -0.00    +0.000 A 
DOCKED: ATOM     18  C   UNL     1      38.186  14.782 118.930 -0.20 -0.00    +0.000 A 
DOCKED: ATOM     19  CM  UNL     1      36.900  14.880 118.396 +0.00 -0.00    +0.000 AC
DOCKED: ENDBRANCH  10  12
DOCKED: ENDBRANCH   8  10
DOCKED: ENDBRANCH   1   8
DOCKED: BRANCH   3  18
DOCKED: ATOM     20  C   UNL     1      37.016  11.941 122.132 -0.59 -0.00    +0.000 C 
DOCKED: ATOM     21  C   UNL     1      36.469  10.903 122.785 -0.68 -0.00    +0.000 C 
DOCKED: BRANCH  19  20
DOCKED: ATOM     22  C   UNL     1      36.720   9.492 122.424 -0.71 -0.00    +0.000 C 
DOCKED: ATOM     23  N   UNL     1      36.729   8.442 123.398 -0.67 -0.00    +0.000 N 
DOCKED: ATOM     24  O   UNL     1      37.067   7.183 123.035 -2.12 -0.00    +0.000 OA
DOCKED: ATOM     25  O   UNL     1      36.906   9.207 121.211 -2.69 -0.00    +0.000 OA
DOCKED: ATOM     26  H   UNL     1      36.490   8.637 124.334 -0.33 -0.00    +0.000 HD
DOCKED: ENDBRANCH  19  20
DOCKED: ENDBRANCH   3  18
DOCKED: TORSDOF 5DOCKED: TER
DOCKED: ENDMDL
________________________________________________________________________________


	BEGINNING GENETIC ALGORITHM DOCKING 58 of 100
Run: 58 Seed: 689748012 1569230191 [ Run 58 of 100 GA/GALS ]
Beginning LAMARCKIAN GENETIC ALGORITHM (LGA), with a maximum of 2500000 energy evaluations.

Final-Value: -14.617


	FINAL GENETIC ALGORITHM DOCKED STATE
	_______________________________________________


Detailed state:  trans 35.307 13.560 122.882 quatxyzw 0.930427 -0.303905 0.172302 0.110720 center 0.217 0.012 -0.211 ntor 5 12.2289 129.8645 102.7464 -79.3511 -179.9773
State:	 35.307  13.560 122.882   0.936 -0.306  0.173 167.286     12.23  129.86  102.75  -79.35 -179.98

DOCKED: MODEL       58
DOCKED: USER    Run = 58
DOCKED: USER    DPF = ligand_dock.biased.dpf
DOCKED: USER  
DOCKED: USER    Estimated Free Energy of Binding    =  -12.17 kcal/mol  [=(1)+(2)+(3)-(4)]
DOCKED: USER    Estimated Inhibition Constant, Ki   =    1.21 nM (nanomolar)  [Temperature = 298.15 K]
DOCKED: USER    
DOCKED: USER    (1) Final Intermolecular Energy     =  -13.66 kcal/mol
DOCKED: USER        vdW + Hbond + desolv Energy     =  -13.66 kcal/mol
DOCKED: USER        Electrostatic Energy            =   +0.00 kcal/mol
DOCKED: USER    (2) Final Total Internal Energy     =   -0.96 kcal/mol
DOCKED: USER    (3) Torsional Free Energy           =   +1.49 kcal/mol
DOCKED: USER    (4) Unbound System's Energy  [=(2)] =   -0.96 kcal/mol
DOCKED: USER    
DOCKED: USER    
DOCKED: USER    NEWDPF move ligand.dum.pdbqt
DOCKED: USER    NEWDPF about 0.217000 0.012000 -0.211000
DOCKED: USER    NEWDPF tran0 35.306836 13.560364 122.882213
DOCKED: USER    NEWDPF quaternion0 0.930427 -0.303905 0.172302 0.110720
DOCKED: USER    NEWDPF axisangle0 0.936183 -0.305785 0.173368 167.286396
DOCKED: USER    NEWDPF quat0 0.936183 -0.305785 0.173368 167.286396
DOCKED: USER    NEWDPF dihe0 12.23 129.86 102.75 -79.35 -179.98 
DOCKED: USER  keepresnum = 1 
DOCKED: USER  
DOCKED: REMARK  Name = 
DOCKED: REMARK  5 active torsions:
DOCKED: REMARK  status: ('A' for Active; 'I' for Inactive)
DOCKED: REMARK    1  A    between atoms: S_2  and  N_3
DOCKED: REMARK    2  A    between atoms: S_2  and  C_10
DOCKED: REMARK    3  A    between atoms: N_3  and  C_4
DOCKED: REMARK    4  A    between atoms: C_12  and  C_13
DOCKED: REMARK    5  A    between atoms: C_14  and  C_15
DOCKED: REMARK                            x       y       z     vdW  Elec       q    Type
DOCKED: REMARK                         _______ _______ _______ _____ _____    ______ ____
DOCKED: USER                              x       y       z     vdW  Elec       q    Type
DOCKED: USER                           _______ _______ _______ _____ _____    ______ ____
DOCKED: ROOT
DOCKED: ATOM      1  C   UNL     1      35.994  15.551 123.454 -0.40 -0.00    +0.000 A 
DOCKED: ATOM      2  C   UNL     1      36.034  14.150 123.495 -0.48 -0.00    +0.000 A 
DOCKED: ATOM      3  C   UNL     1      37.185  13.452 123.073 -0.50 -0.00    +0.000 A 
DOCKED: ATOM      4  C   UNL     1      38.283  14.185 122.595 -0.42 -0.00    +0.000 A 
DOCKED: ATOM      5  C   UNL     1      38.248  15.582 122.563 -0.29 -0.00    +0.000 A 
DOCKED: ATOM      6  C   UNL     1      37.109  16.264 122.995 -0.27 -0.00    +0.000 A 
DOCKED: ATOM      7  CM  UNL     1      37.142  14.863 123.030 +0.00 -0.00    +0.000 AC
DOCKED: ENDROOT
DOCKED: BRANCH   1   8
DOCKED: ATOM      8  O   UNL     1      33.754  15.580 124.940 -0.68 -0.00    +0.000 OA
DOCKED: ATOM      9  S   UNL     1      34.542  16.407 123.964 -0.64 -0.00    +0.000 S 
DOCKED: ATOM     10  O   UNL     1      33.694  16.679 122.754 -0.39 -0.00    +0.000 OA
DOCKED: BRANCH   8  10
DOCKED: ATOM     11  N   UNL     1      34.968  17.914 124.713 -0.31 -0.00    +0.000 N 
DOCKED: ATOM     12  H   UNL     1      35.615  18.494 124.249 -0.00 -0.00    +0.000 HD
DOCKED: BRANCH  10  12
DOCKED: ATOM     13  C   UNL     1      34.434  18.366 125.970 -0.28 -0.00    +0.000 A 
DOCKED: ATOM     14  C   UNL     1      35.256  18.588 127.092 -0.16 -0.00    +0.000 A 
DOCKED: ATOM     15  C   UNL     1      34.702  19.037 128.295 -0.11 -0.00    +0.000 A 
DOCKED: ATOM     16  C   UNL     1      33.328  19.262 128.395 -0.11 -0.00    +0.000 A 
DOCKED: ATOM     17  C   UNL     1      32.503  19.036 127.291 -0.22 -0.00    +0.000 A 
DOCKED: ATOM     18  C   UNL     1      33.052  18.588 126.086 -0.25 -0.00    +0.000 A 
DOCKED: ATOM     19  CM  UNL     1      33.879  18.813 127.188 -0.00 -0.00    +0.000 AC
DOCKED: ENDBRANCH  10  12
DOCKED: ENDBRANCH   8  10
DOCKED: ENDBRANCH   1   8
DOCKED: BRANCH   3  18
DOCKED: ATOM     20  C   UNL     1      37.267  11.970 123.074 -0.57 -0.00    +0.000 C 
DOCKED: ATOM     21  C   UNL     1      36.736  11.194 122.117 -0.62 -0.00    +0.000 C 
DOCKED: BRANCH  19  20
DOCKED: ATOM     22  C   UNL     1      36.824   9.719 122.123 -0.65 -0.00    +0.000 C 
DOCKED: ATOM     23  N   UNL     1      36.887   8.960 123.337 -0.61 -0.00    +0.000 N 
DOCKED: ATOM     24  O   UNL     1      37.073   7.621 123.289 -2.55 -0.00    +0.000 OA
DOCKED: ATOM     25  O   UNL     1      36.818   9.113 121.019 -2.65 -0.00    +0.000 OA
DOCKED: ATOM     26  H   UNL     1      36.796   9.414 124.206 -0.51 -0.00    +0.000 HD
DOCKED: ENDBRANCH  19  20
DOCKED: ENDBRANCH   3  18
DOCKED: TORSDOF 5DOCKED: TER
DOCKED: ENDMDL
________________________________________________________________________________


	BEGINNING GENETIC ALGORITHM DOCKING 59 of 100
Run: 59 Seed: 36035841 372439447 [ Run 59 of 100 GA/GALS ]
Beginning LAMARCKIAN GENETIC ALGORITHM (LGA), with a maximum of 2500000 energy evaluations.

Final-Value: -13.203


	FINAL GENETIC ALGORITHM DOCKED STATE
	_______________________________________________


Detailed state:  trans 37.937 13.558 120.310 quatxyzw -0.284052 0.137513 -0.891710 -0.324434 center 0.217 0.012 -0.211 ntor 5 -180.0000 161.5401 170.4460 141.7930 -9.4244
State:	 37.937  13.558 120.310  -0.300  0.145 -0.943 -142.137   -180.00  161.54  170.45  141.79   -9.42

DOCKED: MODEL       59
DOCKED: USER    Run = 59
DOCKED: USER    DPF = ligand_dock.biased.dpf
DOCKED: USER  
DOCKED: USER    Estimated Free Energy of Binding    =  -10.62 kcal/mol  [=(1)+(2)+(3)-(4)]
DOCKED: USER    Estimated Inhibition Constant, Ki   =   16.50 nM (nanomolar)  [Temperature = 298.15 K]
DOCKED: USER    
DOCKED: USER    (1) Final Intermolecular Energy     =  -12.11 kcal/mol
DOCKED: USER        vdW + Hbond + desolv Energy     =  -12.11 kcal/mol
DOCKED: USER        Electrostatic Energy            =   +0.00 kcal/mol
DOCKED: USER    (2) Final Total Internal Energy     =   -1.09 kcal/mol
DOCKED: USER    (3) Torsional Free Energy           =   +1.49 kcal/mol
DOCKED: USER    (4) Unbound System's Energy  [=(2)] =   -1.09 kcal/mol
DOCKED: USER    
DOCKED: USER    
DOCKED: USER    NEWDPF move ligand.dum.pdbqt
DOCKED: USER    NEWDPF about 0.217000 0.012000 -0.211000
DOCKED: USER    NEWDPF tran0 37.936788 13.557836 120.309687
DOCKED: USER    NEWDPF quaternion0 -0.284052 0.137513 -0.891710 -0.324434
DOCKED: USER    NEWDPF axisangle0 -0.300295 0.145377 -0.942703 -142.137451
DOCKED: USER    NEWDPF quat0 -0.300295 0.145377 -0.942703 -142.137451
DOCKED: USER    NEWDPF dihe0 -180.00 161.54 170.45 141.79 -9.42 
DOCKED: USER  keepresnum = 1 
DOCKED: USER  
DOCKED: REMARK  Name = 
DOCKED: REMARK  5 active torsions:
DOCKED: REMARK  status: ('A' for Active; 'I' for Inactive)
DOCKED: REMARK    1  A    between atoms: S_2  and  N_3
DOCKED: REMARK    2  A    between atoms: S_2  and  C_10
DOCKED: REMARK    3  A    between atoms: N_3  and  C_4
DOCKED: REMARK    4  A    between atoms: C_12  and  C_13
DOCKED: REMARK    5  A    between atoms: C_14  and  C_15
DOCKED: REMARK                            x       y       z     vdW  Elec       q    Type
DOCKED: REMARK                         _______ _______ _______ _____ _____    ______ ____
DOCKED: USER                              x       y       z     vdW  Elec       q    Type
DOCKED: USER                           _______ _______ _______ _____ _____    ______ ____
DOCKED: ROOT
DOCKED: ATOM      1  C   UNL     1      37.183  15.503 120.950 -0.21 -0.00    +0.000 A 
DOCKED: ATOM      2  C   UNL     1      37.066  14.124 120.726 -0.26 -0.00    +0.000 A 
DOCKED: ATOM      3  C   UNL     1      36.815  13.243 121.798 -0.37 -0.00    +0.000 A 
DOCKED: ATOM      4  C   UNL     1      36.701  13.769 123.095 -0.49 -0.00    +0.000 A 
DOCKED: ATOM      5  C   UNL     1      36.807  15.145 123.316 -0.37 -0.00    +0.000 A 
DOCKED: ATOM      6  C   UNL     1      37.044  16.011 122.247 -0.24 -0.00    +0.000 A 
DOCKED: ATOM      7  CM  UNL     1      36.936  14.632 122.022 +0.00 -0.00    +0.000 AC
DOCKED: ENDROOT
DOCKED: BRANCH   1   8
DOCKED: ATOM      8  O   UNL     1      37.984  17.927 120.106 -0.06 -0.00    +0.000 OA
DOCKED: ATOM      9  S   UNL     1      37.519  16.589 119.604 -0.17 -0.00    +0.000 S 
DOCKED: ATOM     10  O   UNL     1      36.259  16.774 118.809 -0.16 -0.00    +0.000 OA
DOCKED: BRANCH   8  10
DOCKED: ATOM     11  N   UNL     1      38.747  15.911 118.580 -0.14 -0.00    +0.000 N 
DOCKED: ATOM     12  H   UNL     1      39.685  16.135 118.773 -0.01 -0.00    +0.000 HD
DOCKED: BRANCH  10  12
DOCKED: ATOM     13  C   UNL     1      38.474  15.042 117.466 -0.18 -0.00    +0.000 A 
DOCKED: ATOM     14  C   UNL     1      39.303  15.008 116.327 -0.24 -0.00    +0.000 A 
DOCKED: ATOM     15  C   UNL     1      39.012  14.142 115.268 -0.38 -0.00    +0.000 A 
DOCKED: ATOM     16  C   UNL     1      37.892  13.310 115.329 -0.43 -0.00    +0.000 A 
DOCKED: ATOM     17  C   UNL     1      37.059  13.343 116.449 -0.34 -0.00    +0.000 A 
DOCKED: ATOM     18  C   UNL     1      37.346  14.205 117.511 -0.31 -0.00    +0.000 A 
DOCKED: ATOM     19  CM  UNL     1      38.180  14.175 116.391 +0.00 -0.00    +0.000 AC
DOCKED: ENDBRANCH  10  12
DOCKED: ENDBRANCH   8  10
DOCKED: ENDBRANCH   1   8
DOCKED: BRANCH   3  18
DOCKED: ATOM     20  C   UNL     1      36.707  11.773 121.618 -0.57 -0.00    +0.000 C 
DOCKED: ATOM     21  C   UNL     1      37.086  10.879 122.545 -0.55 -0.00    +0.000 C 
DOCKED: BRANCH  19  20
DOCKED: ATOM     22  C   UNL     1      36.973   9.418 122.358 -0.65 -0.00    +0.000 C 
DOCKED: ATOM     23  N   UNL     1      37.019   8.499 123.457 -0.67 -0.00    +0.000 N 
DOCKED: ATOM     24  O   UNL     1      37.017   7.166 123.226 -2.14 -0.00    +0.000 OA
DOCKED: ATOM     25  O   UNL     1      36.806   8.973 121.192 -2.65 -0.00    +0.000 OA
DOCKED: ATOM     26  H   UNL     1      37.053   8.838 124.381 -0.53 -0.00    +0.000 HD
DOCKED: ENDBRANCH  19  20
DOCKED: ENDBRANCH   3  18
DOCKED: TORSDOF 5DOCKED: TER
DOCKED: ENDMDL
________________________________________________________________________________


	BEGINNING GENETIC ALGORITHM DOCKING 60 of 100
Run: 60 Seed: 1187658371 1477436427 [ Run 60 of 100 GA/GALS ]
Beginning LAMARCKIAN GENETIC ALGORITHM (LGA), with a maximum of 2500000 energy evaluations.

Final-Value: -14.228


	FINAL GENETIC ALGORITHM DOCKED STATE
	_______________________________________________


Detailed state:  trans 34.746 13.850 123.144 quatxyzw -0.878888 0.417626 -0.163049 -0.162971 center 0.217 0.012 -0.211 ntor 5 -96.0445 157.5283 -157.2852 139.4518 -168.7568
State:	 34.746  13.850 123.144  -0.891  0.423 -0.165 -161.241    -96.04  157.53 -157.29  139.45 -168.76

DOCKED: MODEL       60
DOCKED: USER    Run = 60
DOCKED: USER    DPF = ligand_dock.biased.dpf
DOCKED: USER  
DOCKED: USER    Estimated Free Energy of Binding    =  -11.72 kcal/mol  [=(1)+(2)+(3)-(4)]
DOCKED: USER    Estimated Inhibition Constant, Ki   =    2.56 nM (nanomolar)  [Temperature = 298.15 K]
DOCKED: USER    
DOCKED: USER    (1) Final Intermolecular Energy     =  -13.21 kcal/mol
DOCKED: USER        vdW + Hbond + desolv Energy     =  -13.21 kcal/mol
DOCKED: USER        Electrostatic Energy            =   +0.00 kcal/mol
DOCKED: USER    (2) Final Total Internal Energy     =   -1.02 kcal/mol
DOCKED: USER    (3) Torsional Free Energy           =   +1.49 kcal/mol
DOCKED: USER    (4) Unbound System's Energy  [=(2)] =   -1.02 kcal/mol
DOCKED: USER    
DOCKED: USER    
DOCKED: USER    NEWDPF move ligand.dum.pdbqt
DOCKED: USER    NEWDPF about 0.217000 0.012000 -0.211000
DOCKED: USER    NEWDPF tran0 34.746132 13.849584 123.144050
DOCKED: USER    NEWDPF quaternion0 -0.878888 0.417626 -0.163049 -0.162971
DOCKED: USER    NEWDPF axisangle0 -0.890797 0.423285 -0.165258 -161.241286
DOCKED: USER    NEWDPF quat0 -0.890797 0.423285 -0.165258 -161.241286
DOCKED: USER    NEWDPF dihe0 -96.04 157.53 -157.29 139.45 -168.76 
DOCKED: USER  keepresnum = 1 
DOCKED: USER  
DOCKED: REMARK  Name = 
DOCKED: REMARK  5 active torsions:
DOCKED: REMARK  status: ('A' for Active; 'I' for Inactive)
DOCKED: REMARK    1  A    between atoms: S_2  and  N_3
DOCKED: REMARK    2  A    between atoms: S_2  and  C_10
DOCKED: REMARK    3  A    between atoms: N_3  and  C_4
DOCKED: REMARK    4  A    between atoms: C_12  and  C_13
DOCKED: REMARK    5  A    between atoms: C_14  and  C_15
DOCKED: REMARK                            x       y       z     vdW  Elec       q    Type
DOCKED: REMARK                         _______ _______ _______ _____ _____    ______ ____
DOCKED: USER                              x       y       z     vdW  Elec       q    Type
DOCKED: USER                           _______ _______ _______ _____ _____    ______ ____
DOCKED: ROOT
DOCKED: ATOM      1  C   UNL     1      35.841  15.528 124.006 -0.40 -0.00    +0.000 A 
DOCKED: ATOM      2  C   UNL     1      35.570  14.164 123.833 -0.49 -0.00    +0.000 A 
DOCKED: ATOM      3  C   UNL     1      36.549  13.301 123.297 -0.53 -0.00    +0.000 A 
DOCKED: ATOM      4  C   UNL     1      37.793  13.836 122.926 -0.46 -0.00    +0.000 A 
DOCKED: ATOM      5  C   UNL     1      38.067  15.194 123.108 -0.31 -0.00    +0.000 A 
DOCKED: ATOM      6  C   UNL     1      37.096  16.038 123.650 -0.26 -0.00    +0.000 A 
DOCKED: ATOM      7  CM  UNL     1      36.819  14.676 123.470 +0.00 -0.00    +0.000 AC
DOCKED: ENDROOT
DOCKED: BRANCH   1   8
DOCKED: ATOM      8  O   UNL     1      33.794  15.895 125.710 -0.82 -0.00    +0.000 OA
DOCKED: ATOM      9  S   UNL     1      34.601  16.598 124.656 -0.61 -0.00    +0.000 S 
DOCKED: ATOM     10  O   UNL     1      33.690  17.014 123.536 -0.40 -0.00    +0.000 OA
DOCKED: BRANCH   8  10
DOCKED: ATOM     11  N   UNL     1      35.334  18.010 125.351 -0.26 -0.00    +0.000 N 
DOCKED: ATOM     12  H   UNL     1      35.539  17.997 126.314 -0.01 -0.00    +0.000 HD
DOCKED: BRANCH  10  12
DOCKED: ATOM     13  C   UNL     1      35.658  19.197 124.606 -0.20 -0.00    +0.000 A 
DOCKED: ATOM     14  C   UNL     1      35.564  20.482 125.174 -0.15 -0.00    +0.000 A 
DOCKED: ATOM     15  C   UNL     1      35.898  21.613 124.422 -0.14 -0.00    +0.000 A 
DOCKED: ATOM     16  C   UNL     1      36.321  21.476 123.098 -0.12 -0.00    +0.000 A 
DOCKED: ATOM     17  C   UNL     1      36.409  20.207 122.523 -0.12 -0.00    +0.000 A 
DOCKED: ATOM     18  C   UNL     1      36.077  19.074 123.271 -0.19 -0.00    +0.000 A 
DOCKED: ATOM     19  CM  UNL     1      35.988  20.342 123.848 +0.00 -0.00    +0.000 AC
DOCKED: ENDBRANCH  10  12
DOCKED: ENDBRANCH   8  10
DOCKED: ENDBRANCH   1   8
DOCKED: BRANCH   3  18
DOCKED: ATOM     20  C   UNL     1      36.303  11.855 123.071 -0.69 -0.00    +0.000 C 
DOCKED: ATOM     21  C   UNL     1      37.216  11.015 122.561 -0.39 -0.00    +0.000 C 
DOCKED: BRANCH  19  20
DOCKED: ATOM     22  C   UNL     1      36.965   9.575 122.341 -0.63 -0.00    +0.000 C 
DOCKED: ATOM     23  N   UNL     1      36.995   8.619 123.407 -0.66 -0.00    +0.000 N 
DOCKED: ATOM     24  O   UNL     1      36.862   7.300 123.139 -2.20 -0.00    +0.000 OA
DOCKED: ATOM     25  O   UNL     1      36.689   9.186 121.174 -2.62 -0.00    +0.000 OA
DOCKED: ATOM     26  H   UNL     1      37.114   8.923 124.337 -0.54 -0.00    +0.000 HD
DOCKED: ENDBRANCH  19  20
DOCKED: ENDBRANCH   3  18
DOCKED: TORSDOF 5DOCKED: TER
DOCKED: ENDMDL
________________________________________________________________________________


	BEGINNING GENETIC ALGORITHM DOCKING 61 of 100
Run: 61 Seed: 793148090 781145287 [ Run 61 of 100 GA/GALS ]
Beginning LAMARCKIAN GENETIC ALGORITHM (LGA), with a maximum of 2500000 energy evaluations.

Final-Value: -14.379


	FINAL GENETIC ALGORITHM DOCKED STATE
	_______________________________________________


Detailed state:  trans 35.050 14.042 122.914 quatxyzw 0.885863 -0.409262 0.190034 0.107886 center 0.217 0.012 -0.211 ntor 5 -75.7550 5.3761 179.6788 -12.0353 -51.7986
State:	 35.050  14.042 122.914   0.891 -0.412  0.191 167.613    -75.76    5.38  179.68  -12.04  -51.80

DOCKED: MODEL       61
DOCKED: USER    Run = 61
DOCKED: USER    DPF = ligand_dock.biased.dpf
DOCKED: USER  
DOCKED: USER    Estimated Free Energy of Binding    =  -11.78 kcal/mol  [=(1)+(2)+(3)-(4)]
DOCKED: USER    Estimated Inhibition Constant, Ki   =    2.31 nM (nanomolar)  [Temperature = 298.15 K]
DOCKED: USER    
DOCKED: USER    (1) Final Intermolecular Energy     =  -13.27 kcal/mol
DOCKED: USER        vdW + Hbond + desolv Energy     =  -13.27 kcal/mol
DOCKED: USER        Electrostatic Energy            =   +0.00 kcal/mol
DOCKED: USER    (2) Final Total Internal Energy     =   -1.11 kcal/mol
DOCKED: USER    (3) Torsional Free Energy           =   +1.49 kcal/mol
DOCKED: USER    (4) Unbound System's Energy  [=(2)] =   -1.11 kcal/mol
DOCKED: USER    
DOCKED: USER    
DOCKED: USER    NEWDPF move ligand.dum.pdbqt
DOCKED: USER    NEWDPF about 0.217000 0.012000 -0.211000
DOCKED: USER    NEWDPF tran0 35.049538 14.041796 122.914178
DOCKED: USER    NEWDPF quaternion0 0.885863 -0.409262 0.190034 0.107886
DOCKED: USER    NEWDPF axisangle0 0.891064 -0.411664 0.191149 167.613028
DOCKED: USER    NEWDPF quat0 0.891064 -0.411664 0.191149 167.613028
DOCKED: USER    NEWDPF dihe0 -75.76 5.38 179.68 -12.04 -51.80 
DOCKED: USER  keepresnum = 1 
DOCKED: USER  
DOCKED: REMARK  Name = 
DOCKED: REMARK  5 active torsions:
DOCKED: REMARK  status: ('A' for Active; 'I' for Inactive)
DOCKED: REMARK    1  A    between atoms: S_2  and  N_3
DOCKED: REMARK    2  A    between atoms: S_2  and  C_10
DOCKED: REMARK    3  A    between atoms: N_3  and  C_4
DOCKED: REMARK    4  A    between atoms: C_12  and  C_13
DOCKED: REMARK    5  A    between atoms: C_14  and  C_15
DOCKED: REMARK                            x       y       z     vdW  Elec       q    Type
DOCKED: REMARK                         _______ _______ _______ _____ _____    ______ ____
DOCKED: USER                              x       y       z     vdW  Elec       q    Type
DOCKED: USER                           _______ _______ _______ _____ _____    ______ ____
DOCKED: ROOT
DOCKED: ATOM      1  C   UNL     1      36.154  15.808 123.563 -0.37 -0.00    +0.000 A 
DOCKED: ATOM      2  C   UNL     1      35.874  14.434 123.560 -0.47 -0.00    +0.000 A 
DOCKED: ATOM      3  C   UNL     1      36.849  13.505 123.138 -0.51 -0.00    +0.000 A 
DOCKED: ATOM      4  C   UNL     1      38.096  13.982 122.706 -0.43 -0.00    +0.000 A 
DOCKED: ATOM      5  C   UNL     1      38.379  15.351 122.719 -0.32 -0.00    +0.000 A 
DOCKED: ATOM      6  C   UNL     1      37.413  16.262 123.150 -0.26 -0.00    +0.000 A 
DOCKED: ATOM      7  CM  UNL     1      37.127  14.890 123.140 +0.00 -0.00    +0.000 AC
DOCKED: ENDROOT
DOCKED: BRANCH   1   8
DOCKED: ATOM      8  O   UNL     1      35.552  18.212 124.606 -0.27 -0.00    +0.000 OA
DOCKED: ATOM      9  S   UNL     1      34.920  16.958 124.072 -0.54 -0.00    +0.000 S 
DOCKED: ATOM     10  O   UNL     1      34.092  16.327 125.155 -0.59 -0.00    +0.000 OA
DOCKED: BRANCH   8  10
DOCKED: ATOM     11  N   UNL     1      33.894  17.366 122.733 -0.37 -0.00    +0.000 N 
DOCKED: ATOM     12  H   UNL     1      32.945  17.108 122.782 +0.13 -0.00    +0.000 HD
DOCKED: BRANCH  10  12
DOCKED: ATOM     13  C   UNL     1      34.347  18.059 121.556 -0.30 -0.00    +0.000 A 
DOCKED: ATOM     14  C   UNL     1      35.649  18.587 121.457 -0.21 -0.00    +0.000 A 
DOCKED: ATOM     15  C   UNL     1      36.057  19.246 120.293 -0.14 -0.00    +0.000 A 
DOCKED: ATOM     16  C   UNL     1      35.174  19.391 119.222 -0.16 -0.00    +0.000 A 
DOCKED: ATOM     17  C   UNL     1      33.878  18.879 119.313 -0.25 -0.00    +0.000 A 
DOCKED: ATOM     18  C   UNL     1      33.465  18.219 120.474 -0.32 -0.00    +0.000 A 
DOCKED: ATOM     19  CM  UNL     1      34.761  18.730 120.386 +0.00 -0.00    +0.000 AC
DOCKED: ENDBRANCH  10  12
DOCKED: ENDBRANCH   8  10
DOCKED: ENDBRANCH   1   8
DOCKED: BRANCH   3  18
DOCKED: ATOM     20  C   UNL     1      36.594  12.044 123.092 -0.67 -0.00    +0.000 C 
DOCKED: ATOM     21  C   UNL     1      37.277  11.193 122.312 -0.32 -0.00    +0.000 C 
DOCKED: BRANCH  19  20
DOCKED: ATOM     22  C   UNL     1      37.019   9.738 122.274 -0.60 -0.00    +0.000 C 
DOCKED: ATOM     23  N   UNL     1      37.100   8.914 123.443 -0.59 -0.00    +0.000 N 
DOCKED: ATOM     24  O   UNL     1      36.958   7.572 123.338 -2.49 -0.00    +0.000 OA
DOCKED: ATOM     25  O   UNL     1      36.692   9.215 121.175 -2.63 -0.00    +0.000 OA
DOCKED: ATOM     26  H   UNL     1      37.259   9.324 124.324 -0.58 -0.00    +0.000 HD
DOCKED: ENDBRANCH  19  20
DOCKED: ENDBRANCH   3  18
DOCKED: TORSDOF 5DOCKED: TER
DOCKED: ENDMDL
________________________________________________________________________________


	BEGINNING GENETIC ALGORITHM DOCKING 62 of 100
Run: 62 Seed: 1331981581 306480194 [ Run 62 of 100 GA/GALS ]
Beginning LAMARCKIAN GENETIC ALGORITHM (LGA), with a maximum of 2500000 energy evaluations.

Final-Value: -14.073


	FINAL GENETIC ALGORITHM DOCKED STATE
	_______________________________________________


Detailed state:  trans 38.237 14.024 122.199 quatxyzw 0.073263 -0.016752 0.879230 0.470432 center 0.217 0.012 -0.211 ntor 5 62.8941 -172.3231 -80.3341 114.7572 -63.8613
State:	 38.237  14.024 122.199   0.083 -0.019  0.996 123.875     62.89 -172.32  -80.33  114.76  -63.86

DOCKED: MODEL       62
DOCKED: USER    Run = 62
DOCKED: USER    DPF = ligand_dock.biased.dpf
DOCKED: USER  
DOCKED: USER    Estimated Free Energy of Binding    =  -11.42 kcal/mol  [=(1)+(2)+(3)-(4)]
DOCKED: USER    Estimated Inhibition Constant, Ki   =    4.25 nM (nanomolar)  [Temperature = 298.15 K]
DOCKED: USER    
DOCKED: USER    (1) Final Intermolecular Energy     =  -12.91 kcal/mol
DOCKED: USER        vdW + Hbond + desolv Energy     =  -12.91 kcal/mol
DOCKED: USER        Electrostatic Energy            =   +0.00 kcal/mol
DOCKED: USER    (2) Final Total Internal Energy     =   -1.16 kcal/mol
DOCKED: USER    (3) Torsional Free Energy           =   +1.49 kcal/mol
DOCKED: USER    (4) Unbound System's Energy  [=(2)] =   -1.16 kcal/mol
DOCKED: USER    
DOCKED: USER    
DOCKED: USER    NEWDPF move ligand.dum.pdbqt
DOCKED: USER    NEWDPF about 0.217000 0.012000 -0.211000
DOCKED: USER    NEWDPF tran0 38.236517 14.023730 122.198932
DOCKED: USER    NEWDPF quaternion0 0.073263 -0.016752 0.879230 0.470432
DOCKED: USER    NEWDPF axisangle0 0.083023 -0.018984 0.996367 123.875316
DOCKED: USER    NEWDPF quat0 0.083023 -0.018984 0.996367 123.875316
DOCKED: USER    NEWDPF dihe0 62.89 -172.32 -80.33 114.76 -63.86 
DOCKED: USER  keepresnum = 1 
DOCKED: USER  
DOCKED: REMARK  Name = 
DOCKED: REMARK  5 active torsions:
DOCKED: REMARK  status: ('A' for Active; 'I' for Inactive)
DOCKED: REMARK    1  A    between atoms: S_2  and  N_3
DOCKED: REMARK    2  A    between atoms: S_2  and  C_10
DOCKED: REMARK    3  A    between atoms: N_3  and  C_4
DOCKED: REMARK    4  A    between atoms: C_12  and  C_13
DOCKED: REMARK    5  A    between atoms: C_14  and  C_15
DOCKED: REMARK                            x       y       z     vdW  Elec       q    Type
DOCKED: REMARK                         _______ _______ _______ _____ _____    ______ ____
DOCKED: USER                              x       y       z     vdW  Elec       q    Type
DOCKED: USER                           _______ _______ _______ _____ _____    ______ ____
DOCKED: ROOT
DOCKED: ATOM      1  C   UNL     1      36.779  15.644 122.292 -0.27 -0.00    +0.000 A 
DOCKED: ATOM      2  C   UNL     1      37.156  14.305 122.123 -0.36 -0.00    +0.000 A 
DOCKED: ATOM      3  C   UNL     1      36.682  13.310 123.004 -0.52 -0.00    +0.000 A 
DOCKED: ATOM      4  C   UNL     1      35.839  13.688 124.061 -0.39 -0.00    +0.000 A 
DOCKED: ATOM      5  C   UNL     1      35.454  15.022 124.223 -0.47 -0.00    +0.000 A 
DOCKED: ATOM      6  C   UNL     1      35.918  15.997 123.339 -0.36 -0.00    +0.000 A 
DOCKED: ATOM      7  CM  UNL     1      36.304  14.661 123.173 +0.00 -0.00    +0.000 AC
DOCKED: ENDROOT
DOCKED: BRANCH   1   8
DOCKED: ATOM      8  O   UNL     1      36.332  17.894 120.889 -0.16 -0.00    +0.000 OA
DOCKED: ATOM      9  S   UNL     1      37.397  16.879 121.197 -0.20 -0.00    +0.000 S 
DOCKED: ATOM     10  O   UNL     1      37.828  16.217 119.920 -0.15 -0.00    +0.000 OA
DOCKED: BRANCH   8  10
DOCKED: ATOM     11  N   UNL     1      38.758  17.685 121.912 -0.10 -0.00    +0.000 N 
DOCKED: ATOM     12  H   UNL     1      38.682  18.650 122.091 +0.00 -0.00    +0.000 HD
DOCKED: BRANCH  10  12
DOCKED: ATOM     13  C   UNL     1      39.990  17.027 122.259 -0.18 -0.00    +0.000 A 
DOCKED: ATOM     14  C   UNL     1      41.100  17.738 122.754 -0.20 -0.00    +0.000 A 
DOCKED: ATOM     15  C   UNL     1      42.278  17.063 123.091 -0.35 -0.00    +0.000 A 
DOCKED: ATOM     16  C   UNL     1      42.364  15.679 122.932 -0.38 +0.00    +0.000 A 
DOCKED: ATOM     17  C   UNL     1      41.272  14.966 122.433 -0.48 -0.00    +0.000 A 
DOCKED: ATOM     18  C   UNL     1      40.092  15.635 122.096 -0.31 -0.00    +0.000 A 
DOCKED: ATOM     19  CM  UNL     1      41.183  16.351 122.594 +0.00 -0.00    +0.000 AC
DOCKED: ENDBRANCH  10  12
DOCKED: ENDBRANCH   8  10
DOCKED: ENDBRANCH   1   8
DOCKED: BRANCH   3  18
DOCKED: ATOM     20  C   UNL     1      37.072  11.883 122.884 -0.64 -0.00    +0.000 C 
DOCKED: ATOM     21  C   UNL     1      36.275  10.934 122.368 -0.67 -0.00    +0.000 C 
DOCKED: BRANCH  19  20
DOCKED: ATOM     22  C   UNL     1      36.672   9.516 122.249 -0.71 -0.00    +0.000 C 
DOCKED: ATOM     23  N   UNL     1      36.603   8.605 123.353 -0.64 -0.00    +0.000 N 
DOCKED: ATOM     24  O   UNL     1      37.076   7.344 123.222 -2.36 -0.00    +0.000 OA
DOCKED: ATOM     25  O   UNL     1      37.060   9.093 121.127 -2.72 -0.00    +0.000 OA
DOCKED: ATOM     26  H   UNL     1      36.212   8.897 124.209 -0.30 -0.00    +0.000 HD
DOCKED: ENDBRANCH  19  20
DOCKED: ENDBRANCH   3  18
DOCKED: TORSDOF 5DOCKED: TER
DOCKED: ENDMDL
________________________________________________________________________________


	BEGINNING GENETIC ALGORITHM DOCKING 63 of 100
Run: 63 Seed: 1000983175 1986540966 [ Run 63 of 100 GA/GALS ]
Beginning LAMARCKIAN GENETIC ALGORITHM (LGA), with a maximum of 2500000 energy evaluations.

Final-Value: -14.127


	FINAL GENETIC ALGORITHM DOCKED STATE
	_______________________________________________


Detailed state:  trans 38.370 14.130 122.723 quatxyzw 0.080501 0.028549 -0.883232 -0.461093 center 0.217 0.012 -0.211 ntor 5 78.6883 151.1876 -119.7376 143.8118 -54.7988
State:	 38.370  14.130 122.723   0.091  0.032 -0.995 -125.085     78.69  151.19 -119.74  143.81  -54.80

DOCKED: MODEL       63
DOCKED: USER    Run = 63
DOCKED: USER    DPF = ligand_dock.biased.dpf
DOCKED: USER  
DOCKED: USER    Estimated Free Energy of Binding    =  -11.55 kcal/mol  [=(1)+(2)+(3)-(4)]
DOCKED: USER    Estimated Inhibition Constant, Ki   =    3.44 nM (nanomolar)  [Temperature = 298.15 K]
DOCKED: USER    
DOCKED: USER    (1) Final Intermolecular Energy     =  -13.04 kcal/mol
DOCKED: USER        vdW + Hbond + desolv Energy     =  -13.04 kcal/mol
DOCKED: USER        Electrostatic Energy            =   +0.00 kcal/mol
DOCKED: USER    (2) Final Total Internal Energy     =   -1.09 kcal/mol
DOCKED: USER    (3) Torsional Free Energy           =   +1.49 kcal/mol
DOCKED: USER    (4) Unbound System's Energy  [=(2)] =   -1.09 kcal/mol
DOCKED: USER    
DOCKED: USER    
DOCKED: USER    NEWDPF move ligand.dum.pdbqt
DOCKED: USER    NEWDPF about 0.217000 0.012000 -0.211000
DOCKED: USER    NEWDPF tran0 38.370170 14.130176 122.723497
DOCKED: USER    NEWDPF quaternion0 0.080501 0.028549 -0.883232 -0.461093
DOCKED: USER    NEWDPF axisangle0 0.090720 0.032174 -0.995357 -125.084732
DOCKED: USER    NEWDPF quat0 0.090720 0.032174 -0.995357 -125.084732
DOCKED: USER    NEWDPF dihe0 78.69 151.19 -119.74 143.81 -54.80 
DOCKED: USER  keepresnum = 1 
DOCKED: USER  
DOCKED: REMARK  Name = 
DOCKED: REMARK  5 active torsions:
DOCKED: REMARK  status: ('A' for Active; 'I' for Inactive)
DOCKED: REMARK    1  A    between atoms: S_2  and  N_3
DOCKED: REMARK    2  A    between atoms: S_2  and  C_10
DOCKED: REMARK    3  A    between atoms: N_3  and  C_4
DOCKED: REMARK    4  A    between atoms: C_12  and  C_13
DOCKED: REMARK    5  A    between atoms: C_14  and  C_15
DOCKED: REMARK                            x       y       z     vdW  Elec       q    Type
DOCKED: REMARK                         _______ _______ _______ _____ _____    ______ ____
DOCKED: USER                              x       y       z     vdW  Elec       q    Type
DOCKED: USER                           _______ _______ _______ _____ _____    ______ ____
DOCKED: ROOT
DOCKED: ATOM      1  C   UNL     1      36.947  15.784 122.709 -0.29 -0.00    +0.000 A 
DOCKED: ATOM      2  C   UNL     1      37.348  14.471 122.423 -0.38 -0.00    +0.000 A 
DOCKED: ATOM      3  C   UNL     1      36.656  13.373 122.977 -0.51 -0.00    +0.000 A 
DOCKED: ATOM      4  C   UNL     1      35.570  13.619 123.833 -0.44 -0.00    +0.000 A 
DOCKED: ATOM      5  C   UNL     1      35.164  14.927 124.110 -0.50 -0.00    +0.000 A 
DOCKED: ATOM      6  C   UNL     1      35.847  16.007 123.547 -0.38 -0.00    +0.000 A 
DOCKED: ATOM      7  CM  UNL     1      36.255  14.697 123.266 +0.00 -0.00    +0.000 AC
DOCKED: ENDROOT
DOCKED: BRANCH   1   8
DOCKED: ATOM      8  O   UNL     1      36.925  18.327 121.836 -0.14 -0.00    +0.000 OA
DOCKED: ATOM      9  S   UNL     1      37.834  17.145 122.028 -0.20 -0.00    +0.000 S 
DOCKED: ATOM     10  O   UNL     1      38.394  16.736 120.696 -0.12 -0.00    +0.000 OA
DOCKED: BRANCH   8  10
DOCKED: ATOM     11  N   UNL     1      39.137  17.598 123.082 -0.18 -0.00    +0.000 N 
DOCKED: ATOM     12  H   UNL     1      38.950  18.256 123.791 -0.00 -0.00    +0.000 HD
DOCKED: BRANCH  10  12
DOCKED: ATOM     13  C   UNL     1      40.472  17.070 122.982 -0.25 -0.00    +0.000 A 
DOCKED: ATOM     14  C   UNL     1      41.609  17.885 123.147 -0.24 -0.00    +0.000 A 
DOCKED: ATOM     15  C   UNL     1      42.891  17.335 123.053 -0.31 -0.00    +0.000 A 
DOCKED: ATOM     16  C   UNL     1      43.053  15.973 122.788 -0.31 -0.00    +0.000 A 
DOCKED: ATOM     17  C   UNL     1      41.932  15.159 122.614 -0.49 -0.00    +0.000 A 
DOCKED: ATOM     18  C   UNL     1      40.648  15.704 122.708 -0.37 -0.00    +0.000 A 
DOCKED: ATOM     19  CM  UNL     1      41.767  16.520 122.882 +0.00 -0.00    +0.000 AC
DOCKED: ENDBRANCH  10  12
DOCKED: ENDBRANCH   8  10
DOCKED: ENDBRANCH   1   8
DOCKED: BRANCH   3  18
DOCKED: ATOM     20  C   UNL     1      37.056  11.967 122.726 -0.63 -0.00    +0.000 C 
DOCKED: ATOM     21  C   UNL     1      36.183  10.961 122.565 -0.68 -0.00    +0.000 C 
DOCKED: BRANCH  19  20
DOCKED: ATOM     22  C   UNL     1      36.589   9.563 122.312 -0.71 -0.00    +0.000 C 
DOCKED: ATOM     23  N   UNL     1      36.687   8.591 123.361 -0.65 -0.00    +0.000 N 
DOCKED: ATOM     24  O   UNL     1      37.164   7.353 123.095 -2.28 -0.00    +0.000 OA
DOCKED: ATOM     25  O   UNL     1      36.831   9.213 121.126 -2.66 -0.00    +0.000 OA
DOCKED: ATOM     26  H   UNL     1      36.408   8.825 124.276 -0.34 -0.00    +0.000 HD
DOCKED: ENDBRANCH  19  20
DOCKED: ENDBRANCH   3  18
DOCKED: TORSDOF 5DOCKED: TER
DOCKED: ENDMDL
________________________________________________________________________________


	BEGINNING GENETIC ALGORITHM DOCKING 64 of 100
Run: 64 Seed: 1669685085 178109059 [ Run 64 of 100 GA/GALS ]
Beginning LAMARCKIAN GENETIC ALGORITHM (LGA), with a maximum of 2500000 energy evaluations.

Final-Value: -13.555


	FINAL GENETIC ALGORITHM DOCKED STATE
	_______________________________________________


Detailed state:  trans 39.300 13.432 123.070 quatxyzw 0.326420 -0.045176 -0.912306 -0.243117 center 0.217 0.012 -0.211 ntor 5 139.9059 -65.5089 135.0646 -32.0555 132.9197
State:	 39.300  13.432 123.070   0.337 -0.047 -0.941 -151.859    139.91  -65.51  135.06  -32.06  132.92

DOCKED: MODEL       64
DOCKED: USER    Run = 64
DOCKED: USER    DPF = ligand_dock.biased.dpf
DOCKED: USER  
DOCKED: USER    Estimated Free Energy of Binding    =  -10.99 kcal/mol  [=(1)+(2)+(3)-(4)]
DOCKED: USER    Estimated Inhibition Constant, Ki   =    8.77 nM (nanomolar)  [Temperature = 298.15 K]
DOCKED: USER    
DOCKED: USER    (1) Final Intermolecular Energy     =  -12.48 kcal/mol
DOCKED: USER        vdW + Hbond + desolv Energy     =  -12.48 kcal/mol
DOCKED: USER        Electrostatic Energy            =   +0.00 kcal/mol
DOCKED: USER    (2) Final Total Internal Energy     =   -1.07 kcal/mol
DOCKED: USER    (3) Torsional Free Energy           =   +1.49 kcal/mol
DOCKED: USER    (4) Unbound System's Energy  [=(2)] =   -1.07 kcal/mol
DOCKED: USER    
DOCKED: USER    
DOCKED: USER    NEWDPF move ligand.dum.pdbqt
DOCKED: USER    NEWDPF about 0.217000 0.012000 -0.211000
DOCKED: USER    NEWDPF tran0 39.299725 13.431662 123.070344
DOCKED: USER    NEWDPF quaternion0 0.326420 -0.045176 -0.912306 -0.243117
DOCKED: USER    NEWDPF axisangle0 0.336517 -0.046573 -0.940525 -151.858804
DOCKED: USER    NEWDPF quat0 0.336517 -0.046573 -0.940525 -151.858804
DOCKED: USER    NEWDPF dihe0 139.91 -65.51 135.06 -32.06 132.92 
DOCKED: USER  keepresnum = 1 
DOCKED: USER  
DOCKED: REMARK  Name = 
DOCKED: REMARK  5 active torsions:
DOCKED: REMARK  status: ('A' for Active; 'I' for Inactive)
DOCKED: REMARK    1  A    between atoms: S_2  and  N_3
DOCKED: REMARK    2  A    between atoms: S_2  and  C_10
DOCKED: REMARK    3  A    between atoms: N_3  and  C_4
DOCKED: REMARK    4  A    between atoms: C_12  and  C_13
DOCKED: REMARK    5  A    between atoms: C_14  and  C_15
DOCKED: REMARK                            x       y       z     vdW  Elec       q    Type
DOCKED: REMARK                         _______ _______ _______ _____ _____    ______ ____
DOCKED: USER                              x       y       z     vdW  Elec       q    Type
DOCKED: USER                           _______ _______ _______ _____ _____    ______ ____
DOCKED: ROOT
DOCKED: ATOM      1  C   UNL     1      38.817  15.545 122.826 -0.28 -0.00    +0.000 A 
DOCKED: ATOM      2  C   UNL     1      38.772  14.196 122.447 -0.36 -0.00    +0.000 A 
DOCKED: ATOM      3  C   UNL     1      37.540  13.511 122.384 -0.45 -0.00    +0.000 A 
DOCKED: ATOM      4  C   UNL     1      36.364  14.200 122.721 -0.36 -0.00    +0.000 A 
DOCKED: ATOM      5  C   UNL     1      36.409  15.548 123.088 -0.36 -0.00    +0.000 A 
DOCKED: ATOM      6  C   UNL     1      37.630  16.220 123.137 -0.26 -0.00    +0.000 A 
DOCKED: ATOM      7  CM  UNL     1      37.589  14.870 122.766 +0.00 -0.00    +0.000 AC
DOCKED: ENDROOT
DOCKED: BRANCH   1   8
DOCKED: ATOM      8  O   UNL     1      41.490  15.398 123.081 -1.00 -0.00    +0.000 OA
DOCKED: ATOM      9  S   UNL     1      40.365  16.382 122.922 -0.39 -0.00    +0.000 S 
DOCKED: ATOM     10  O   UNL     1      40.343  17.298 124.112 -0.36 -0.00    +0.000 OA
DOCKED: BRANCH   8  10
DOCKED: ATOM     11  N   UNL     1      40.630  17.318 121.484 -0.12 -0.00    +0.000 N 
DOCKED: ATOM     12  H   UNL     1      40.383  18.271 121.501 +0.00 -0.00    +0.000 HD
DOCKED: BRANCH  10  12
DOCKED: ATOM     13  C   UNL     1      41.188  16.785 120.269 -0.13 -0.00    +0.000 A 
DOCKED: ATOM     14  C   UNL     1      42.569  16.548 120.126 -0.16 -0.00    +0.000 A 
DOCKED: ATOM     15  C   UNL     1      43.073  16.019 118.933 -0.19 -0.00    +0.000 A 
DOCKED: ATOM     16  C   UNL     1      42.212  15.728 117.874 -0.20 -0.00    +0.000 A 
DOCKED: ATOM     17  C   UNL     1      40.842  15.968 118.003 -0.14 -0.00    +0.000 A 
DOCKED: ATOM     18  C   UNL     1      40.332  16.496 119.193 -0.11 -0.00    +0.000 A 
DOCKED: ATOM     19  CM  UNL     1      41.702  16.257 119.066 +0.00 -0.00    +0.000 AC
DOCKED: ENDBRANCH  10  12
DOCKED: ENDBRANCH   8  10
DOCKED: ENDBRANCH   1   8
DOCKED: BRANCH   3  18
DOCKED: ATOM     20  C   UNL     1      37.441  12.077 122.013 -0.46 -0.00    +0.000 C 
DOCKED: ATOM     21  C   UNL     1      37.066  11.112 122.867 -0.62 -0.00    +0.000 C 
DOCKED: BRANCH  19  20
DOCKED: ATOM     22  C   UNL     1      36.967   9.687 122.490 -0.62 -0.00    +0.000 C 
DOCKED: ATOM     23  N   UNL     1      37.026   8.632 123.458 -0.65 -0.00    +0.000 N 
DOCKED: ATOM     24  O   UNL     1      37.037   7.340 123.053 -2.29 -0.00    +0.000 OA
DOCKED: ATOM     25  O   UNL     1      36.800   9.397 121.275 -2.45 -0.00    +0.000 OA
DOCKED: ATOM     26  H   UNL     1      37.060   8.846 124.418 -0.53 -0.00    +0.000 HD
DOCKED: ENDBRANCH  19  20
DOCKED: ENDBRANCH   3  18
DOCKED: TORSDOF 5DOCKED: TER
DOCKED: ENDMDL
________________________________________________________________________________


	BEGINNING GENETIC ALGORITHM DOCKING 65 of 100
Run: 65 Seed: 815050350 1277863280 [ Run 65 of 100 GA/GALS ]
Beginning LAMARCKIAN GENETIC ALGORITHM (LGA), with a maximum of 2500000 energy evaluations.

Final-Value: -14.420


	FINAL GENETIC ALGORITHM DOCKED STATE
	_______________________________________________


Detailed state:  trans 38.551 13.237 122.853 quatxyzw -0.064000 0.070006 0.949384 0.299456 center 0.217 0.012 -0.211 ntor 5 -58.5005 -110.2448 -1.3083 -6.3982 124.7877
State:	 38.551  13.237 122.853  -0.067  0.073  0.995 145.150    -58.50 -110.24   -1.31   -6.40  124.79

DOCKED: MODEL       65
DOCKED: USER    Run = 65
DOCKED: USER    DPF = ligand_dock.biased.dpf
DOCKED: USER  
DOCKED: USER    Estimated Free Energy of Binding    =  -11.60 kcal/mol  [=(1)+(2)+(3)-(4)]
DOCKED: USER    Estimated Inhibition Constant, Ki   =    3.12 nM (nanomolar)  [Temperature = 298.15 K]
DOCKED: USER    
DOCKED: USER    (1) Final Intermolecular Energy     =  -13.10 kcal/mol
DOCKED: USER        vdW + Hbond + desolv Energy     =  -13.10 kcal/mol
DOCKED: USER        Electrostatic Energy            =   +0.00 kcal/mol
DOCKED: USER    (2) Final Total Internal Energy     =   -1.32 kcal/mol
DOCKED: USER    (3) Torsional Free Energy           =   +1.49 kcal/mol
DOCKED: USER    (4) Unbound System's Energy  [=(2)] =   -1.32 kcal/mol
DOCKED: USER    
DOCKED: USER    
DOCKED: USER    NEWDPF move ligand.dum.pdbqt
DOCKED: USER    NEWDPF about 0.217000 0.012000 -0.211000
DOCKED: USER    NEWDPF tran0 38.550973 13.236745 122.853276
DOCKED: USER    NEWDPF quaternion0 -0.064000 0.070006 0.949384 0.299456
DOCKED: USER    NEWDPF axisangle0 -0.067078 0.073373 0.995046 145.150094
DOCKED: USER    NEWDPF quat0 -0.067078 0.073373 0.995046 145.150094
DOCKED: USER    NEWDPF dihe0 -58.50 -110.24 -1.31 -6.40 124.79 
DOCKED: USER  keepresnum = 1 
DOCKED: USER  
DOCKED: REMARK  Name = 
DOCKED: REMARK  5 active torsions:
DOCKED: REMARK  status: ('A' for Active; 'I' for Inactive)
DOCKED: REMARK    1  A    between atoms: S_2  and  N_3
DOCKED: REMARK    2  A    between atoms: S_2  and  C_10
DOCKED: REMARK    3  A    between atoms: N_3  and  C_4
DOCKED: REMARK    4  A    between atoms: C_12  and  C_13
DOCKED: REMARK    5  A    between atoms: C_14  and  C_15
DOCKED: REMARK                            x       y       z     vdW  Elec       q    Type
DOCKED: REMARK                         _______ _______ _______ _____ _____    ______ ____
DOCKED: USER                              x       y       z     vdW  Elec       q    Type
DOCKED: USER                           _______ _______ _______ _____ _____    ______ ____
DOCKED: ROOT
DOCKED: ATOM      1  C   UNL     1      37.813  15.256 122.480 -0.32 -0.00    +0.000 A 
DOCKED: ATOM      2  C   UNL     1      37.721  13.858 122.431 -0.43 -0.00    +0.000 A 
DOCKED: ATOM      3  C   UNL     1      36.677  13.184 123.099 -0.53 -0.00    +0.000 A 
DOCKED: ATOM      4  C   UNL     1      35.742  13.938 123.826 -0.49 -0.00    +0.000 A 
DOCKED: ATOM      5  C   UNL     1      35.827  15.332 123.866 -0.43 -0.00    +0.000 A 
DOCKED: ATOM      6  C   UNL     1      36.857  15.991 123.192 -0.30 -0.00    +0.000 A 
DOCKED: ATOM      7  CM  UNL     1      36.773  14.593 123.149 +0.00 -0.00    +0.000 AC
DOCKED: ENDROOT
DOCKED: BRANCH   1   8
DOCKED: ATOM      8  O   UNL     1      40.358  15.208 121.613 -0.44 -0.00    +0.000 OA
DOCKED: ATOM      9  S   UNL     1      39.136  16.082 121.659 -0.29 -0.00    +0.000 S 
DOCKED: ATOM     10  O   UNL     1      39.459  17.339 122.414 -0.17 -0.00    +0.000 OA
DOCKED: BRANCH   8  10
DOCKED: ATOM     11  N   UNL     1      38.670  16.491 120.037 -0.11 -0.00    +0.000 N 
DOCKED: ATOM     12  H   UNL     1      38.690  17.441 119.777 +0.00 -0.00    +0.000 HD
DOCKED: BRANCH  10  12
DOCKED: ATOM     13  C   UNL     1      38.258  15.527 119.052 -0.16 -0.00    +0.000 A 
DOCKED: ATOM     14  C   UNL     1      38.921  15.396 117.816 -0.14 -0.00    +0.000 A 
DOCKED: ATOM     15  C   UNL     1      38.498  14.440 116.887 -0.22 -0.00    +0.000 A 
DOCKED: ATOM     16  C   UNL     1      37.410  13.614 117.175 -0.36 -0.00    +0.000 A 
DOCKED: ATOM     17  C   UNL     1      36.740  13.743 118.393 -0.37 -0.00    +0.000 A 
DOCKED: ATOM     18  C   UNL     1      37.159  14.696 119.326 -0.25 -0.00    +0.000 A 
DOCKED: ATOM     19  CM  UNL     1      37.830  14.569 118.108 +0.00 -0.00    +0.000 AC
DOCKED: ENDBRANCH  10  12
DOCKED: ENDBRANCH   8  10
DOCKED: ENDBRANCH   1   8
DOCKED: BRANCH   3  18
DOCKED: ATOM     20  C   UNL     1      36.550  11.706 123.100 -0.69 -0.00    +0.000 C 
DOCKED: ATOM     21  C   UNL     1      37.071  10.913 122.150 -0.54 -0.00    +0.000 C 
DOCKED: BRANCH  19  20
DOCKED: ATOM     22  C   UNL     1      36.942   9.441 122.158 -0.65 -0.00    +0.000 C 
DOCKED: ATOM     23  N   UNL     1      37.064   8.668 123.358 -0.66 -0.00    +0.000 N 
DOCKED: ATOM     24  O   UNL     1      37.043   7.316 123.298 -2.34 -0.00    +0.000 OA
DOCKED: ATOM     25  O   UNL     1      36.692   8.855 121.072 -2.61 -0.00    +0.000 OA
DOCKED: ATOM     26  H   UNL     1      37.163   9.120 124.227 -0.58 -0.00    +0.000 HD
DOCKED: ENDBRANCH  19  20
DOCKED: ENDBRANCH   3  18
DOCKED: TORSDOF 5DOCKED: TER
DOCKED: ENDMDL
________________________________________________________________________________


	BEGINNING GENETIC ALGORITHM DOCKING 66 of 100
Run: 66 Seed: 1791719106 1137770171 [ Run 66 of 100 GA/GALS ]
Beginning LAMARCKIAN GENETIC ALGORITHM (LGA), with a maximum of 2500000 energy evaluations.

Final-Value: -14.580


	FINAL GENETIC ALGORITHM DOCKED STATE
	_______________________________________________


Detailed state:  trans 38.581 13.408 123.492 quatxyzw -0.174774 0.090759 0.917346 0.345967 center 0.217 0.012 -0.211 ntor 5 -17.6535 128.6154 -47.0039 39.3025 118.7445
State:	 38.581  13.408 123.492  -0.186  0.097  0.978 139.518    -17.65  128.62  -47.00   39.30  118.74

DOCKED: MODEL       66
DOCKED: USER    Run = 66
DOCKED: USER    DPF = ligand_dock.biased.dpf
DOCKED: USER  
DOCKED: USER    Estimated Free Energy of Binding    =  -11.60 kcal/mol  [=(1)+(2)+(3)-(4)]
DOCKED: USER    Estimated Inhibition Constant, Ki   =    3.11 nM (nanomolar)  [Temperature = 298.15 K]
DOCKED: USER    
DOCKED: USER    (1) Final Intermolecular Energy     =  -13.10 kcal/mol
DOCKED: USER        vdW + Hbond + desolv Energy     =  -13.10 kcal/mol
DOCKED: USER        Electrostatic Energy            =   +0.00 kcal/mol
DOCKED: USER    (2) Final Total Internal Energy     =   -1.48 kcal/mol
DOCKED: USER    (3) Torsional Free Energy           =   +1.49 kcal/mol
DOCKED: USER    (4) Unbound System's Energy  [=(2)] =   -1.48 kcal/mol
DOCKED: USER    
DOCKED: USER    
DOCKED: USER    NEWDPF move ligand.dum.pdbqt
DOCKED: USER    NEWDPF about 0.217000 0.012000 -0.211000
DOCKED: USER    NEWDPF tran0 38.581470 13.408047 123.492413
DOCKED: USER    NEWDPF quaternion0 -0.174774 0.090759 0.917346 0.345967
DOCKED: USER    NEWDPF axisangle0 -0.186278 0.096733 0.977724 139.518366
DOCKED: USER    NEWDPF quat0 -0.186278 0.096733 0.977724 139.518366
DOCKED: USER    NEWDPF dihe0 -17.65 128.62 -47.00 39.30 118.74 
DOCKED: USER  keepresnum = 1 
DOCKED: USER  
DOCKED: REMARK  Name = 
DOCKED: REMARK  5 active torsions:
DOCKED: REMARK  status: ('A' for Active; 'I' for Inactive)
DOCKED: REMARK    1  A    between atoms: S_2  and  N_3
DOCKED: REMARK    2  A    between atoms: S_2  and  C_10
DOCKED: REMARK    3  A    between atoms: N_3  and  C_4
DOCKED: REMARK    4  A    between atoms: C_12  and  C_13
DOCKED: REMARK    5  A    between atoms: C_14  and  C_15
DOCKED: REMARK                            x       y       z     vdW  Elec       q    Type
DOCKED: REMARK                         _______ _______ _______ _____ _____    ______ ____
DOCKED: USER                              x       y       z     vdW  Elec       q    Type
DOCKED: USER                           _______ _______ _______ _____ _____    ______ ____
DOCKED: ROOT
DOCKED: ATOM      1  C   UNL     1      37.703  15.337 122.972 -0.33 -0.00    +0.000 A 
DOCKED: ATOM      2  C   UNL     1      37.795  13.939 122.901 -0.45 -0.00    +0.000 A 
DOCKED: ATOM      3  C   UNL     1      36.720  13.128 123.321 -0.54 -0.00    +0.000 A 
DOCKED: ATOM      4  C   UNL     1      35.564  13.745 123.827 -0.46 -0.00    +0.000 A 
DOCKED: ATOM      5  C   UNL     1      35.469  15.138 123.889 -0.48 -0.00    +0.000 A 
DOCKED: ATOM      6  C   UNL     1      36.533  15.932 123.459 -0.33 -0.00    +0.000 A 
DOCKED: ATOM      7  CM  UNL     1      36.631  14.536 123.394 +0.00 -0.00    +0.000 AC
DOCKED: ENDROOT
DOCKED: BRANCH   1   8
DOCKED: ATOM      8  O   UNL     1      40.366  15.677 122.819 -0.43 -0.00    +0.000 OA
DOCKED: ATOM      9  S   UNL     1      39.063  16.336 122.465 -0.32 -0.00    +0.000 S 
DOCKED: ATOM     10  O   UNL     1      38.975  17.660 123.168 -0.20 -0.00    +0.000 OA
DOCKED: BRANCH   8  10
DOCKED: ATOM     11  N   UNL     1      39.007  16.595 120.749 -0.12 -0.00    +0.000 N 
DOCKED: ATOM     12  H   UNL     1      39.588  17.292 120.368 +0.00 -0.00    +0.000 HD
DOCKED: BRANCH  10  12
DOCKED: ATOM     13  C   UNL     1      38.163  15.852 119.851 -0.16 -0.00    +0.000 A 
DOCKED: ATOM     14  C   UNL     1      37.139  16.471 119.108 -0.13 -0.00    +0.000 A 
DOCKED: ATOM     15  C   UNL     1      36.344  15.718 118.237 -0.18 -0.00    +0.000 A 
DOCKED: ATOM     16  C   UNL     1      36.556  14.345 118.104 -0.31 -0.00    +0.000 A 
DOCKED: ATOM     17  C   UNL     1      37.563  13.720 118.843 -0.33 -0.00    +0.000 A 
DOCKED: ATOM     18  C   UNL     1      38.360  14.467 119.714 -0.21 -0.00    +0.000 A 
DOCKED: ATOM     19  CM  UNL     1      37.354  15.095 118.976 +0.00 -0.00    +0.000 AC
DOCKED: ENDBRANCH  10  12
DOCKED: ENDBRANCH   8  10
DOCKED: ENDBRANCH   1   8
DOCKED: BRANCH   3  18
DOCKED: ATOM     20  C   UNL     1      36.776  11.646 123.289 -0.69 -0.00    +0.000 C 
DOCKED: ATOM     21  C   UNL     1      36.776  10.925 122.157 -0.62 -0.00    +0.000 C 
DOCKED: BRANCH  19  20
DOCKED: ATOM     22  C   UNL     1      36.835   9.449 122.133 -0.67 -0.00    +0.000 C 
DOCKED: ATOM     23  N   UNL     1      36.891   8.664 123.330 -0.66 -0.00    +0.000 N 
DOCKED: ATOM     24  O   UNL     1      37.050   7.322 123.254 -2.34 -0.00    +0.000 OA
DOCKED: ATOM     25  O   UNL     1      36.809   8.865 121.016 -2.64 -0.00    +0.000 OA
DOCKED: ATOM     26  H   UNL     1      36.815   9.101 124.209 -0.51 -0.00    +0.000 HD
DOCKED: ENDBRANCH  19  20
DOCKED: ENDBRANCH   3  18
DOCKED: TORSDOF 5DOCKED: TER
DOCKED: ENDMDL
________________________________________________________________________________


	BEGINNING GENETIC ALGORITHM DOCKING 67 of 100
Run: 67 Seed: 1876658035 904742924 [ Run 67 of 100 GA/GALS ]
Beginning LAMARCKIAN GENETIC ALGORITHM (LGA), with a maximum of 2500000 energy evaluations.

Final-Value: -13.590


	FINAL GENETIC ALGORITHM DOCKED STATE
	_______________________________________________


Detailed state:  trans 38.608 13.814 123.692 quatxyzw -0.301377 0.005187 0.872556 0.384437 center 0.217 0.012 -0.211 ntor 5 83.0849 111.0435 -154.5663 48.5784 153.2248
State:	 38.608  13.814 123.692  -0.326  0.006  0.945 134.782     83.08  111.04 -154.57   48.58  153.22

DOCKED: MODEL       67
DOCKED: USER    Run = 67
DOCKED: USER    DPF = ligand_dock.biased.dpf
DOCKED: USER  
DOCKED: USER    Estimated Free Energy of Binding    =  -10.80 kcal/mol  [=(1)+(2)+(3)-(4)]
DOCKED: USER    Estimated Inhibition Constant, Ki   =   12.14 nM (nanomolar)  [Temperature = 298.15 K]
DOCKED: USER    
DOCKED: USER    (1) Final Intermolecular Energy     =  -12.29 kcal/mol
DOCKED: USER        vdW + Hbond + desolv Energy     =  -12.29 kcal/mol
DOCKED: USER        Electrostatic Energy            =   +0.00 kcal/mol
DOCKED: USER    (2) Final Total Internal Energy     =   -1.30 kcal/mol
DOCKED: USER    (3) Torsional Free Energy           =   +1.49 kcal/mol
DOCKED: USER    (4) Unbound System's Energy  [=(2)] =   -1.30 kcal/mol
DOCKED: USER    
DOCKED: USER    
DOCKED: USER    NEWDPF move ligand.dum.pdbqt
DOCKED: USER    NEWDPF about 0.217000 0.012000 -0.211000
DOCKED: USER    NEWDPF tran0 38.608248 13.814219 123.692283
DOCKED: USER    NEWDPF quaternion0 -0.301377 0.005187 0.872556 0.384437
DOCKED: USER    NEWDPF axisangle0 -0.326466 0.005619 0.945192 134.782412
DOCKED: USER    NEWDPF quat0 -0.326466 0.005619 0.945192 134.782412
DOCKED: USER    NEWDPF dihe0 83.08 111.04 -154.57 48.58 153.22 
DOCKED: USER  keepresnum = 1 
DOCKED: USER  
DOCKED: REMARK  Name = 
DOCKED: REMARK  5 active torsions:
DOCKED: REMARK  status: ('A' for Active; 'I' for Inactive)
DOCKED: REMARK    1  A    between atoms: S_2  and  N_3
DOCKED: REMARK    2  A    between atoms: S_2  and  C_10
DOCKED: REMARK    3  A    between atoms: N_3  and  C_4
DOCKED: REMARK    4  A    between atoms: C_12  and  C_13
DOCKED: REMARK    5  A    between atoms: C_14  and  C_15
DOCKED: REMARK                            x       y       z     vdW  Elec       q    Type
DOCKED: REMARK                         _______ _______ _______ _____ _____    ______ ____
DOCKED: USER                              x       y       z     vdW  Elec       q    Type
DOCKED: USER                           _______ _______ _______ _____ _____    ______ ____
DOCKED: ROOT
DOCKED: ATOM      1  C   UNL     1      37.506  15.677 123.419 -0.29 -0.00    +0.000 A 
DOCKED: ATOM      2  C   UNL     1      37.848  14.361 123.080 -0.42 -0.00    +0.000 A 
DOCKED: ATOM      3  C   UNL     1      36.875  13.339 123.104 -0.52 -0.00    +0.000 A 
DOCKED: ATOM      4  C   UNL     1      35.564  13.662 123.489 -0.42 -0.00    +0.000 A 
DOCKED: ATOM      5  C   UNL     1      35.222  14.976 123.817 -0.50 -0.00    +0.000 A 
DOCKED: ATOM      6  C   UNL     1      36.188  15.983 123.778 -0.35 -0.00    +0.000 A 
DOCKED: ATOM      7  CM  UNL     1      36.534  14.666 123.447 +0.00 -0.00    +0.000 AC
DOCKED: ENDROOT
DOCKED: BRANCH   1   8
DOCKED: ATOM      8  O   UNL     1      40.076  16.368 123.032 -0.34 -0.00    +0.000 OA
DOCKED: ATOM      9  S   UNL     1      38.737  16.939 123.405 -0.32 -0.00    +0.000 S 
DOCKED: ATOM     10  O   UNL     1      38.825  17.540 124.778 -0.26 -0.00    +0.000 OA
DOCKED: BRANCH   8  10
DOCKED: ATOM     11  N   UNL     1      38.311  18.177 122.264 -0.09 -0.00    +0.000 N 
DOCKED: ATOM     12  H   UNL     1      38.892  18.970 122.206 +0.00 -0.00    +0.000 HD
DOCKED: BRANCH  10  12
DOCKED: ATOM     13  C   UNL     1      37.162  18.114 121.401 -0.11 -0.00    +0.000 A 
DOCKED: ATOM     14  C   UNL     1      35.963  18.785 121.708 -0.19 -0.00    +0.000 A 
DOCKED: ATOM     15  C   UNL     1      34.869  18.709 120.840 -0.23 -0.00    +0.000 A 
DOCKED: ATOM     16  C   UNL     1      34.957  17.961 119.664 -0.19 -0.00    +0.000 A 
DOCKED: ATOM     17  C   UNL     1      36.138  17.284 119.356 -0.13 -0.00    +0.000 A 
DOCKED: ATOM     18  C   UNL     1      37.234  17.357 120.220 -0.10 -0.00    +0.000 A 
DOCKED: ATOM     19  CM  UNL     1      36.054  18.035 120.531 +0.00 -0.00    +0.000 AC
DOCKED: ENDBRANCH  10  12
DOCKED: ENDBRANCH   8  10
DOCKED: ENDBRANCH   1   8
DOCKED: BRANCH   3  18
DOCKED: ATOM     20  C   UNL     1      37.191  11.926 122.779 -0.57 -0.00    +0.000 C 
DOCKED: ATOM     21  C   UNL     1      36.275  10.946 122.746 -0.69 -0.00    +0.000 C 
DOCKED: BRANCH  19  20
DOCKED: ATOM     22  C   UNL     1      36.597   9.542 122.419 -0.71 -0.00    +0.000 C 
DOCKED: ATOM     23  N   UNL     1      36.739   8.533 123.426 -0.65 -0.00    +0.000 N 
DOCKED: ATOM     24  O   UNL     1      37.137   7.285 123.085 -2.22 -0.00    +0.000 OA
DOCKED: ATOM     25  O   UNL     1      36.725   9.222 121.207 -2.64 -0.00    +0.000 OA
DOCKED: ATOM     26  H   UNL     1      36.546   8.747 124.368 -0.35 -0.00    +0.000 HD
DOCKED: ENDBRANCH  19  20
DOCKED: ENDBRANCH   3  18
DOCKED: TORSDOF 5DOCKED: TER
DOCKED: ENDMDL
________________________________________________________________________________


	BEGINNING GENETIC ALGORITHM DOCKING 68 of 100
Run: 68 Seed: 1205439 1620529834 [ Run 68 of 100 GA/GALS ]
Beginning LAMARCKIAN GENETIC ALGORITHM (LGA), with a maximum of 2500000 energy evaluations.

Final-Value: -13.983


	FINAL GENETIC ALGORITHM DOCKED STATE
	_______________________________________________


Detailed state:  trans 37.136 13.606 121.992 quatxyzw -0.761550 0.387995 0.479371 0.199263 center 0.217 0.012 -0.211 ntor 5 152.9886 123.1290 44.8407 -35.1914 -7.1974
State:	 37.136  13.606 121.992  -0.777  0.396  0.489 157.012    152.99  123.13   44.84  -35.19   -7.20

DOCKED: MODEL       68
DOCKED: USER    Run = 68
DOCKED: USER    DPF = ligand_dock.biased.dpf
DOCKED: USER  
DOCKED: USER    Estimated Free Energy of Binding    =  -11.38 kcal/mol  [=(1)+(2)+(3)-(4)]
DOCKED: USER    Estimated Inhibition Constant, Ki   =    4.54 nM (nanomolar)  [Temperature = 298.15 K]
DOCKED: USER    
DOCKED: USER    (1) Final Intermolecular Energy     =  -12.87 kcal/mol
DOCKED: USER        vdW + Hbond + desolv Energy     =  -12.87 kcal/mol
DOCKED: USER        Electrostatic Energy            =   +0.00 kcal/mol
DOCKED: USER    (2) Final Total Internal Energy     =   -1.11 kcal/mol
DOCKED: USER    (3) Torsional Free Energy           =   +1.49 kcal/mol
DOCKED: USER    (4) Unbound System's Energy  [=(2)] =   -1.11 kcal/mol
DOCKED: USER    
DOCKED: USER    
DOCKED: USER    NEWDPF move ligand.dum.pdbqt
DOCKED: USER    NEWDPF about 0.217000 0.012000 -0.211000
DOCKED: USER    NEWDPF tran0 37.135598 13.606170 121.992212
DOCKED: USER    NEWDPF quaternion0 -0.761550 0.387995 0.479371 0.199263
DOCKED: USER    NEWDPF axisangle0 -0.777134 0.395935 0.489181 157.012301
DOCKED: USER    NEWDPF quat0 -0.777134 0.395935 0.489181 157.012301
DOCKED: USER    NEWDPF dihe0 152.99 123.13 44.84 -35.19 -7.20 
DOCKED: USER  keepresnum = 1 
DOCKED: USER  
DOCKED: REMARK  Name = 
DOCKED: REMARK  5 active torsions:
DOCKED: REMARK  status: ('A' for Active; 'I' for Inactive)
DOCKED: REMARK    1  A    between atoms: S_2  and  N_3
DOCKED: REMARK    2  A    between atoms: S_2  and  C_10
DOCKED: REMARK    3  A    between atoms: N_3  and  C_4
DOCKED: REMARK    4  A    between atoms: C_12  and  C_13
DOCKED: REMARK    5  A    between atoms: C_14  and  C_15
DOCKED: REMARK                            x       y       z     vdW  Elec       q    Type
DOCKED: REMARK                         _______ _______ _______ _____ _____    ______ ____
DOCKED: USER                              x       y       z     vdW  Elec       q    Type
DOCKED: USER                           _______ _______ _______ _____ _____    ______ ____
DOCKED: ROOT
DOCKED: ATOM      1  C   UNL     1      37.901  15.332 120.899 -0.22 -0.00    +0.000 A 
DOCKED: ATOM      2  C   UNL     1      37.830  13.962 121.190 -0.36 -0.00    +0.000 A 
DOCKED: ATOM      3  C   UNL     1      37.408  13.042 120.208 -0.43 -0.00    +0.000 A 
DOCKED: ATOM      4  C   UNL     1      37.045  13.523 118.940 -0.38 -0.00    +0.000 A 
DOCKED: ATOM      5  C   UNL     1      37.127  14.887 118.646 -0.24 -0.00    +0.000 A 
DOCKED: ATOM      6  C   UNL     1      37.557  15.789 119.620 -0.17 -0.00    +0.000 A 
DOCKED: ATOM      7  CM  UNL     1      37.478  14.422 119.918 +0.00 -0.00    +0.000 AC
DOCKED: ENDROOT
DOCKED: BRANCH   1   8
DOCKED: ATOM      8  O   UNL     1      37.997  17.872 121.777 -0.10 -0.00    +0.000 OA
DOCKED: ATOM      9  S   UNL     1      38.409  16.473 122.142 -0.27 -0.00    +0.000 S 
DOCKED: ATOM     10  O   UNL     1      39.904  16.417 122.264 -0.24 -0.00    +0.000 OA
DOCKED: BRANCH   8  10
DOCKED: ATOM     11  N   UNL     1      37.694  16.052 123.667 -0.29 -0.00    +0.000 N 
DOCKED: ATOM     12  H   UNL     1      38.205  15.465 124.270 +0.00 -0.00    +0.000 HD
DOCKED: BRANCH  10  12
DOCKED: ATOM     13  C   UNL     1      36.402  16.510 124.103 -0.25 -0.00    +0.000 A 
DOCKED: ATOM     14  C   UNL     1      35.305  15.635 124.227 -0.46 -0.00    +0.000 A 
DOCKED: ATOM     15  C   UNL     1      34.066  16.115 124.664 -0.46 -0.00    +0.000 A 
DOCKED: ATOM     16  C   UNL     1      33.905  17.467 124.972 -0.34 -0.00    +0.000 A 
DOCKED: ATOM     17  C   UNL     1      34.984  18.344 124.843 -0.28 -0.00    +0.000 A 
DOCKED: ATOM     18  C   UNL     1      36.225  17.870 124.409 -0.23 -0.00    +0.000 A 
DOCKED: ATOM     19  CM  UNL     1      35.148  16.991 124.536 -0.26 -0.00    +0.000 AC
DOCKED: ENDBRANCH  10  12
DOCKED: ENDBRANCH   8  10
DOCKED: ENDBRANCH   1   8
DOCKED: BRANCH   3  18
DOCKED: ATOM     20  C   UNL     1      37.291  11.586 120.475 -0.36 -0.00    +0.000 C 
DOCKED: ATOM     21  C   UNL     1      37.150  11.062 121.702 -0.43 -0.00    +0.000 C 
DOCKED: BRANCH  19  20
DOCKED: ATOM     22  C   UNL     1      37.032   9.612 121.959 -0.61 -0.00    +0.000 C 
DOCKED: ATOM     23  N   UNL     1      37.074   9.061 123.280 -0.62 -0.00    +0.000 N 
DOCKED: ATOM     24  O   UNL     1      37.067   7.719 123.456 -2.70 -0.00    +0.000 OA
DOCKED: ATOM     25  O   UNL     1      36.863   8.841 120.977 -2.65 -0.00    +0.000 OA
DOCKED: ATOM     26  H   UNL     1      37.108   9.660 124.062 -0.54 -0.00    +0.000 HD
DOCKED: ENDBRANCH  19  20
DOCKED: ENDBRANCH   3  18
DOCKED: TORSDOF 5DOCKED: TER
DOCKED: ENDMDL
________________________________________________________________________________


	BEGINNING GENETIC ALGORITHM DOCKING 69 of 100
Run: 69 Seed: 688629106 565674101 [ Run 69 of 100 GA/GALS ]
Beginning LAMARCKIAN GENETIC ALGORITHM (LGA), with a maximum of 2500000 energy evaluations.

Final-Value: -14.249


	FINAL GENETIC ALGORITHM DOCKED STATE
	_______________________________________________


Detailed state:  trans 37.842 13.688 122.084 quatxyzw 0.142198 0.001587 0.921567 0.361236 center 0.217 0.012 -0.211 ntor 5 -51.8582 -174.6948 24.0650 113.9138 -77.4576
State:	 37.842  13.688 122.084   0.152  0.002  0.988 137.648    -51.86 -174.69   24.07  113.91  -77.46

DOCKED: MODEL       69
DOCKED: USER    Run = 69
DOCKED: USER    DPF = ligand_dock.biased.dpf
DOCKED: USER  
DOCKED: USER    Estimated Free Energy of Binding    =  -11.51 kcal/mol  [=(1)+(2)+(3)-(4)]
DOCKED: USER    Estimated Inhibition Constant, Ki   =    3.63 nM (nanomolar)  [Temperature = 298.15 K]
DOCKED: USER    
DOCKED: USER    (1) Final Intermolecular Energy     =  -13.01 kcal/mol
DOCKED: USER        vdW + Hbond + desolv Energy     =  -13.01 kcal/mol
DOCKED: USER        Electrostatic Energy            =   +0.00 kcal/mol
DOCKED: USER    (2) Final Total Internal Energy     =   -1.24 kcal/mol
DOCKED: USER    (3) Torsional Free Energy           =   +1.49 kcal/mol
DOCKED: USER    (4) Unbound System's Energy  [=(2)] =   -1.24 kcal/mol
DOCKED: USER    
DOCKED: USER    
DOCKED: USER    NEWDPF move ligand.dum.pdbqt
DOCKED: USER    NEWDPF about 0.217000 0.012000 -0.211000
DOCKED: USER    NEWDPF tran0 37.841532 13.688334 122.084104
DOCKED: USER    NEWDPF quaternion0 0.142198 0.001587 0.921567 0.361236
DOCKED: USER    NEWDPF axisangle0 0.152496 0.001702 0.988303 137.647739
DOCKED: USER    NEWDPF quat0 0.152496 0.001702 0.988303 137.647739
DOCKED: USER    NEWDPF dihe0 -51.86 -174.69 24.07 113.91 -77.46 
DOCKED: USER  keepresnum = 1 
DOCKED: USER  
DOCKED: REMARK  Name = 
DOCKED: REMARK  5 active torsions:
DOCKED: REMARK  status: ('A' for Active; 'I' for Inactive)
DOCKED: REMARK    1  A    between atoms: S_2  and  N_3
DOCKED: REMARK    2  A    between atoms: S_2  and  C_10
DOCKED: REMARK    3  A    between atoms: N_3  and  C_4
DOCKED: REMARK    4  A    between atoms: C_12  and  C_13
DOCKED: REMARK    5  A    between atoms: C_14  and  C_15
DOCKED: REMARK                            x       y       z     vdW  Elec       q    Type
DOCKED: REMARK                         _______ _______ _______ _____ _____    ______ ____
DOCKED: USER                              x       y       z     vdW  Elec       q    Type
DOCKED: USER                           _______ _______ _______ _____ _____    ______ ____
DOCKED: ROOT
DOCKED: ATOM      1  C   UNL     1      36.794  15.602 122.101 -0.26 -0.00    +0.000 A 
DOCKED: ATOM      2  C   UNL     1      36.847  14.201 122.069 -0.31 -0.00    +0.000 A 
DOCKED: ATOM      3  C   UNL     1      36.270  13.438 123.105 -0.49 -0.00    +0.000 A 
DOCKED: ATOM      4  C   UNL     1      35.655  14.106 124.176 -0.41 -0.00    +0.000 A 
DOCKED: ATOM      5  C   UNL     1      35.593  15.502 124.203 -0.43 -0.00    +0.000 A 
DOCKED: ATOM      6  C   UNL     1      36.156  16.249 123.167 -0.32 -0.00    +0.000 A 
DOCKED: ATOM      7  CM  UNL     1      36.219  14.849 123.136 +0.00 -0.00    +0.000 AC
DOCKED: ENDROOT
DOCKED: BRANCH   1   8
DOCKED: ATOM      8  O   UNL     1      36.561  17.535 120.246 -0.14 -0.00    +0.000 OA
DOCKED: ATOM      9  S   UNL     1      37.539  16.543 120.811 -0.21 -0.00    +0.000 S 
DOCKED: ATOM     10  O   UNL     1      37.972  15.605 119.721 -0.19 -0.00    +0.000 OA
DOCKED: BRANCH   8  10
DOCKED: ATOM     11  N   UNL     1      38.925  17.395 121.416 -0.09 -0.00    +0.000 N 
DOCKED: ATOM     12  H   UNL     1      38.916  18.379 121.377 +0.00 -0.00    +0.000 HD
DOCKED: BRANCH  10  12
DOCKED: ATOM     13  C   UNL     1      40.086  16.751 121.970 -0.18 -0.00    +0.000 A 
DOCKED: ATOM     14  C   UNL     1      41.243  17.474 122.321 -0.18 -0.00    +0.000 A 
DOCKED: ATOM     15  C   UNL     1      42.349  16.814 122.867 -0.36 -0.00    +0.000 A 
DOCKED: ATOM     16  C   UNL     1      42.316  15.432 123.062 -0.34 +0.00    +0.000 A 
DOCKED: ATOM     17  C   UNL     1      41.177  14.705 122.709 -0.48 -0.00    +0.000 A 
DOCKED: ATOM     18  C   UNL     1      40.069  15.359 122.164 -0.35 -0.00    +0.000 A 
DOCKED: ATOM     19  CM  UNL     1      41.207  16.089 122.515 +0.00 -0.00    +0.000 AC
DOCKED: ENDBRANCH  10  12
DOCKED: ENDBRANCH   8  10
DOCKED: ENDBRANCH   1   8
DOCKED: BRANCH   3  18
DOCKED: ATOM     20  C   UNL     1      36.322  11.955 123.130 -0.68 -0.00    +0.000 C 
DOCKED: ATOM     21  C   UNL     1      36.936  11.215 122.194 -0.59 -0.00    +0.000 C 
DOCKED: BRANCH  19  20
DOCKED: ATOM     22  C   UNL     1      36.986   9.739 122.227 -0.61 -0.00    +0.000 C 
DOCKED: ATOM     23  N   UNL     1      37.057   9.001 123.454 -0.59 -0.00    +0.000 N 
DOCKED: ATOM     24  O   UNL     1      37.206   7.657 123.428 -2.60 -0.00    +0.000 OA
DOCKED: ATOM     25  O   UNL     1      36.938   9.112 121.135 -2.69 -0.00    +0.000 OA
DOCKED: ATOM     26  H   UNL     1      36.998   9.474 124.316 -0.51 -0.00    +0.000 HD
DOCKED: ENDBRANCH  19  20
DOCKED: ENDBRANCH   3  18
DOCKED: TORSDOF 5DOCKED: TER
DOCKED: ENDMDL
________________________________________________________________________________


	BEGINNING GENETIC ALGORITHM DOCKING 70 of 100
Run: 70 Seed: 587687341 1023458977 [ Run 70 of 100 GA/GALS ]
Beginning LAMARCKIAN GENETIC ALGORITHM (LGA), with a maximum of 2500000 energy evaluations.

Final-Value: -14.080


	FINAL GENETIC ALGORITHM DOCKED STATE
	_______________________________________________


Detailed state:  trans 38.195 14.189 122.236 quatxyzw -0.040168 0.018211 -0.874326 -0.483331 center 0.217 0.012 -0.211 ntor 5 71.1654 91.1594 -92.5179 -8.1596 12.3191
State:	 38.195  14.189 122.236  -0.046  0.021 -0.999 -122.194     71.17   91.16  -92.52   -8.16   12.32

DOCKED: MODEL       70
DOCKED: USER    Run = 70
DOCKED: USER    DPF = ligand_dock.biased.dpf
DOCKED: USER  
DOCKED: USER    Estimated Free Energy of Binding    =  -11.44 kcal/mol  [=(1)+(2)+(3)-(4)]
DOCKED: USER    Estimated Inhibition Constant, Ki   =    4.15 nM (nanomolar)  [Temperature = 298.15 K]
DOCKED: USER    
DOCKED: USER    (1) Final Intermolecular Energy     =  -12.93 kcal/mol
DOCKED: USER        vdW + Hbond + desolv Energy     =  -12.93 kcal/mol
DOCKED: USER        Electrostatic Energy            =   +0.00 kcal/mol
DOCKED: USER    (2) Final Total Internal Energy     =   -1.15 kcal/mol
DOCKED: USER    (3) Torsional Free Energy           =   +1.49 kcal/mol
DOCKED: USER    (4) Unbound System's Energy  [=(2)] =   -1.15 kcal/mol
DOCKED: USER    
DOCKED: USER    
DOCKED: USER    NEWDPF move ligand.dum.pdbqt
DOCKED: USER    NEWDPF about 0.217000 0.012000 -0.211000
DOCKED: USER    NEWDPF tran0 38.194641 14.188793 122.236302
DOCKED: USER    NEWDPF quaternion0 -0.040168 0.018211 -0.874326 -0.483331
DOCKED: USER    NEWDPF axisangle0 -0.045883 0.020802 -0.998730 -122.193673
DOCKED: USER    NEWDPF quat0 -0.045883 0.020802 -0.998730 -122.193673
DOCKED: USER    NEWDPF dihe0 71.17 91.16 -92.52 -8.16 12.32 
DOCKED: USER  keepresnum = 1 
DOCKED: USER  
DOCKED: REMARK  Name = 
DOCKED: REMARK  5 active torsions:
DOCKED: REMARK  status: ('A' for Active; 'I' for Inactive)
DOCKED: REMARK    1  A    between atoms: S_2  and  N_3
DOCKED: REMARK    2  A    between atoms: S_2  and  C_10
DOCKED: REMARK    3  A    between atoms: N_3  and  C_4
DOCKED: REMARK    4  A    between atoms: C_12  and  C_13
DOCKED: REMARK    5  A    between atoms: C_14  and  C_15
DOCKED: REMARK                            x       y       z     vdW  Elec       q    Type
DOCKED: REMARK                         _______ _______ _______ _____ _____    ______ ____
DOCKED: USER                              x       y       z     vdW  Elec       q    Type
DOCKED: USER                           _______ _______ _______ _____ _____    ______ ____
DOCKED: ROOT
DOCKED: ATOM      1  C   UNL     1      36.691  15.768 122.303 -0.27 -0.00    +0.000 A 
DOCKED: ATOM      2  C   UNL     1      37.113  14.445 122.109 -0.35 -0.00    +0.000 A 
DOCKED: ATOM      3  C   UNL     1      36.617  13.408 122.926 -0.50 -0.00    +0.000 A 
DOCKED: ATOM      4  C   UNL     1      35.706  13.726 123.946 -0.42 -0.00    +0.000 A 
DOCKED: ATOM      5  C   UNL     1      35.277  15.043 124.132 -0.49 -0.00    +0.000 A 
DOCKED: ATOM      6  C   UNL     1      35.764  16.061 123.311 -0.36 -0.00    +0.000 A 
DOCKED: ATOM      7  CM  UNL     1      36.195  14.741 123.121 +0.00 -0.00    +0.000 AC
DOCKED: ENDROOT
DOCKED: BRANCH   1   8
DOCKED: ATOM      8  O   UNL     1      37.549  18.308 122.094 -0.11 -0.00    +0.000 OA
DOCKED: ATOM      9  S   UNL     1      37.336  17.057 121.289 -0.19 -0.00    +0.000 S 
DOCKED: ATOM     10  O   UNL     1      36.352  17.342 120.190 -0.17 -0.00    +0.000 OA
DOCKED: BRANCH   8  10
DOCKED: ATOM     11  N   UNL     1      38.848  16.568 120.590 -0.12 -0.00    +0.000 N 
DOCKED: ATOM     12  H   UNL     1      38.912  16.528 119.609 +0.00 -0.00    +0.000 HD
DOCKED: BRANCH  10  12
DOCKED: ATOM     13  C   UNL     1      40.013  16.218 121.359 -0.19 -0.00    +0.000 A 
DOCKED: ATOM     14  C   UNL     1      40.149  14.956 121.970 -0.37 -0.00    +0.000 A 
DOCKED: ATOM     15  C   UNL     1      41.301  14.647 122.702 -0.49 -0.00    +0.000 A 
DOCKED: ATOM     16  C   UNL     1      42.320  15.592 122.838 -0.42 -0.00    +0.000 A 
DOCKED: ATOM     17  C   UNL     1      42.190  16.849 122.244 -0.29 -0.00    +0.000 A 
DOCKED: ATOM     18  C   UNL     1      41.042  17.162 121.511 -0.14 -0.00    +0.000 A 
DOCKED: ATOM     19  CM  UNL     1      41.169  15.904 122.104 +0.00 -0.00    +0.000 AC
DOCKED: ENDBRANCH  10  12
DOCKED: ENDBRANCH   8  10
DOCKED: ENDBRANCH   1   8
DOCKED: BRANCH   3  18
DOCKED: ATOM     20  C   UNL     1      37.052  11.996 122.778 -0.63 -0.00    +0.000 C 
DOCKED: ATOM     21  C   UNL     1      36.234  11.000 122.404 -0.67 -0.00    +0.000 C 
DOCKED: BRANCH  19  20
DOCKED: ATOM     22  C   UNL     1      36.674   9.598 122.257 -0.70 -0.00    +0.000 C 
DOCKED: ATOM     23  N   UNL     1      36.645   8.666 123.345 -0.64 -0.00    +0.000 N 
DOCKED: ATOM     24  O   UNL     1      37.157   7.423 123.188 -2.35 -0.00    +0.000 OA
DOCKED: ATOM     25  O   UNL     1      37.065   9.207 121.124 -2.74 -0.00    +0.000 OA
DOCKED: ATOM     26  H   UNL     1      36.252   8.931 124.209 -0.32 -0.00    +0.000 HD
DOCKED: ENDBRANCH  19  20
DOCKED: ENDBRANCH   3  18
DOCKED: TORSDOF 5DOCKED: TER
DOCKED: ENDMDL
________________________________________________________________________________


	BEGINNING GENETIC ALGORITHM DOCKING 71 of 100
Run: 71 Seed: 1621967736 591589860 [ Run 71 of 100 GA/GALS ]
Beginning LAMARCKIAN GENETIC ALGORITHM (LGA), with a maximum of 2500000 energy evaluations.

Final-Value: -13.152


	FINAL GENETIC ALGORITHM DOCKED STATE
	_______________________________________________


Detailed state:  trans 37.710 13.600 119.719 quatxyzw -0.410175 0.159097 -0.843361 -0.308525 center 0.217 0.012 -0.211 ntor 5 173.1558 180.0000 -165.6556 130.7148 -34.0277
State:	 37.710  13.600 119.719  -0.431  0.167 -0.887 -144.059    173.16  180.00 -165.66  130.71  -34.03

DOCKED: MODEL       71
DOCKED: USER    Run = 71
DOCKED: USER    DPF = ligand_dock.biased.dpf
DOCKED: USER  
DOCKED: USER    Estimated Free Energy of Binding    =  -10.56 kcal/mol  [=(1)+(2)+(3)-(4)]
DOCKED: USER    Estimated Inhibition Constant, Ki   =   18.14 nM (nanomolar)  [Temperature = 298.15 K]
DOCKED: USER    
DOCKED: USER    (1) Final Intermolecular Energy     =  -12.05 kcal/mol
DOCKED: USER        vdW + Hbond + desolv Energy     =  -12.05 kcal/mol
DOCKED: USER        Electrostatic Energy            =   +0.00 kcal/mol
DOCKED: USER    (2) Final Total Internal Energy     =   -1.10 kcal/mol
DOCKED: USER    (3) Torsional Free Energy           =   +1.49 kcal/mol
DOCKED: USER    (4) Unbound System's Energy  [=(2)] =   -1.10 kcal/mol
DOCKED: USER    
DOCKED: USER    
DOCKED: USER    NEWDPF move ligand.dum.pdbqt
DOCKED: USER    NEWDPF about 0.217000 0.012000 -0.211000
DOCKED: USER    NEWDPF tran0 37.710230 13.599886 119.719321
DOCKED: USER    NEWDPF quaternion0 -0.410175 0.159097 -0.843361 -0.308525
DOCKED: USER    NEWDPF axisangle0 -0.431211 0.167256 -0.886613 -144.059284
DOCKED: USER    NEWDPF quat0 -0.431211 0.167256 -0.886613 -144.059284
DOCKED: USER    NEWDPF dihe0 173.16 180.00 -165.66 130.71 -34.03 
DOCKED: USER  keepresnum = 1 
DOCKED: USER  
DOCKED: REMARK  Name = 
DOCKED: REMARK  5 active torsions:
DOCKED: REMARK  status: ('A' for Active; 'I' for Inactive)
DOCKED: REMARK    1  A    between atoms: S_2  and  N_3
DOCKED: REMARK    2  A    between atoms: S_2  and  C_10
DOCKED: REMARK    3  A    between atoms: N_3  and  C_4
DOCKED: REMARK    4  A    between atoms: C_12  and  C_13
DOCKED: REMARK    5  A    between atoms: C_14  and  C_15
DOCKED: REMARK                            x       y       z     vdW  Elec       q    Type
DOCKED: REMARK                         _______ _______ _______ _____ _____    ______ ____
DOCKED: USER                              x       y       z     vdW  Elec       q    Type
DOCKED: USER                           _______ _______ _______ _____ _____    ______ ____
DOCKED: ROOT
DOCKED: ATOM      1  C   UNL     1      37.097  15.555 120.469 -0.19 -0.00    +0.000 A 
DOCKED: ATOM      2  C   UNL     1      36.966  14.165 120.334 -0.18 -0.00    +0.000 A 
DOCKED: ATOM      3  C   UNL     1      37.038  13.325 121.465 -0.39 -0.00    +0.000 A 
DOCKED: ATOM      4  C   UNL     1      37.259  13.904 122.725 -0.45 -0.00    +0.000 A 
DOCKED: ATOM      5  C   UNL     1      37.379  15.290 122.861 -0.34 -0.00    +0.000 A 
DOCKED: ATOM      6  C   UNL     1      37.294  16.114 121.738 -0.20 -0.00    +0.000 A 
DOCKED: ATOM      7  CM  UNL     1      37.172  14.725 121.598 +0.00 -0.00    +0.000 AC
DOCKED: ENDROOT
DOCKED: BRANCH   1   8
DOCKED: ATOM      8  O   UNL     1      36.981  18.038 119.444 -0.08 -0.00    +0.000 OA
DOCKED: ATOM      9  S   UNL     1      37.027  16.590 119.045 -0.17 -0.00    +0.000 S 
DOCKED: ATOM     10  O   UNL     1      35.786  16.255 118.268 -0.18 -0.00    +0.000 OA
DOCKED: BRANCH   8  10
DOCKED: ATOM     11  N   UNL     1      38.419  16.322 118.042 -0.10 -0.00    +0.000 N 
DOCKED: ATOM     12  H   UNL     1      39.150  16.981 118.082 +0.00 -0.00    +0.000 HD
DOCKED: BRANCH  10  12
DOCKED: ATOM     13  C   UNL     1      38.568  15.197 117.158 -0.18 -0.00    +0.000 A 
DOCKED: ATOM     14  C   UNL     1      39.587  15.144 116.186 -0.25 -0.00    +0.000 A 
DOCKED: ATOM     15  C   UNL     1      39.707  14.029 115.351 -0.34 -0.00    +0.000 A 
DOCKED: ATOM     16  C   UNL     1      38.813  12.963 115.469 -0.51 -0.00    +0.000 A 
DOCKED: ATOM     17  C   UNL     1      37.794  13.011 116.423 -0.36 -0.00    +0.000 A 
DOCKED: ATOM     18  C   UNL     1      37.670  14.122 117.261 -0.31 -0.00    +0.000 A 
DOCKED: ATOM     19  CM  UNL     1      38.689  14.077 116.308 +0.00 -0.00    +0.000 AC
DOCKED: ENDBRANCH  10  12
DOCKED: ENDBRANCH   8  10
DOCKED: ENDBRANCH   1   8
DOCKED: BRANCH   3  18
DOCKED: ATOM     20  C   UNL     1      36.931  11.848 121.372 -0.55 -0.00    +0.000 C 
DOCKED: ATOM     21  C   UNL     1      37.158  11.018 122.402 -0.44 -0.00    +0.000 C 
DOCKED: BRANCH  19  20
DOCKED: ATOM     22  C   UNL     1      37.047   9.548 122.302 -0.61 -0.00    +0.000 C 
DOCKED: ATOM     23  N   UNL     1      37.065   8.698 123.455 -0.64 -0.00    +0.000 N 
DOCKED: ATOM     24  O   UNL     1      37.066   7.353 123.305 -2.39 -0.00    +0.000 OA
DOCKED: ATOM     25  O   UNL     1      36.907   9.033 121.161 -2.67 -0.00    +0.000 OA
DOCKED: ATOM     26  H   UNL     1      37.077   9.092 124.357 -0.51 -0.00    +0.000 HD
DOCKED: ENDBRANCH  19  20
DOCKED: ENDBRANCH   3  18
DOCKED: TORSDOF 5DOCKED: TER
DOCKED: ENDMDL
________________________________________________________________________________


	BEGINNING GENETIC ALGORITHM DOCKING 72 of 100
Run: 72 Seed: 1109993114 604086892 [ Run 72 of 100 GA/GALS ]
Beginning LAMARCKIAN GENETIC ALGORITHM (LGA), with a maximum of 2500000 energy evaluations.

Final-Value: -14.366


	FINAL GENETIC ALGORITHM DOCKED STATE
	_______________________________________________


Detailed state:  trans 36.556 13.566 121.873 quatxyzw 0.850091 -0.369315 -0.331816 -0.175642 center 0.217 0.012 -0.211 ntor 5 126.9123 -55.9964 50.7814 179.8844 -63.5819
State:	 36.556  13.566 121.873   0.864 -0.375 -0.337 -159.768    126.91  -56.00   50.78  179.88  -63.58

DOCKED: MODEL       72
DOCKED: USER    Run = 72
DOCKED: USER    DPF = ligand_dock.biased.dpf
DOCKED: USER  
DOCKED: USER    Estimated Free Energy of Binding    =  -11.87 kcal/mol  [=(1)+(2)+(3)-(4)]
DOCKED: USER    Estimated Inhibition Constant, Ki   =    2.00 nM (nanomolar)  [Temperature = 298.15 K]
DOCKED: USER    
DOCKED: USER    (1) Final Intermolecular Energy     =  -13.36 kcal/mol
DOCKED: USER        vdW + Hbond + desolv Energy     =  -13.36 kcal/mol
DOCKED: USER        Electrostatic Energy            =   +0.00 kcal/mol
DOCKED: USER    (2) Final Total Internal Energy     =   -1.01 kcal/mol
DOCKED: USER    (3) Torsional Free Energy           =   +1.49 kcal/mol
DOCKED: USER    (4) Unbound System's Energy  [=(2)] =   -1.01 kcal/mol
DOCKED: USER    
DOCKED: USER    
DOCKED: USER    NEWDPF move ligand.dum.pdbqt
DOCKED: USER    NEWDPF about 0.217000 0.012000 -0.211000
DOCKED: USER    NEWDPF tran0 36.556408 13.565842 121.872666
DOCKED: USER    NEWDPF quaternion0 0.850091 -0.369315 -0.331816 -0.175642
DOCKED: USER    NEWDPF axisangle0 0.863515 -0.375147 -0.337056 -159.768015
DOCKED: USER    NEWDPF quat0 0.863515 -0.375147 -0.337056 -159.768015
DOCKED: USER    NEWDPF dihe0 126.91 -56.00 50.78 179.88 -63.58 
DOCKED: USER  keepresnum = 1 
DOCKED: USER  
DOCKED: REMARK  Name = 
DOCKED: REMARK  5 active torsions:
DOCKED: REMARK  status: ('A' for Active; 'I' for Inactive)
DOCKED: REMARK    1  A    between atoms: S_2  and  N_3
DOCKED: REMARK    2  A    between atoms: S_2  and  C_10
DOCKED: REMARK    3  A    between atoms: N_3  and  C_4
DOCKED: REMARK    4  A    between atoms: C_12  and  C_13
DOCKED: REMARK    5  A    between atoms: C_14  and  C_15
DOCKED: REMARK                            x       y       z     vdW  Elec       q    Type
DOCKED: REMARK                         _______ _______ _______ _____ _____    ______ ____
DOCKED: USER                              x       y       z     vdW  Elec       q    Type
DOCKED: USER                           _______ _______ _______ _____ _____    ______ ____
DOCKED: ROOT
DOCKED: ATOM      1  C   UNL     1      37.403  15.375 120.996 -0.22 -0.00    +0.000 A 
DOCKED: ATOM      2  C   UNL     1      37.418  14.010 121.314 -0.35 -0.00    +0.000 A 
DOCKED: ATOM      3  C   UNL     1      37.450  13.037 120.293 -0.43 -0.00    +0.000 A 
DOCKED: ATOM      4  C   UNL     1      37.451  13.460 118.954 -0.37 -0.00    +0.000 A 
DOCKED: ATOM      5  C   UNL     1      37.447  14.822 118.638 -0.24 -0.00    +0.000 A 
DOCKED: ATOM      6  C   UNL     1      37.427  15.777 119.655 -0.17 -0.00    +0.000 A 
DOCKED: ATOM      7  CM  UNL     1      37.433  14.413 119.975 +0.00 -0.00    +0.000 AC
DOCKED: ENDROOT
DOCKED: BRANCH   1   8
DOCKED: ATOM      8  O   UNL     1      38.198  17.765 121.939 -0.11 -0.00    +0.000 OA
DOCKED: ATOM      9  S   UNL     1      37.341  16.579 122.281 -0.29 -0.00    +0.000 S 
DOCKED: ATOM     10  O   UNL     1      37.849  15.955 123.549 -0.36 -0.00    +0.000 OA
DOCKED: BRANCH   8  10
DOCKED: ATOM     11  N   UNL     1      35.706  17.113 122.522 -0.26 -0.00    +0.000 N 
DOCKED: ATOM     12  H   UNL     1      35.204  17.432 121.737 -0.01 -0.00    +0.000 HD
DOCKED: BRANCH  10  12
DOCKED: ATOM     13  C   UNL     1      35.042  17.117 123.798 -0.36 -0.00    +0.000 A 
DOCKED: ATOM     14  C   UNL     1      34.702  15.923 124.465 -0.49 -0.00    +0.000 A 
DOCKED: ATOM     15  C   UNL     1      34.066  15.966 125.709 -0.37 -0.00    +0.000 A 
DOCKED: ATOM     16  C   UNL     1      33.756  17.194 126.297 -0.36 -0.00    +0.000 A 
DOCKED: ATOM     17  C   UNL     1      34.080  18.383 125.640 -0.30 -0.00    +0.000 A 
DOCKED: ATOM     18  C   UNL     1      34.717  18.346 124.397 -0.29 -0.00    +0.000 A 
DOCKED: ATOM     19  CM  UNL     1      34.393  17.155 125.051 -0.31 -0.00    +0.000 AC
DOCKED: ENDBRANCH  10  12
DOCKED: ENDBRANCH   8  10
DOCKED: ENDBRANCH   1   8
DOCKED: BRANCH   3  18
DOCKED: ATOM     20  C   UNL     1      37.441  11.580 120.576 -0.47 -0.00    +0.000 C 
DOCKED: ATOM     21  C   UNL     1      36.883  11.037 121.668 -0.53 -0.00    +0.000 C 
DOCKED: BRANCH  19  20
DOCKED: ATOM     22  C   UNL     1      36.875   9.585 121.942 -0.64 -0.00    +0.000 C 
DOCKED: ATOM     23  N   UNL     1      36.987   9.054 123.268 -0.63 -0.00    +0.000 N 
DOCKED: ATOM     24  O   UNL     1      37.082   7.717 123.457 -2.70 -0.00    +0.000 OA
DOCKED: ATOM     25  O   UNL     1      36.740   8.792 120.972 -2.58 -0.00    +0.000 OA
DOCKED: ATOM     26  H   UNL     1      36.996   9.662 124.043 -0.52 -0.00    +0.000 HD
DOCKED: ENDBRANCH  19  20
DOCKED: ENDBRANCH   3  18
DOCKED: TORSDOF 5DOCKED: TER
DOCKED: ENDMDL
________________________________________________________________________________


	BEGINNING GENETIC ALGORITHM DOCKING 73 of 100
Run: 73 Seed: 2145344162 860816894 [ Run 73 of 100 GA/GALS ]
Beginning LAMARCKIAN GENETIC ALGORITHM (LGA), with a maximum of 2500000 energy evaluations.

Final-Value: -13.569


	FINAL GENETIC ALGORITHM DOCKED STATE
	_______________________________________________


Detailed state:  trans 37.953 13.901 121.928 quatxyzw 0.035981 -0.133986 0.907040 0.397531 center 0.217 0.012 -0.211 ntor 5 162.4630 164.0822 163.4118 130.9962 -74.4083
State:	 37.953  13.901 121.928   0.039 -0.146  0.989 133.152    162.46  164.08  163.41  131.00  -74.41

DOCKED: MODEL       73
DOCKED: USER    Run = 73
DOCKED: USER    DPF = ligand_dock.biased.dpf
DOCKED: USER  
DOCKED: USER    Estimated Free Energy of Binding    =  -10.95 kcal/mol  [=(1)+(2)+(3)-(4)]
DOCKED: USER    Estimated Inhibition Constant, Ki   =    9.45 nM (nanomolar)  [Temperature = 298.15 K]
DOCKED: USER    
DOCKED: USER    (1) Final Intermolecular Energy     =  -12.44 kcal/mol
DOCKED: USER        vdW + Hbond + desolv Energy     =  -12.44 kcal/mol
DOCKED: USER        Electrostatic Energy            =   +0.00 kcal/mol
DOCKED: USER    (2) Final Total Internal Energy     =   -1.13 kcal/mol
DOCKED: USER    (3) Torsional Free Energy           =   +1.49 kcal/mol
DOCKED: USER    (4) Unbound System's Energy  [=(2)] =   -1.13 kcal/mol
DOCKED: USER    
DOCKED: USER    
DOCKED: USER    NEWDPF move ligand.dum.pdbqt
DOCKED: USER    NEWDPF about 0.217000 0.012000 -0.211000
DOCKED: USER    NEWDPF tran0 37.953018 13.901379 121.928165
DOCKED: USER    NEWDPF quaternion0 0.035981 -0.133986 0.907040 0.397531
DOCKED: USER    NEWDPF axisangle0 0.039212 -0.146020 0.988504 133.152152
DOCKED: USER    NEWDPF quat0 0.039212 -0.146020 0.988504 133.152152
DOCKED: USER    NEWDPF dihe0 162.46 164.08 163.41 131.00 -74.41 
DOCKED: USER  keepresnum = 1 
DOCKED: USER  
DOCKED: REMARK  Name = 
DOCKED: REMARK  5 active torsions:
DOCKED: REMARK  status: ('A' for Active; 'I' for Inactive)
DOCKED: REMARK    1  A    between atoms: S_2  and  N_3
DOCKED: REMARK    2  A    between atoms: S_2  and  C_10
DOCKED: REMARK    3  A    between atoms: N_3  and  C_4
DOCKED: REMARK    4  A    between atoms: C_12  and  C_13
DOCKED: REMARK    5  A    between atoms: C_14  and  C_15
DOCKED: REMARK                            x       y       z     vdW  Elec       q    Type
DOCKED: REMARK                         _______ _______ _______ _____ _____    ______ ____
DOCKED: USER                              x       y       z     vdW  Elec       q    Type
DOCKED: USER                           _______ _______ _______ _____ _____    ______ ____
DOCKED: ROOT
DOCKED: ATOM      1  C   UNL     1      36.805  15.676 122.472 -0.29 -0.00    +0.000 A 
DOCKED: ATOM      2  C   UNL     1      36.937  14.367 121.985 -0.30 -0.00    +0.000 A 
DOCKED: ATOM      3  C   UNL     1      36.316  13.289 122.649 -0.41 -0.00    +0.000 A 
DOCKED: ATOM      4  C   UNL     1      35.577  13.548 123.814 -0.42 -0.00    +0.000 A 
DOCKED: ATOM      5  C   UNL     1      35.436  14.853 124.294 -0.44 -0.00    +0.000 A 
DOCKED: ATOM      6  C   UNL     1      36.045  15.915 123.623 -0.37 -0.00    +0.000 A 
DOCKED: ATOM      7  CM  UNL     1      36.186  14.608 123.139 +0.00 -0.00    +0.000 AC
DOCKED: ENDROOT
DOCKED: BRANCH   1   8
DOCKED: ATOM      8  O   UNL     1      36.645  18.141 121.411 -0.15 -0.00    +0.000 OA
DOCKED: ATOM      9  S   UNL     1      37.606  17.009 121.644 -0.20 -0.00    +0.000 S 
DOCKED: ATOM     10  O   UNL     1      38.116  16.517 120.320 -0.13 -0.00    +0.000 OA
DOCKED: BRANCH   8  10
DOCKED: ATOM     11  N   UNL     1      38.941  17.586 122.593 -0.14 -0.00    +0.000 N 
DOCKED: ATOM     12  H   UNL     1      38.814  18.411 123.115 +0.00 -0.00    +0.000 HD
DOCKED: BRANCH  10  12
DOCKED: ATOM     13  C   UNL     1      40.220  16.932 122.661 -0.22 -0.00    +0.000 A 
DOCKED: ATOM     14  C   UNL     1      41.408  17.643 122.922 -0.23 -0.00    +0.000 A 
DOCKED: ATOM     15  C   UNL     1      42.632  16.971 122.991 -0.36 -0.00    +0.000 A 
DOCKED: ATOM     16  C   UNL     1      42.687  15.590 122.795 -0.32 -0.00    +0.000 A 
DOCKED: ATOM     17  C   UNL     1      41.517  14.877 122.526 -0.50 -0.00    +0.000 A 
DOCKED: ATOM     18  C   UNL     1      40.290  15.544 122.457 -0.35 -0.00    +0.000 A 
DOCKED: ATOM     19  CM  UNL     1      41.459  16.259 122.725 +0.00 -0.00    +0.000 AC
DOCKED: ENDBRANCH  10  12
DOCKED: ENDBRANCH   8  10
DOCKED: ENDBRANCH   1   8
DOCKED: BRANCH   3  18
DOCKED: ATOM     20  C   UNL     1      36.446  11.884 122.189 -0.60 -0.00    +0.000 C 
DOCKED: ATOM     21  C   UNL     1      36.586  10.839 123.018 -0.69 -0.00    +0.000 C 
DOCKED: BRANCH  19  20
DOCKED: ATOM     22  C   UNL     1      36.712   9.442 122.552 -0.72 -0.00    +0.000 C 
DOCKED: ATOM     23  N   UNL     1      36.853   8.341 123.458 -0.69 -0.00    +0.000 N 
DOCKED: ATOM     24  O   UNL     1      37.070   7.094 122.980 -1.98 -0.00    +0.000 OA
DOCKED: ATOM     25  O   UNL     1      36.669   9.217 121.313 -2.52 -0.00    +0.000 OA
DOCKED: ATOM     26  H   UNL     1      36.791   8.492 124.429 -0.40 -0.00    +0.000 HD
DOCKED: ENDBRANCH  19  20
DOCKED: ENDBRANCH   3  18
DOCKED: TORSDOF 5DOCKED: TER
DOCKED: ENDMDL
________________________________________________________________________________


	BEGINNING GENETIC ALGORITHM DOCKING 74 of 100
Run: 74 Seed: 1519437083 759265704 [ Run 74 of 100 GA/GALS ]
Beginning LAMARCKIAN GENETIC ALGORITHM (LGA), with a maximum of 2500000 energy evaluations.

Final-Value: -13.856


	FINAL GENETIC ALGORITHM DOCKED STATE
	_______________________________________________


Detailed state:  trans 38.127 13.996 121.660 quatxyzw -0.170970 0.032465 -0.866627 -0.467624 center 0.217 0.012 -0.211 ntor 5 71.3562 -124.4542 -77.7272 84.8315 -61.9736
State:	 38.127  13.996 121.660  -0.193  0.037 -0.980 -124.240     71.36 -124.45  -77.73   84.83  -61.97

DOCKED: MODEL       74
DOCKED: USER    Run = 74
DOCKED: USER    DPF = ligand_dock.biased.dpf
DOCKED: USER  
DOCKED: USER    Estimated Free Energy of Binding    =  -11.06 kcal/mol  [=(1)+(2)+(3)-(4)]
DOCKED: USER    Estimated Inhibition Constant, Ki   =    7.78 nM (nanomolar)  [Temperature = 298.15 K]
DOCKED: USER    
DOCKED: USER    (1) Final Intermolecular Energy     =  -12.55 kcal/mol
DOCKED: USER        vdW + Hbond + desolv Energy     =  -12.55 kcal/mol
DOCKED: USER        Electrostatic Energy            =   +0.00 kcal/mol
DOCKED: USER    (2) Final Total Internal Energy     =   -1.30 kcal/mol
DOCKED: USER    (3) Torsional Free Energy           =   +1.49 kcal/mol
DOCKED: USER    (4) Unbound System's Energy  [=(2)] =   -1.30 kcal/mol
DOCKED: USER    
DOCKED: USER    
DOCKED: USER    NEWDPF move ligand.dum.pdbqt
DOCKED: USER    NEWDPF about 0.217000 0.012000 -0.211000
DOCKED: USER    NEWDPF tran0 38.126568 13.996003 121.660202
DOCKED: USER    NEWDPF quaternion0 -0.170970 0.032465 -0.866627 -0.467624
DOCKED: USER    NEWDPF axisangle0 -0.193421 0.036728 -0.980428 -124.239663
DOCKED: USER    NEWDPF quat0 -0.193421 0.036728 -0.980428 -124.239663
DOCKED: USER    NEWDPF dihe0 71.36 -124.45 -77.73 84.83 -61.97 
DOCKED: USER  keepresnum = 1 
DOCKED: USER  
DOCKED: REMARK  Name = 
DOCKED: REMARK  5 active torsions:
DOCKED: REMARK  status: ('A' for Active; 'I' for Inactive)
DOCKED: REMARK    1  A    between atoms: S_2  and  N_3
DOCKED: REMARK    2  A    between atoms: S_2  and  C_10
DOCKED: REMARK    3  A    between atoms: N_3  and  C_4
DOCKED: REMARK    4  A    between atoms: C_12  and  C_13
DOCKED: REMARK    5  A    between atoms: C_14  and  C_15
DOCKED: REMARK                            x       y       z     vdW  Elec       q    Type
DOCKED: REMARK                         _______ _______ _______ _____ _____    ______ ____
DOCKED: USER                              x       y       z     vdW  Elec       q    Type
DOCKED: USER                           _______ _______ _______ _____ _____    ______ ____
DOCKED: ROOT
DOCKED: ATOM      1  C   UNL     1      36.689  15.617 121.923 -0.23 -0.00    +0.000 A 
DOCKED: ATOM      2  C   UNL     1      37.047  14.269 121.771 -0.32 -0.00    +0.000 A 
DOCKED: ATOM      3  C   UNL     1      36.760  13.333 122.786 -0.50 -0.00    +0.000 A 
DOCKED: ATOM      4  C   UNL     1      36.125  13.777 123.957 -0.43 -0.00    +0.000 A 
DOCKED: ATOM      5  C   UNL     1      35.759  15.118 124.104 -0.43 -0.00    +0.000 A 
DOCKED: ATOM      6  C   UNL     1      36.036  16.035 123.089 -0.34 -0.00    +0.000 A 
DOCKED: ATOM      7  CM  UNL     1      36.403  14.691 122.938 +0.00 -0.00    +0.000 AC
DOCKED: ENDROOT
DOCKED: BRANCH   1   8
DOCKED: ATOM      8  O   UNL     1      35.978  17.798 120.521 -0.19 -0.00    +0.000 OA
DOCKED: ATOM      9  S   UNL     1      37.074  16.779 120.656 -0.21 -0.00    +0.000 S 
DOCKED: ATOM     10  O   UNL     1      37.222  16.042 119.356 -0.17 -0.00    +0.000 OA
DOCKED: BRANCH   8  10
DOCKED: ATOM     11  N   UNL     1      38.563  17.594 121.024 -0.07 -0.00    +0.000 N 
DOCKED: ATOM     12  H   UNL     1      38.662  18.529 120.731 +0.00 -0.00    +0.000 HD
DOCKED: BRANCH  10  12
DOCKED: ATOM     13  C   UNL     1      39.659  16.986 121.730 -0.14 -0.00    +0.000 A 
DOCKED: ATOM     14  C   UNL     1      40.359  17.666 122.745 -0.17 -0.00    +0.000 A 
DOCKED: ATOM     15  C   UNL     1      41.413  17.038 123.417 -0.33 -0.00    +0.000 A 
DOCKED: ATOM     16  C   UNL     1      41.783  15.734 123.081 -0.39 +0.00    +0.000 A 
DOCKED: ATOM     17  C   UNL     1      41.100  15.055 122.070 -0.40 -0.00    +0.000 A 
DOCKED: ATOM     18  C   UNL     1      40.046  15.677 121.396 -0.25 -0.00    +0.000 A 
DOCKED: ATOM     19  CM  UNL     1      40.727  16.359 122.406 +0.00 -0.00    +0.000 AC
DOCKED: ENDBRANCH  10  12
DOCKED: ENDBRANCH   8  10
DOCKED: ENDBRANCH   1   8
DOCKED: BRANCH   3  18
DOCKED: ATOM     20  C   UNL     1      37.141  11.902 122.685 -0.59 -0.00    +0.000 C 
DOCKED: ATOM     21  C   UNL     1      36.286  10.927 122.341 -0.67 -0.00    +0.000 C 
DOCKED: BRANCH  19  20
DOCKED: ATOM     22  C   UNL     1      36.673   9.504 122.240 -0.71 -0.00    +0.000 C 
DOCKED: ATOM     23  N   UNL     1      36.602   8.609 123.356 -0.64 -0.00    +0.000 N 
DOCKED: ATOM     24  O   UNL     1      37.066   7.343 123.241 -2.37 -0.00    +0.000 OA
DOCKED: ATOM     25  O   UNL     1      37.054   9.064 121.122 -2.72 -0.00    +0.000 OA
DOCKED: ATOM     26  H   UNL     1      36.215   8.915 124.208 -0.30 -0.00    +0.000 HD
DOCKED: ENDBRANCH  19  20
DOCKED: ENDBRANCH   3  18
DOCKED: TORSDOF 5DOCKED: TER
DOCKED: ENDMDL
________________________________________________________________________________


	BEGINNING GENETIC ALGORITHM DOCKING 75 of 100
Run: 75 Seed: 1880466159 134437911 [ Run 75 of 100 GA/GALS ]
Beginning LAMARCKIAN GENETIC ALGORITHM (LGA), with a maximum of 2500000 energy evaluations.

Final-Value: -13.892


	FINAL GENETIC ALGORITHM DOCKED STATE
	_______________________________________________


Detailed state:  trans 36.559 11.993 119.591 quatxyzw -0.616260 -0.150868 0.396513 -0.663506 center 0.217 0.012 -0.211 ntor 5 40.1850 81.1939 37.4896 -127.2949 -61.3449
State:	 36.559  11.993 119.591  -0.824 -0.202  0.530 -96.864     40.18   81.19   37.49 -127.29  -61.34

DOCKED: MODEL       75
DOCKED: USER    Run = 75
DOCKED: USER    DPF = ligand_dock.biased.dpf
DOCKED: USER  
DOCKED: USER    Estimated Free Energy of Binding    =  -11.46 kcal/mol  [=(1)+(2)+(3)-(4)]
DOCKED: USER    Estimated Inhibition Constant, Ki   =    4.01 nM (nanomolar)  [Temperature = 298.15 K]
DOCKED: USER    
DOCKED: USER    (1) Final Intermolecular Energy     =  -12.95 kcal/mol
DOCKED: USER        vdW + Hbond + desolv Energy     =  -12.95 kcal/mol
DOCKED: USER        Electrostatic Energy            =   +0.00 kcal/mol
DOCKED: USER    (2) Final Total Internal Energy     =   -0.94 kcal/mol
DOCKED: USER    (3) Torsional Free Energy           =   +1.49 kcal/mol
DOCKED: USER    (4) Unbound System's Energy  [=(2)] =   -0.94 kcal/mol
DOCKED: USER    
DOCKED: USER    
DOCKED: USER    NEWDPF move ligand.dum.pdbqt
DOCKED: USER    NEWDPF about 0.217000 0.012000 -0.211000
DOCKED: USER    NEWDPF tran0 36.558841 11.993021 119.591486
DOCKED: USER    NEWDPF quaternion0 -0.616260 -0.150868 0.396513 -0.663506
DOCKED: USER    NEWDPF axisangle0 -0.823689 -0.201649 0.529976 -96.864403
DOCKED: USER    NEWDPF quat0 -0.823689 -0.201649 0.529976 -96.864403
DOCKED: USER    NEWDPF dihe0 40.18 81.19 37.49 -127.29 -61.34 
DOCKED: USER  keepresnum = 1 
DOCKED: USER  
DOCKED: REMARK  Name = 
DOCKED: REMARK  5 active torsions:
DOCKED: REMARK  status: ('A' for Active; 'I' for Inactive)
DOCKED: REMARK    1  A    between atoms: S_2  and  N_3
DOCKED: REMARK    2  A    between atoms: S_2  and  C_10
DOCKED: REMARK    3  A    between atoms: N_3  and  C_4
DOCKED: REMARK    4  A    between atoms: C_12  and  C_13
DOCKED: REMARK    5  A    between atoms: C_14  and  C_15
DOCKED: REMARK                            x       y       z     vdW  Elec       q    Type
DOCKED: REMARK                         _______ _______ _______ _____ _____    ______ ____
DOCKED: USER                              x       y       z     vdW  Elec       q    Type
DOCKED: USER                           _______ _______ _______ _____ _____    ______ ____
DOCKED: ROOT
DOCKED: ATOM      1  C   UNL     1      36.972  11.729 121.717 -0.50 -0.00    +0.000 A 
DOCKED: ATOM      2  C   UNL     1      37.288  12.165 120.423 -0.45 -0.00    +0.000 A 
DOCKED: ATOM      3  C   UNL     1      37.494  13.535 120.159 -0.39 -0.00    +0.000 A 
DOCKED: ATOM      4  C   UNL     1      37.362  14.455 121.211 -0.30 -0.00    +0.000 A 
DOCKED: ATOM      5  C   UNL     1      37.058  14.019 122.504 -0.42 -0.00    +0.000 A 
DOCKED: ATOM      6  C   UNL     1      36.868  12.660 122.758 -0.54 -0.00    +0.000 A 
DOCKED: ATOM      7  CM  UNL     1      37.174  13.094 121.462 +0.00 -0.00    +0.000 AC
DOCKED: ENDROOT
DOCKED: BRANCH   1   8
DOCKED: ATOM      8  O   UNL     1      37.221   9.632 123.382 -0.81 -0.00    +0.000 OA
DOCKED: ATOM      9  S   UNL     1      36.695  10.017 122.028 -0.81 -0.00    +0.000 S 
DOCKED: ATOM     10  O   UNL     1      37.411   9.216 120.978 -2.47 -0.00    +0.000 OA
DOCKED: BRANCH   8  10
DOCKED: ATOM     11  N   UNL     1      34.997   9.663 121.958 -0.54 -0.00    +0.000 N 
DOCKED: ATOM     12  H   UNL     1      34.379  10.403 121.760 -0.13 -0.00    +0.000 HD
DOCKED: BRANCH  10  12
DOCKED: ATOM     13  C   UNL     1      34.439   8.354 122.172 -0.60 -0.00    +0.000 A 
DOCKED: ATOM     14  C   UNL     1      34.451   7.737 123.438 -0.63 -0.00    +0.000 A 
DOCKED: ATOM     15  C   UNL     1      33.890   6.468 123.610 -0.64 -0.00    +0.000 A 
DOCKED: ATOM     16  C   UNL     1      33.320   5.799 122.525 -0.55 -0.00    +0.000 A 
DOCKED: ATOM     17  C   UNL     1      33.311   6.398 121.264 -0.37 -0.00    +0.000 A 
DOCKED: ATOM     18  C   UNL     1      33.870   7.667 121.086 -0.54 -0.00    +0.000 A 
DOCKED: ATOM     19  CM  UNL     1      33.880   7.070 122.349 +0.00 -0.00    +0.000 AC
DOCKED: ENDBRANCH  10  12
DOCKED: ENDBRANCH   8  10
DOCKED: ENDBRANCH   1   8
DOCKED: BRANCH   3  18
DOCKED: ATOM     20  C   UNL     1      37.805  14.050 118.802 -0.32 -0.00    +0.000 C 
DOCKED: ATOM     21  C   UNL     1      37.641  13.335 117.678 -0.37 -0.00    +0.000 C 
DOCKED: BRANCH  19  20
DOCKED: ATOM     22  C   UNL     1      37.951  13.856 116.330 -0.40 -0.00    +0.000 C 
DOCKED: ATOM     23  N   UNL     1      39.254  14.330 115.972 -0.35 -0.00    +0.000 N 
DOCKED: ATOM     24  O   UNL     1      39.461  14.894 114.760 -0.33 -0.00    +0.000 OA
DOCKED: ATOM     25  O   UNL     1      37.037  13.856 115.463 -0.36 -0.00    +0.000 OA
DOCKED: ATOM     26  H   UNL     1      40.001  14.246 116.609 -0.13 -0.00    +0.000 HD
DOCKED: ENDBRANCH  19  20
DOCKED: ENDBRANCH   3  18
DOCKED: TORSDOF 5DOCKED: TER
DOCKED: ENDMDL
________________________________________________________________________________


	BEGINNING GENETIC ALGORITHM DOCKING 76 of 100
Run: 76 Seed: 576753450 1156584491 [ Run 76 of 100 GA/GALS ]
Beginning LAMARCKIAN GENETIC ALGORITHM (LGA), with a maximum of 2500000 energy evaluations.

Final-Value: -14.303


	FINAL GENETIC ALGORITHM DOCKED STATE
	_______________________________________________


Detailed state:  trans 37.847 13.738 122.112 quatxyzw -0.142259 -0.009064 -0.919988 -0.365106 center 0.217 0.012 -0.211 ntor 5 -48.3888 179.6721 15.9824 114.1318 -74.3105
State:	 37.847  13.738 122.112  -0.153 -0.010 -0.988 -137.172    -48.39  179.67   15.98  114.13  -74.31

DOCKED: MODEL       76
DOCKED: USER    Run = 76
DOCKED: USER    DPF = ligand_dock.biased.dpf
DOCKED: USER  
DOCKED: USER    Estimated Free Energy of Binding    =  -11.57 kcal/mol  [=(1)+(2)+(3)-(4)]
DOCKED: USER    Estimated Inhibition Constant, Ki   =    3.29 nM (nanomolar)  [Temperature = 298.15 K]
DOCKED: USER    
DOCKED: USER    (1) Final Intermolecular Energy     =  -13.06 kcal/mol
DOCKED: USER        vdW + Hbond + desolv Energy     =  -13.06 kcal/mol
DOCKED: USER        Electrostatic Energy            =   +0.00 kcal/mol
DOCKED: USER    (2) Final Total Internal Energy     =   -1.24 kcal/mol
DOCKED: USER    (3) Torsional Free Energy           =   +1.49 kcal/mol
DOCKED: USER    (4) Unbound System's Energy  [=(2)] =   -1.24 kcal/mol
DOCKED: USER    
DOCKED: USER    
DOCKED: USER    NEWDPF move ligand.dum.pdbqt
DOCKED: USER    NEWDPF about 0.217000 0.012000 -0.211000
DOCKED: USER    NEWDPF tran0 37.846787 13.737855 122.112253
DOCKED: USER    NEWDPF quaternion0 -0.142259 -0.009064 -0.919988 -0.365106
DOCKED: USER    NEWDPF axisangle0 -0.152807 -0.009736 -0.988208 -137.171808
DOCKED: USER    NEWDPF quat0 -0.152807 -0.009736 -0.988208 -137.171808
DOCKED: USER    NEWDPF dihe0 -48.39 179.67 15.98 114.13 -74.31 
DOCKED: USER  keepresnum = 1 
DOCKED: USER  
DOCKED: REMARK  Name = 
DOCKED: REMARK  5 active torsions:
DOCKED: REMARK  status: ('A' for Active; 'I' for Inactive)
DOCKED: REMARK    1  A    between atoms: S_2  and  N_3
DOCKED: REMARK    2  A    between atoms: S_2  and  C_10
DOCKED: REMARK    3  A    between atoms: N_3  and  C_4
DOCKED: REMARK    4  A    between atoms: C_12  and  C_13
DOCKED: REMARK    5  A    between atoms: C_14  and  C_15
DOCKED: REMARK                            x       y       z     vdW  Elec       q    Type
DOCKED: REMARK                         _______ _______ _______ _____ _____    ______ ____
DOCKED: USER                              x       y       z     vdW  Elec       q    Type
DOCKED: USER                           _______ _______ _______ _____ _____    ______ ____
DOCKED: ROOT
DOCKED: ATOM      1  C   UNL     1      36.779  15.641 122.100 -0.25 -0.00    +0.000 A 
DOCKED: ATOM      2  C   UNL     1      36.847  14.240 122.086 -0.31 -0.00    +0.000 A 
DOCKED: ATOM      3  C   UNL     1      36.273  13.484 123.129 -0.49 -0.00    +0.000 A 
DOCKED: ATOM      4  C   UNL     1      35.646  14.159 124.188 -0.42 -0.00    +0.000 A 
DOCKED: ATOM      5  C   UNL     1      35.569  15.555 124.197 -0.43 -0.00    +0.000 A 
DOCKED: ATOM      6  C   UNL     1      36.130  16.294 123.155 -0.32 -0.00    +0.000 A 
DOCKED: ATOM      7  CM  UNL     1      36.207  14.895 123.142 +0.00 -0.00    +0.000 AC
DOCKED: ENDROOT
DOCKED: BRANCH   1   8
DOCKED: ATOM      8  O   UNL     1      36.560  17.600 120.271 -0.14 -0.00    +0.000 OA
DOCKED: ATOM      9  S   UNL     1      37.521  16.573 120.801 -0.20 -0.00    +0.000 S 
DOCKED: ATOM     10  O   UNL     1      37.899  15.635 119.691 -0.19 -0.00    +0.000 OA
DOCKED: BRANCH   8  10
DOCKED: ATOM     11  N   UNL     1      38.946  17.377 121.381 -0.09 -0.00    +0.000 N 
DOCKED: ATOM     12  H   UNL     1      38.964  18.361 121.355 +0.00 -0.00    +0.000 HD
DOCKED: BRANCH  10  12
DOCKED: ATOM     13  C   UNL     1      40.102  16.692 121.896 -0.19 -0.00    +0.000 A 
DOCKED: ATOM     14  C   UNL     1      41.325  17.356 122.116 -0.18 -0.00    +0.000 A 
DOCKED: ATOM     15  C   UNL     1      42.424  16.659 122.627 -0.36 -0.00    +0.000 A 
DOCKED: ATOM     16  C   UNL     1      42.320  15.297 122.917 -0.36 +0.00    +0.000 A 
DOCKED: ATOM     17  C   UNL     1      41.114  14.628 122.694 -0.45 -0.00    +0.000 A 
DOCKED: ATOM     18  C   UNL     1      40.012  15.320 122.184 -0.35 -0.00    +0.000 A 
DOCKED: ATOM     19  CM  UNL     1      41.216  15.991 122.406 +0.00 -0.00    +0.000 AC
DOCKED: ENDBRANCH  10  12
DOCKED: ENDBRANCH   8  10
DOCKED: ENDBRANCH   1   8
DOCKED: BRANCH   3  18
DOCKED: ATOM     20  C   UNL     1      36.340  12.002 123.173 -0.68 -0.00    +0.000 C 
DOCKED: ATOM     21  C   UNL     1      36.828  11.249 122.176 -0.61 -0.00    +0.000 C 
DOCKED: BRANCH  19  20
DOCKED: ATOM     22  C   UNL     1      36.894   9.773 122.228 -0.63 -0.00    +0.000 C 
DOCKED: ATOM     23  N   UNL     1      37.064   9.057 123.457 -0.58 -0.00    +0.000 N 
DOCKED: ATOM     24  O   UNL     1      37.224   7.713 123.442 -2.65 -0.00    +0.000 OA
DOCKED: ATOM     25  O   UNL     1      36.770   9.128 121.153 -2.64 -0.00    +0.000 OA
DOCKED: ATOM     26  H   UNL     1      37.066   9.542 124.314 -0.54 -0.00    +0.000 HD
DOCKED: ENDBRANCH  19  20
DOCKED: ENDBRANCH   3  18
DOCKED: TORSDOF 5DOCKED: TER
DOCKED: ENDMDL
________________________________________________________________________________


	BEGINNING GENETIC ALGORITHM DOCKING 77 of 100
Run: 77 Seed: 49432832 1540178410 [ Run 77 of 100 GA/GALS ]
Beginning LAMARCKIAN GENETIC ALGORITHM (LGA), with a maximum of 2500000 energy evaluations.

Final-Value: -14.085


	FINAL GENETIC ALGORITHM DOCKED STATE
	_______________________________________________


Detailed state:  trans 39.114 13.037 123.428 quatxyzw 0.192312 -0.158086 -0.944668 -0.213605 center 0.217 0.012 -0.211 ntor 5 -63.7563 104.4379 -18.9657 -43.6744 156.4884
State:	 39.114  13.037 123.428   0.197 -0.162 -0.967 -155.333    -63.76  104.44  -18.97  -43.67  156.49

DOCKED: MODEL       77
DOCKED: USER    Run = 77
DOCKED: USER    DPF = ligand_dock.biased.dpf
DOCKED: USER  
DOCKED: USER    Estimated Free Energy of Binding    =  -11.53 kcal/mol  [=(1)+(2)+(3)-(4)]
DOCKED: USER    Estimated Inhibition Constant, Ki   =    3.55 nM (nanomolar)  [Temperature = 298.15 K]
DOCKED: USER    
DOCKED: USER    (1) Final Intermolecular Energy     =  -13.02 kcal/mol
DOCKED: USER        vdW + Hbond + desolv Energy     =  -13.02 kcal/mol
DOCKED: USER        Electrostatic Energy            =   +0.00 kcal/mol
DOCKED: USER    (2) Final Total Internal Energy     =   -1.07 kcal/mol
DOCKED: USER    (3) Torsional Free Energy           =   +1.49 kcal/mol
DOCKED: USER    (4) Unbound System's Energy  [=(2)] =   -1.07 kcal/mol
DOCKED: USER    
DOCKED: USER    
DOCKED: USER    NEWDPF move ligand.dum.pdbqt
DOCKED: USER    NEWDPF about 0.217000 0.012000 -0.211000
DOCKED: USER    NEWDPF tran0 39.114458 13.037340 123.428450
DOCKED: USER    NEWDPF quaternion0 0.192312 -0.158086 -0.944668 -0.213605
DOCKED: USER    NEWDPF axisangle0 0.196856 -0.161821 -0.966986 -155.332631
DOCKED: USER    NEWDPF quat0 0.196856 -0.161821 -0.966986 -155.332631
DOCKED: USER    NEWDPF dihe0 -63.76 104.44 -18.97 -43.67 156.49 
DOCKED: USER  keepresnum = 1 
DOCKED: USER  
DOCKED: REMARK  Name = 
DOCKED: REMARK  5 active torsions:
DOCKED: REMARK  status: ('A' for Active; 'I' for Inactive)
DOCKED: REMARK    1  A    between atoms: S_2  and  N_3
DOCKED: REMARK    2  A    between atoms: S_2  and  C_10
DOCKED: REMARK    3  A    between atoms: N_3  and  C_4
DOCKED: REMARK    4  A    between atoms: C_12  and  C_13
DOCKED: REMARK    5  A    between atoms: C_14  and  C_15
DOCKED: REMARK                            x       y       z     vdW  Elec       q    Type
DOCKED: REMARK                         _______ _______ _______ _____ _____    ______ ____
DOCKED: USER                              x       y       z     vdW  Elec       q    Type
DOCKED: USER                           _______ _______ _______ _____ _____    ______ ____
DOCKED: ROOT
DOCKED: ATOM      1  C   UNL     1      38.862  15.090 122.734 -0.33 -0.00    +0.000 A 
DOCKED: ATOM      2  C   UNL     1      38.561  13.721 122.736 -0.28 -0.00    +0.000 A 
DOCKED: ATOM      3  C   UNL     1      37.270  13.271 123.084 -0.51 -0.00    +0.000 A 
DOCKED: ATOM      4  C   UNL     1      36.297  14.217 123.442 -0.47 -0.00    +0.000 A 
DOCKED: ATOM      5  C   UNL     1      36.594  15.583 123.429 -0.35 -0.00    +0.000 A 
DOCKED: ATOM      6  C   UNL     1      37.870  16.020 123.073 -0.28 -0.00    +0.000 A 
DOCKED: ATOM      7  CM  UNL     1      37.576  14.650 123.082 +0.00 -0.00    +0.000 AC
DOCKED: ENDROOT
DOCKED: BRANCH   1   8
DOCKED: ATOM      8  O   UNL     1      41.361  14.469 121.960 -0.93 -0.00    +0.000 OA
DOCKED: ATOM      9  S   UNL     1      40.485  15.636 122.320 -0.49 -0.00    +0.000 S 
DOCKED: ATOM     10  O   UNL     1      41.072  16.343 123.508 -0.81 -0.00    +0.000 OA
DOCKED: BRANCH   8  10
DOCKED: ATOM     11  N   UNL     1      40.423  16.733 120.975 -0.14 -0.00    +0.000 N 
DOCKED: ATOM     12  H   UNL     1      40.229  17.680 121.160 +0.01 -0.00    +0.000 HD
DOCKED: BRANCH  10  12
DOCKED: ATOM     13  C   UNL     1      40.637  16.340 119.608 -0.13 -0.00    +0.000 A 
DOCKED: ATOM     14  C   UNL     1      39.572  15.969 118.764 -0.13 -0.00    +0.000 A 
DOCKED: ATOM     15  C   UNL     1      39.817  15.603 117.437 -0.14 -0.00    +0.000 A 
DOCKED: ATOM     16  C   UNL     1      41.122  15.596 116.940 -0.23 -0.00    +0.000 A 
DOCKED: ATOM     17  C   UNL     1      42.186  15.953 117.771 -0.21 -0.00    +0.000 A 
DOCKED: ATOM     18  C   UNL     1      41.946  16.321 119.098 -0.14 -0.00    +0.000 A 
DOCKED: ATOM     19  CM  UNL     1      40.880  15.963 118.270 +0.00 -0.00    +0.000 AC
DOCKED: ENDBRANCH  10  12
DOCKED: ENDBRANCH   8  10
DOCKED: ENDBRANCH   1   8
DOCKED: BRANCH   3  18
DOCKED: ATOM     20  C   UNL     1      36.909  11.832 123.126 -0.67 -0.00    +0.000 C 
DOCKED: ATOM     21  C   UNL     1      37.301  10.938 122.204 -0.20 -0.00    +0.000 C 
DOCKED: BRANCH  19  20
DOCKED: ATOM     22  C   UNL     1      36.939   9.507 122.254 -0.64 -0.00    +0.000 C 
DOCKED: ATOM     23  N   UNL     1      37.036   8.733 123.456 -0.63 -0.00    +0.000 N 
DOCKED: ATOM     24  O   UNL     1      36.794   7.402 123.427 -2.32 -0.00    +0.000 OA
DOCKED: ATOM     25  O   UNL     1      36.506   8.960 121.205 -2.40 -0.00    +0.000 OA
DOCKED: ATOM     26  H   UNL     1      37.280   9.170 124.304 -0.59 -0.00    +0.000 HD
DOCKED: ENDBRANCH  19  20
DOCKED: ENDBRANCH   3  18
DOCKED: TORSDOF 5DOCKED: TER
DOCKED: ENDMDL
________________________________________________________________________________


	BEGINNING GENETIC ALGORITHM DOCKING 78 of 100
Run: 78 Seed: 506415957 864127896 [ Run 78 of 100 GA/GALS ]
Beginning LAMARCKIAN GENETIC ALGORITHM (LGA), with a maximum of 2500000 energy evaluations.

Final-Value: -14.868


	FINAL GENETIC ALGORITHM DOCKED STATE
	_______________________________________________


Detailed state:  trans 35.315 13.576 123.067 quatxyzw 0.926702 -0.326934 0.156063 0.099904 center 0.217 0.012 -0.211 ntor 5 -1.7281 -29.2273 119.2884 4.3375 -83.6779
State:	 35.315  13.576 123.067   0.931 -0.329  0.157 168.533     -1.73  -29.23  119.29    4.34  -83.68

DOCKED: MODEL       78
DOCKED: USER    Run = 78
DOCKED: USER    DPF = ligand_dock.biased.dpf
DOCKED: USER  
DOCKED: USER    Estimated Free Energy of Binding    =  -12.23 kcal/mol  [=(1)+(2)+(3)-(4)]
DOCKED: USER    Estimated Inhibition Constant, Ki   =    1.08 nM (nanomolar)  [Temperature = 298.15 K]
DOCKED: USER    
DOCKED: USER    (1) Final Intermolecular Energy     =  -13.73 kcal/mol
DOCKED: USER        vdW + Hbond + desolv Energy     =  -13.73 kcal/mol
DOCKED: USER        Electrostatic Energy            =   +0.00 kcal/mol
DOCKED: USER    (2) Final Total Internal Energy     =   -1.14 kcal/mol
DOCKED: USER    (3) Torsional Free Energy           =   +1.49 kcal/mol
DOCKED: USER    (4) Unbound System's Energy  [=(2)] =   -1.14 kcal/mol
DOCKED: USER    
DOCKED: USER    
DOCKED: USER    NEWDPF move ligand.dum.pdbqt
DOCKED: USER    NEWDPF about 0.217000 0.012000 -0.211000
DOCKED: USER    NEWDPF tran0 35.314600 13.575869 123.066822
DOCKED: USER    NEWDPF quaternion0 0.926702 -0.326934 0.156063 0.099904
DOCKED: USER    NEWDPF axisangle0 0.931362 -0.328578 0.156848 168.532747
DOCKED: USER    NEWDPF quat0 0.931362 -0.328578 0.156848 168.532747
DOCKED: USER    NEWDPF dihe0 -1.73 -29.23 119.29 4.34 -83.68 
DOCKED: USER  keepresnum = 1 
DOCKED: USER  
DOCKED: REMARK  Name = 
DOCKED: REMARK  5 active torsions:
DOCKED: REMARK  status: ('A' for Active; 'I' for Inactive)
DOCKED: REMARK    1  A    between atoms: S_2  and  N_3
DOCKED: REMARK    2  A    between atoms: S_2  and  C_10
DOCKED: REMARK    3  A    between atoms: N_3  and  C_4
DOCKED: REMARK    4  A    between atoms: C_12  and  C_13
DOCKED: REMARK    5  A    between atoms: C_14  and  C_15
DOCKED: REMARK                            x       y       z     vdW  Elec       q    Type
DOCKED: REMARK                         _______ _______ _______ _____ _____    ______ ____
DOCKED: USER                              x       y       z     vdW  Elec       q    Type
DOCKED: USER                           _______ _______ _______ _____ _____    ______ ____
DOCKED: ROOT
DOCKED: ATOM      1  C   UNL     1      36.114  15.533 123.605 -0.39 -0.00    +0.000 A 
DOCKED: ATOM      2  C   UNL     1      36.092  14.132 123.649 -0.48 -0.00    +0.000 A 
DOCKED: ATOM      3  C   UNL     1      37.192  13.383 123.181 -0.50 -0.00    +0.000 A 
DOCKED: ATOM      4  C   UNL     1      38.302  14.065 122.658 -0.42 -0.00    +0.000 A 
DOCKED: ATOM      5  C   UNL     1      38.328  15.462 122.624 -0.31 -0.00    +0.000 A 
DOCKED: ATOM      6  C   UNL     1      37.240  16.195 123.100 -0.27 -0.00    +0.000 A 
DOCKED: ATOM      7  CM  UNL     1      37.211  14.795 123.136 +0.00 -0.00    +0.000 AC
DOCKED: ENDROOT
DOCKED: BRANCH   1   8
DOCKED: ATOM      8  O   UNL     1      35.123  17.391 125.278 -0.36 -0.00    +0.000 OA
DOCKED: ATOM      9  S   UNL     1      34.724  16.455 124.171 -0.62 -0.00    +0.000 S 
DOCKED: ATOM     10  O   UNL     1      33.690  15.497 124.689 -0.66 -0.00    +0.000 OA
DOCKED: BRANCH   8  10
DOCKED: ATOM     11  N   UNL     1      34.046  17.378 122.866 -0.41 -0.00    +0.000 N 
DOCKED: ATOM     12  H   UNL     1      33.072  17.338 122.729 +0.03 -0.00    +0.000 HD
DOCKED: BRANCH  10  12
DOCKED: ATOM     13  C   UNL     1      34.822  18.197 121.974 -0.29 -0.00    +0.000 A 
DOCKED: ATOM     14  C   UNL     1      35.879  19.006 122.434 -0.19 -0.00    +0.000 A 
DOCKED: ATOM     15  C   UNL     1      36.618  19.781 121.535 -0.12 -0.00    +0.000 A 
DOCKED: ATOM     16  C   UNL     1      36.308  19.765 120.174 -0.11 -0.00    +0.000 A 
DOCKED: ATOM     17  C   UNL     1      35.255  18.974 119.709 -0.18 -0.00    +0.000 A 
DOCKED: ATOM     18  C   UNL     1      34.514  18.196 120.603 -0.28 -0.00    +0.000 A 
DOCKED: ATOM     19  CM  UNL     1      35.566  18.987 121.071 +0.00 -0.00    +0.000 AC
DOCKED: ENDBRANCH  10  12
DOCKED: ENDBRANCH   8  10
DOCKED: ENDBRANCH   1   8
DOCKED: BRANCH   3  18
DOCKED: ATOM     20  C   UNL     1      37.207  11.899 123.182 -0.60 -0.00    +0.000 C 
DOCKED: ATOM     21  C   UNL     1      36.894  11.150 122.114 -0.59 -0.00    +0.000 C 
DOCKED: BRANCH  19  20
DOCKED: ATOM     22  C   UNL     1      36.914   9.672 122.122 -0.63 -0.00    +0.000 C 
DOCKED: ATOM     23  N   UNL     1      36.936   8.912 123.337 -0.62 -0.00    +0.000 N 
DOCKED: ATOM     24  O   UNL     1      37.060   7.566 123.291 -2.52 -0.00    +0.000 OA
DOCKED: ATOM     25  O   UNL     1      36.884   9.066 121.018 -2.67 -0.00    +0.000 OA
DOCKED: ATOM     26  H   UNL     1      36.862   9.371 124.205 -0.53 -0.00    +0.000 HD
DOCKED: ENDBRANCH  19  20
DOCKED: ENDBRANCH   3  18
DOCKED: TORSDOF 5DOCKED: TER
DOCKED: ENDMDL
________________________________________________________________________________


	BEGINNING GENETIC ALGORITHM DOCKING 79 of 100
Run: 79 Seed: 1002067264 311963528 [ Run 79 of 100 GA/GALS ]
Beginning LAMARCKIAN GENETIC ALGORITHM (LGA), with a maximum of 2500000 energy evaluations.

Final-Value: -13.914


	FINAL GENETIC ALGORITHM DOCKED STATE
	_______________________________________________


Detailed state:  trans 38.446 14.102 122.931 quatxyzw 0.132798 0.052808 -0.882496 -0.448081 center 0.217 0.012 -0.211 ntor 5 105.0815 133.4598 -142.0605 155.5174 -44.6867
State:	 38.446  14.102 122.931   0.149  0.059 -0.987 -126.759    105.08  133.46 -142.06  155.52  -44.69

DOCKED: MODEL       79
DOCKED: USER    Run = 79
DOCKED: USER    DPF = ligand_dock.biased.dpf
DOCKED: USER  
DOCKED: USER    Estimated Free Energy of Binding    =  -11.37 kcal/mol  [=(1)+(2)+(3)-(4)]
DOCKED: USER    Estimated Inhibition Constant, Ki   =    4.62 nM (nanomolar)  [Temperature = 298.15 K]
DOCKED: USER    
DOCKED: USER    (1) Final Intermolecular Energy     =  -12.86 kcal/mol
DOCKED: USER        vdW + Hbond + desolv Energy     =  -12.86 kcal/mol
DOCKED: USER        Electrostatic Energy            =   +0.00 kcal/mol
DOCKED: USER    (2) Final Total Internal Energy     =   -1.05 kcal/mol
DOCKED: USER    (3) Torsional Free Energy           =   +1.49 kcal/mol
DOCKED: USER    (4) Unbound System's Energy  [=(2)] =   -1.05 kcal/mol
DOCKED: USER    
DOCKED: USER    
DOCKED: USER    NEWDPF move ligand.dum.pdbqt
DOCKED: USER    NEWDPF about 0.217000 0.012000 -0.211000
DOCKED: USER    NEWDPF tran0 38.446068 14.102149 122.930560
DOCKED: USER    NEWDPF quaternion0 0.132798 0.052808 -0.882496 -0.448081
DOCKED: USER    NEWDPF axisangle0 0.148545 0.059069 -0.987140 -126.758759
DOCKED: USER    NEWDPF quat0 0.148545 0.059069 -0.987140 -126.758759
DOCKED: USER    NEWDPF dihe0 105.08 133.46 -142.06 155.52 -44.69 
DOCKED: USER  keepresnum = 1 
DOCKED: USER  
DOCKED: REMARK  Name = 
DOCKED: REMARK  5 active torsions:
DOCKED: REMARK  status: ('A' for Active; 'I' for Inactive)
DOCKED: REMARK    1  A    between atoms: S_2  and  N_3
DOCKED: REMARK    2  A    between atoms: S_2  and  C_10
DOCKED: REMARK    3  A    between atoms: N_3  and  C_4
DOCKED: REMARK    4  A    between atoms: C_12  and  C_13
DOCKED: REMARK    5  A    between atoms: C_14  and  C_15
DOCKED: REMARK                            x       y       z     vdW  Elec       q    Type
DOCKED: REMARK                         _______ _______ _______ _____ _____    ______ ____
DOCKED: USER                              x       y       z     vdW  Elec       q    Type
DOCKED: USER                           _______ _______ _______ _____ _____    ______ ____
DOCKED: ROOT
DOCKED: ATOM      1  C   UNL     1      37.057  15.784 122.975 -0.31 -0.00    +0.000 A 
DOCKED: ATOM      2  C   UNL     1      37.454  14.494 122.594 -0.39 -0.00    +0.000 A 
DOCKED: ATOM      3  C   UNL     1      36.705  13.368 122.995 -0.51 -0.00    +0.000 A 
DOCKED: ATOM      4  C   UNL     1      35.566  13.560 123.793 -0.42 -0.00    +0.000 A 
DOCKED: ATOM      5  C   UNL     1      35.166  14.847 124.163 -0.50 -0.00    +0.000 A 
DOCKED: ATOM      6  C   UNL     1      35.905  15.956 123.752 -0.38 -0.00    +0.000 A 
DOCKED: ATOM      7  CM  UNL     1      36.309  14.668 123.378 +0.00 -0.00    +0.000 AC
DOCKED: ENDROOT
DOCKED: BRANCH   1   8
DOCKED: ATOM      8  O   UNL     1      37.200  18.441 122.581 -0.13 -0.00    +0.000 OA
DOCKED: ATOM      9  S   UNL     1      38.014  17.181 122.486 -0.23 -0.00    +0.000 S 
DOCKED: ATOM     10  O   UNL     1      38.455  16.988 121.063 -0.12 -0.00    +0.000 OA
DOCKED: BRANCH   8  10
DOCKED: ATOM     11  N   UNL     1      39.414  17.332 123.503 -0.23 -0.00    +0.000 N 
DOCKED: ATOM     12  H   UNL     1      39.290  17.702 124.406 -0.02 -0.00    +0.000 HD
DOCKED: BRANCH  10  12
DOCKED: ATOM     13  C   UNL     1      40.742  16.950 123.103 -0.28 -0.00    +0.000 A 
DOCKED: ATOM     14  C   UNL     1      41.809  17.869 123.091 -0.24 -0.00    +0.000 A 
DOCKED: ATOM     15  C   UNL     1      43.090  17.459 122.706 -0.29 -0.00    +0.000 A 
DOCKED: ATOM     16  C   UNL     1      43.318  16.135 122.325 -0.26 -0.00    +0.000 A 
DOCKED: ATOM     17  C   UNL     1      42.264  15.218 122.325 -0.41 -0.00    +0.000 A 
DOCKED: ATOM     18  C   UNL     1      40.983  15.623 122.709 -0.41 -0.00    +0.000 A 
DOCKED: ATOM     19  CM  UNL     1      42.035  16.542 122.710 +0.00 -0.00    +0.000 AC
DOCKED: ENDBRANCH  10  12
DOCKED: ENDBRANCH   8  10
DOCKED: ENDBRANCH   1   8
DOCKED: BRANCH   3  18
DOCKED: ATOM     20  C   UNL     1      37.096  11.981 122.640 -0.61 -0.00    +0.000 C 
DOCKED: ATOM     21  C   UNL     1      36.275  10.925 122.745 -0.69 -0.00    +0.000 C 
DOCKED: BRANCH  19  20
DOCKED: ATOM     22  C   UNL     1      36.671   9.547 122.388 -0.71 -0.00    +0.000 C 
DOCKED: ATOM     23  N   UNL     1      36.597   8.461 123.320 -0.67 -0.00    +0.000 N 
DOCKED: ATOM     24  O   UNL     1      37.069   7.240 122.977 -2.13 -0.00    +0.000 OA
DOCKED: ATOM     25  O   UNL     1      37.063   9.321 121.212 -2.64 -0.00    +0.000 OA
DOCKED: ATOM     26  H   UNL     1      36.202   8.604 124.211 -0.28 -0.00    +0.000 HD
DOCKED: ENDBRANCH  19  20
DOCKED: ENDBRANCH   3  18
DOCKED: TORSDOF 5DOCKED: TER
DOCKED: ENDMDL
________________________________________________________________________________


	BEGINNING GENETIC ALGORITHM DOCKING 80 of 100
Run: 80 Seed: 1591047132 1861763001 [ Run 80 of 100 GA/GALS ]
Beginning LAMARCKIAN GENETIC ALGORITHM (LGA), with a maximum of 2500000 energy evaluations.

Final-Value: -14.365


	FINAL GENETIC ALGORITHM DOCKED STATE
	_______________________________________________


Detailed state:  trans 38.427 12.982 123.171 quatxyzw 0.124065 -0.071811 -0.954625 -0.261039 center 0.217 0.012 -0.211 ntor 5 -79.6392 48.3655 11.4348 0.5647 126.2441
State:	 38.427  12.982 123.171   0.129 -0.074 -0.989 -149.737    -79.64   48.37   11.43    0.56  126.24

DOCKED: MODEL       80
DOCKED: USER    Run = 80
DOCKED: USER    DPF = ligand_dock.biased.dpf
DOCKED: USER  
DOCKED: USER    Estimated Free Energy of Binding    =  -11.66 kcal/mol  [=(1)+(2)+(3)-(4)]
DOCKED: USER    Estimated Inhibition Constant, Ki   =    2.83 nM (nanomolar)  [Temperature = 298.15 K]
DOCKED: USER    
DOCKED: USER    (1) Final Intermolecular Energy     =  -13.15 kcal/mol
DOCKED: USER        vdW + Hbond + desolv Energy     =  -13.15 kcal/mol
DOCKED: USER        Electrostatic Energy            =   +0.00 kcal/mol
DOCKED: USER    (2) Final Total Internal Energy     =   -1.21 kcal/mol
DOCKED: USER    (3) Torsional Free Energy           =   +1.49 kcal/mol
DOCKED: USER    (4) Unbound System's Energy  [=(2)] =   -1.21 kcal/mol
DOCKED: USER    
DOCKED: USER    
DOCKED: USER    NEWDPF move ligand.dum.pdbqt
DOCKED: USER    NEWDPF about 0.217000 0.012000 -0.211000
DOCKED: USER    NEWDPF tran0 38.427080 12.982009 123.170755
DOCKED: USER    NEWDPF quaternion0 0.124065 -0.071811 -0.954625 -0.261039
DOCKED: USER    NEWDPF axisangle0 0.128521 -0.074390 -0.988913 -149.736517
DOCKED: USER    NEWDPF quat0 0.128521 -0.074390 -0.988913 -149.736517
DOCKED: USER    NEWDPF dihe0 -79.64 48.37 11.43 0.56 126.24 
DOCKED: USER  keepresnum = 1 
DOCKED: USER  
DOCKED: REMARK  Name = 
DOCKED: REMARK  5 active torsions:
DOCKED: REMARK  status: ('A' for Active; 'I' for Inactive)
DOCKED: REMARK    1  A    between atoms: S_2  and  N_3
DOCKED: REMARK    2  A    between atoms: S_2  and  C_10
DOCKED: REMARK    3  A    between atoms: N_3  and  C_4
DOCKED: REMARK    4  A    between atoms: C_12  and  C_13
DOCKED: REMARK    5  A    between atoms: C_14  and  C_15
DOCKED: REMARK                            x       y       z     vdW  Elec       q    Type
DOCKED: REMARK                         _______ _______ _______ _____ _____    ______ ____
DOCKED: USER                              x       y       z     vdW  Elec       q    Type
DOCKED: USER                           _______ _______ _______ _____ _____    ______ ____
DOCKED: ROOT
DOCKED: ATOM      1  C   UNL     1      37.874  15.059 122.798 -0.35 -0.00    +0.000 A 
DOCKED: ATOM      2  C   UNL     1      37.697  13.673 122.680 -0.45 -0.00    +0.000 A 
DOCKED: ATOM      3  C   UNL     1      36.538  13.053 123.191 -0.54 -0.00    +0.000 A 
DOCKED: ATOM      4  C   UNL     1      35.573  13.845 123.834 -0.47 -0.00    +0.000 A 
DOCKED: ATOM      5  C   UNL     1      35.744  15.227 123.942 -0.44 -0.00    +0.000 A 
DOCKED: ATOM      6  C   UNL     1      36.888  15.835 123.423 -0.32 -0.00    +0.000 A 
DOCKED: ATOM      7  CM  UNL     1      36.719  14.448 123.311 +0.00 -0.00    +0.000 AC
DOCKED: ENDROOT
DOCKED: BRANCH   1   8
DOCKED: ATOM      8  O   UNL     1      40.488  14.852 122.204 -0.80 -0.00    +0.000 OA
DOCKED: ATOM      9  S   UNL     1      39.337  15.818 122.175 -0.38 -0.00    +0.000 S 
DOCKED: ATOM     10  O   UNL     1      39.669  17.002 123.037 -0.25 -0.00    +0.000 OA
DOCKED: BRANCH   8  10
DOCKED: ATOM     11  N   UNL     1      39.085  16.351 120.542 -0.13 -0.00    +0.000 N 
DOCKED: ATOM     12  H   UNL     1      39.305  17.285 120.322 +0.00 -0.00    +0.000 HD
DOCKED: BRANCH  10  12
DOCKED: ATOM     13  C   UNL     1      38.575  15.510 119.492 -0.17 -0.00    +0.000 A 
DOCKED: ATOM     14  C   UNL     1      37.589  14.534 119.733 -0.27 -0.00    +0.000 A 
DOCKED: ATOM     15  C   UNL     1      37.109  13.741 118.684 -0.36 -0.00    +0.000 A 
DOCKED: ATOM     16  C   UNL     1      37.611  13.908 117.392 -0.32 -0.00    +0.000 A 
DOCKED: ATOM     17  C   UNL     1      38.596  14.867 117.145 -0.19 -0.00    +0.000 A 
DOCKED: ATOM     18  C   UNL     1      39.078  15.662 118.189 -0.14 -0.00    +0.000 A 
DOCKED: ATOM     19  CM  UNL     1      38.093  14.704 118.439 +0.00 -0.00    +0.000 AC
DOCKED: ENDBRANCH  10  12
DOCKED: ENDBRANCH   8  10
DOCKED: ENDBRANCH   1   8
DOCKED: BRANCH   3  18
DOCKED: ATOM     20  C   UNL     1      36.316  11.587 123.114 -0.70 -0.00    +0.000 C 
DOCKED: ATOM     21  C   UNL     1      37.067  10.758 122.374 -0.55 -0.00    +0.000 C 
DOCKED: BRANCH  19  20
DOCKED: ATOM     22  C   UNL     1      36.841   9.299 122.304 -0.69 -0.00    +0.000 C 
DOCKED: ATOM     23  N   UNL     1      36.939   8.452 123.455 -0.68 -0.00    +0.000 N 
DOCKED: ATOM     24  O   UNL     1      36.826   7.110 123.321 -2.01 -0.00    +0.000 OA
DOCKED: ATOM     25  O   UNL     1      36.526   8.793 121.194 -2.39 -0.00    +0.000 OA
DOCKED: ATOM     26  H   UNL     1      37.089   8.847 124.345 -0.54 -0.00    +0.000 HD
DOCKED: ENDBRANCH  19  20
DOCKED: ENDBRANCH   3  18
DOCKED: TORSDOF 5DOCKED: TER
DOCKED: ENDMDL
________________________________________________________________________________


	BEGINNING GENETIC ALGORITHM DOCKING 81 of 100
Run: 81 Seed: 1533065891 4695900 [ Run 81 of 100 GA/GALS ]
Beginning LAMARCKIAN GENETIC ALGORITHM (LGA), with a maximum of 2500000 energy evaluations.

Final-Value: -15.274


	FINAL GENETIC ALGORITHM DOCKED STATE
	_______________________________________________


Detailed state:  trans 35.226 13.304 122.945 quatxyzw -0.940841 0.294928 -0.143164 -0.085676 center 0.217 0.012 -0.211 ntor 5 12.1567 -79.8666 111.4542 -107.5952 136.5514
State:	 35.226  13.304 122.945  -0.944  0.296 -0.144 -170.170     12.16  -79.87  111.45 -107.60  136.55

DOCKED: MODEL       81
DOCKED: USER    Run = 81
DOCKED: USER    DPF = ligand_dock.biased.dpf
DOCKED: USER  
DOCKED: USER    Estimated Free Energy of Binding    =  -12.85 kcal/mol  [=(1)+(2)+(3)-(4)]
DOCKED: USER    Estimated Inhibition Constant, Ki   =  381.45 pM (picomolar)  [Temperature = 298.15 K]
DOCKED: USER    
DOCKED: USER    (1) Final Intermolecular Energy     =  -14.34 kcal/mol
DOCKED: USER        vdW + Hbond + desolv Energy     =  -14.34 kcal/mol
DOCKED: USER        Electrostatic Energy            =   +0.00 kcal/mol
DOCKED: USER    (2) Final Total Internal Energy     =   -0.93 kcal/mol
DOCKED: USER    (3) Torsional Free Energy           =   +1.49 kcal/mol
DOCKED: USER    (4) Unbound System's Energy  [=(2)] =   -0.93 kcal/mol
DOCKED: USER    
DOCKED: USER    
DOCKED: USER    NEWDPF move ligand.dum.pdbqt
DOCKED: USER    NEWDPF about 0.217000 0.012000 -0.211000
DOCKED: USER    NEWDPF tran0 35.226339 13.304490 122.945065
DOCKED: USER    NEWDPF quaternion0 -0.940841 0.294928 -0.143164 -0.085676
DOCKED: USER    NEWDPF axisangle0 -0.944313 0.296017 -0.143693 -170.170254
DOCKED: USER    NEWDPF quat0 -0.944313 0.296017 -0.143693 -170.170254
DOCKED: USER    NEWDPF dihe0 12.16 -79.87 111.45 -107.60 136.55 
DOCKED: USER  keepresnum = 1 
DOCKED: USER  
DOCKED: REMARK  Name = 
DOCKED: REMARK  5 active torsions:
DOCKED: REMARK  status: ('A' for Active; 'I' for Inactive)
DOCKED: REMARK    1  A    between atoms: S_2  and  N_3
DOCKED: REMARK    2  A    between atoms: S_2  and  C_10
DOCKED: REMARK    3  A    between atoms: N_3  and  C_4
DOCKED: REMARK    4  A    between atoms: C_12  and  C_13
DOCKED: REMARK    5  A    between atoms: C_14  and  C_15
DOCKED: REMARK                            x       y       z     vdW  Elec       q    Type
DOCKED: REMARK                         _______ _______ _______ _____ _____    ______ ____
DOCKED: USER                              x       y       z     vdW  Elec       q    Type
DOCKED: USER                           _______ _______ _______ _____ _____    ______ ____
DOCKED: ROOT
DOCKED: ATOM      1  C   UNL     1      35.909  15.327 123.399 -0.41 -0.00    +0.000 A 
DOCKED: ATOM      2  C   UNL     1      35.982  13.929 123.485 -0.49 -0.00    +0.000 A 
DOCKED: ATOM      3  C   UNL     1      37.115  13.240 123.005 -0.51 -0.00    +0.000 A 
DOCKED: ATOM      4  C   UNL     1      38.160  13.977 122.425 -0.42 -0.00    +0.000 A 
DOCKED: ATOM      5  C   UNL     1      38.092  15.371 122.349 -0.30 -0.00    +0.000 A 
DOCKED: ATOM      6  C   UNL     1      36.972  16.045 122.838 -0.28 -0.00    +0.000 A 
DOCKED: ATOM      7  CM  UNL     1      37.038  14.648 122.917 +0.00 -0.00    +0.000 AC
DOCKED: ENDROOT
DOCKED: BRANCH   1   8
DOCKED: ATOM      8  O   UNL     1      33.319  15.223 124.115 -0.48 -0.00    +0.000 OA
DOCKED: ATOM      9  S   UNL     1      34.477  16.172 123.982 -0.68 -0.00    +0.000 S 
DOCKED: ATOM     10  O   UNL     1      34.119  17.248 122.998 -0.47 -0.00    +0.000 OA
DOCKED: BRANCH   8  10
DOCKED: ATOM     11  N   UNL     1      34.798  16.895 125.528 -0.33 -0.00    +0.000 N 
DOCKED: ATOM     12  H   UNL     1      35.737  17.042 125.783 -0.01 -0.00    +0.000 HD
DOCKED: BRANCH  10  12
DOCKED: ATOM     13  C   UNL     1      33.774  17.292 126.457 -0.36 -0.00    +0.000 A 
DOCKED: ATOM     14  C   UNL     1      33.238  18.594 126.463 -0.28 -0.00    +0.000 A 
DOCKED: ATOM     15  C   UNL     1      32.236  18.941 127.375 -0.21 -0.00    +0.000 A 
DOCKED: ATOM     16  C   UNL     1      31.764  17.999 128.292 -0.27 -0.00    +0.000 A 
DOCKED: ATOM     17  C   UNL     1      32.295  16.708 128.300 -0.40 -0.00    +0.000 A 
DOCKED: ATOM     18  C   UNL     1      33.296  16.356 127.390 -0.38 -0.00    +0.000 A 
DOCKED: ATOM     19  CM  UNL     1      32.767  17.648 127.380 +0.00 -0.00    +0.000 AC
DOCKED: ENDBRANCH  10  12
DOCKED: ENDBRANCH   8  10
DOCKED: ENDBRANCH   1   8
DOCKED: BRANCH   3  18
DOCKED: ATOM     20  C   UNL     1      37.230  11.761 123.049 -0.56 -0.00    +0.000 C 
DOCKED: ATOM     21  C   UNL     1      36.795  10.950 122.072 -0.60 -0.00    +0.000 C 
DOCKED: BRANCH  19  20
DOCKED: ATOM     22  C   UNL     1      36.915   9.478 122.123 -0.65 -0.00    +0.000 C 
DOCKED: ATOM     23  N   UNL     1      36.898   8.749 123.357 -0.64 -0.00    +0.000 N 
DOCKED: ATOM     24  O   UNL     1      37.117   7.414 123.358 -2.43 -0.00    +0.000 OA
DOCKED: ATOM     25  O   UNL     1      37.010   8.846 121.037 -2.69 -0.00    +0.000 OA
DOCKED: ATOM     26  H   UNL     1      36.728   9.221 124.204 -0.50 -0.00    +0.000 HD
DOCKED: ENDBRANCH  19  20
DOCKED: ENDBRANCH   3  18
DOCKED: TORSDOF 5DOCKED: TER
DOCKED: ENDMDL
________________________________________________________________________________


	BEGINNING GENETIC ALGORITHM DOCKING 82 of 100
Run: 82 Seed: 1331577840 2025918268 [ Run 82 of 100 GA/GALS ]
Beginning LAMARCKIAN GENETIC ALGORITHM (LGA), with a maximum of 2500000 energy evaluations.

Final-Value: -14.269


	FINAL GENETIC ALGORITHM DOCKED STATE
	_______________________________________________


Detailed state:  trans 38.066 14.063 122.577 quatxyzw 0.003691 0.056482 0.896008 0.440416 center 0.217 0.012 -0.211 ntor 5 9.9098 -12.8798 -42.7824 132.8859 -58.6355
State:	 38.066  14.063 122.577   0.004  0.063  0.998 127.739      9.91  -12.88  -42.78  132.89  -58.64

DOCKED: MODEL       82
DOCKED: USER    Run = 82
DOCKED: USER    DPF = ligand_dock.biased.dpf
DOCKED: USER  
DOCKED: USER    Estimated Free Energy of Binding    =  -11.62 kcal/mol  [=(1)+(2)+(3)-(4)]
DOCKED: USER    Estimated Inhibition Constant, Ki   =    3.04 nM (nanomolar)  [Temperature = 298.15 K]
DOCKED: USER    
DOCKED: USER    (1) Final Intermolecular Energy     =  -13.11 kcal/mol
DOCKED: USER        vdW + Hbond + desolv Energy     =  -13.11 kcal/mol
DOCKED: USER        Electrostatic Energy            =   +0.00 kcal/mol
DOCKED: USER    (2) Final Total Internal Energy     =   -1.16 kcal/mol
DOCKED: USER    (3) Torsional Free Energy           =   +1.49 kcal/mol
DOCKED: USER    (4) Unbound System's Energy  [=(2)] =   -1.16 kcal/mol
DOCKED: USER    
DOCKED: USER    
DOCKED: USER    NEWDPF move ligand.dum.pdbqt
DOCKED: USER    NEWDPF about 0.217000 0.012000 -0.211000
DOCKED: USER    NEWDPF tran0 38.066358 14.062634 122.577072
DOCKED: USER    NEWDPF quaternion0 0.003691 0.056482 0.896008 0.440416
DOCKED: USER    NEWDPF axisangle0 0.004112 0.062912 0.998011 127.739168
DOCKED: USER    NEWDPF quat0 0.004112 0.062912 0.998011 127.739168
DOCKED: USER    NEWDPF dihe0 9.91 -12.88 -42.78 132.89 -58.64 
DOCKED: USER  keepresnum = 1 
DOCKED: USER  
DOCKED: REMARK  Name = 
DOCKED: REMARK  5 active torsions:
DOCKED: REMARK  status: ('A' for Active; 'I' for Inactive)
DOCKED: REMARK    1  A    between atoms: S_2  and  N_3
DOCKED: REMARK    2  A    between atoms: S_2  and  C_10
DOCKED: REMARK    3  A    between atoms: N_3  and  C_4
DOCKED: REMARK    4  A    between atoms: C_12  and  C_13
DOCKED: REMARK    5  A    between atoms: C_14  and  C_15
DOCKED: REMARK                            x       y       z     vdW  Elec       q    Type
DOCKED: REMARK                         _______ _______ _______ _____ _____    ______ ____
DOCKED: USER                              x       y       z     vdW  Elec       q    Type
DOCKED: USER                           _______ _______ _______ _____ _____    ______ ____
DOCKED: ROOT
DOCKED: ATOM      1  C   UNL     1      36.728  15.761 122.285 -0.27 -0.00    +0.000 A 
DOCKED: ATOM      2  C   UNL     1      37.041  14.394 122.276 -0.37 -0.00    +0.000 A 
DOCKED: ATOM      3  C   UNL     1      36.343  13.494 123.109 -0.50 -0.00    +0.000 A 
DOCKED: ATOM      4  C   UNL     1      35.342  13.993 123.957 -0.30 -0.00    +0.000 A 
DOCKED: ATOM      5  C   UNL     1      35.023  15.354 123.958 -0.51 -0.00    +0.000 A 
DOCKED: ATOM      6  C   UNL     1      35.710  16.235 123.122 -0.34 -0.00    +0.000 A 
DOCKED: ATOM      7  CM  UNL     1      36.031  14.871 123.117 +0.00 -0.00    +0.000 AC
DOCKED: ENDROOT
DOCKED: BRANCH   1   8
DOCKED: ATOM      8  O   UNL     1      36.734  17.994 120.788 -0.13 -0.00    +0.000 OA
DOCKED: ATOM      9  S   UNL     1      37.623  16.877 121.256 -0.19 -0.00    +0.000 S 
DOCKED: ATOM     10  O   UNL     1      38.136  16.124 120.063 -0.15 -0.00    +0.000 OA
DOCKED: BRANCH   8  10
DOCKED: ATOM     11  N   UNL     1      38.965  17.549 122.129 -0.11 -0.00    +0.000 N 
DOCKED: ATOM     12  H   UNL     1      38.863  18.450 122.511 +0.00 -0.00    +0.000 HD
DOCKED: BRANCH  10  12
DOCKED: ATOM     13  C   UNL     1      40.218  16.868 122.326 -0.20 -0.00    +0.000 A 
DOCKED: ATOM     14  C   UNL     1      40.314  15.464 122.297 -0.36 -0.00    +0.000 A 
DOCKED: ATOM     15  C   UNL     1      41.551  14.837 122.483 -0.50 -0.00    +0.000 A 
DOCKED: ATOM     16  C   UNL     1      42.698  15.601 122.705 -0.34 -0.00    +0.000 A 
DOCKED: ATOM     17  C   UNL     1      42.611  16.994 122.744 -0.34 -0.00    +0.000 A 
DOCKED: ATOM     18  C   UNL     1      41.379  17.625 122.558 -0.20 -0.00    +0.000 A 
DOCKED: ATOM     19  CM  UNL     1      41.462  16.232 122.519 +0.00 -0.00    +0.000 AC
DOCKED: ENDBRANCH  10  12
DOCKED: ENDBRANCH   8  10
DOCKED: ENDBRANCH   1   8
DOCKED: BRANCH   3  18
DOCKED: ATOM     20  C   UNL     1      36.654  12.043 123.155 -0.68 -0.00    +0.000 C 
DOCKED: ATOM     21  C   UNL     1      36.470  11.209 122.120 -0.63 -0.00    +0.000 C 
DOCKED: BRANCH  19  20
DOCKED: ATOM     22  C   UNL     1      36.783   9.766 122.173 -0.66 -0.00    +0.000 C 
DOCKED: ATOM     23  N   UNL     1      36.747   9.017 123.394 -0.58 -0.00    +0.000 N 
DOCKED: ATOM     24  O   UNL     1      37.143   7.724 123.408 -2.65 -0.00    +0.000 OA
DOCKED: ATOM     25  O   UNL     1      37.068   9.174 121.098 -2.73 -0.00    +0.000 OA
DOCKED: ATOM     26  H   UNL     1      36.433   9.445 124.224 -0.38 -0.00    +0.000 HD
DOCKED: ENDBRANCH  19  20
DOCKED: ENDBRANCH   3  18
DOCKED: TORSDOF 5DOCKED: TER
DOCKED: ENDMDL
________________________________________________________________________________


	BEGINNING GENETIC ALGORITHM DOCKING 83 of 100
Run: 83 Seed: 976861727 1491150613 [ Run 83 of 100 GA/GALS ]
Beginning LAMARCKIAN GENETIC ALGORITHM (LGA), with a maximum of 2500000 energy evaluations.

Final-Value: -14.321


	FINAL GENETIC ALGORITHM DOCKED STATE
	_______________________________________________


Detailed state:  trans 36.544 13.605 121.984 quatxyzw 0.838643 -0.364604 -0.366978 -0.170497 center 0.217 0.012 -0.211 ntor 5 152.6949 125.0718 37.0484 178.9705 -71.0562
State:	 36.544  13.605 121.984   0.851 -0.370 -0.372 -160.367    152.69  125.07   37.05  178.97  -71.06

DOCKED: MODEL       83
DOCKED: USER    Run = 83
DOCKED: USER    DPF = ligand_dock.biased.dpf
DOCKED: USER  
DOCKED: USER    Estimated Free Energy of Binding    =  -11.82 kcal/mol  [=(1)+(2)+(3)-(4)]
DOCKED: USER    Estimated Inhibition Constant, Ki   =    2.15 nM (nanomolar)  [Temperature = 298.15 K]
DOCKED: USER    
DOCKED: USER    (1) Final Intermolecular Energy     =  -13.31 kcal/mol
DOCKED: USER        vdW + Hbond + desolv Energy     =  -13.31 kcal/mol
DOCKED: USER        Electrostatic Energy            =   +0.00 kcal/mol
DOCKED: USER    (2) Final Total Internal Energy     =   -1.01 kcal/mol
DOCKED: USER    (3) Torsional Free Energy           =   +1.49 kcal/mol
DOCKED: USER    (4) Unbound System's Energy  [=(2)] =   -1.01 kcal/mol
DOCKED: USER    
DOCKED: USER    
DOCKED: USER    NEWDPF move ligand.dum.pdbqt
DOCKED: USER    NEWDPF about 0.217000 0.012000 -0.211000
DOCKED: USER    NEWDPF tran0 36.544138 13.604927 121.983805
DOCKED: USER    NEWDPF quaternion0 0.838643 -0.364604 -0.366978 -0.170497
DOCKED: USER    NEWDPF axisangle0 0.851105 -0.370022 -0.372431 -160.366560
DOCKED: USER    NEWDPF quat0 0.851105 -0.370022 -0.372431 -160.366560
DOCKED: USER    NEWDPF dihe0 152.69 125.07 37.05 178.97 -71.06 
DOCKED: USER  keepresnum = 1 
DOCKED: USER  
DOCKED: REMARK  Name = 
DOCKED: REMARK  5 active torsions:
DOCKED: REMARK  status: ('A' for Active; 'I' for Inactive)
DOCKED: REMARK    1  A    between atoms: S_2  and  N_3
DOCKED: REMARK    2  A    between atoms: S_2  and  C_10
DOCKED: REMARK    3  A    between atoms: N_3  and  C_4
DOCKED: REMARK    4  A    between atoms: C_12  and  C_13
DOCKED: REMARK    5  A    between atoms: C_14  and  C_15
DOCKED: REMARK                            x       y       z     vdW  Elec       q    Type
DOCKED: REMARK                         _______ _______ _______ _____ _____    ______ ____
DOCKED: USER                              x       y       z     vdW  Elec       q    Type
DOCKED: USER                           _______ _______ _______ _____ _____    ______ ____
DOCKED: ROOT
DOCKED: ATOM      1  C   UNL     1      37.364  15.431 121.114 -0.22 -0.00    +0.000 A 
DOCKED: ATOM      2  C   UNL     1      37.375  14.055 121.385 -0.34 -0.00    +0.000 A 
DOCKED: ATOM      3  C   UNL     1      37.324  13.117 120.332 -0.42 -0.00    +0.000 A 
DOCKED: ATOM      4  C   UNL     1      37.245  13.586 119.011 -0.37 -0.00    +0.000 A 
DOCKED: ATOM      5  C   UNL     1      37.244  14.957 118.741 -0.23 -0.00    +0.000 A 
DOCKED: ATOM      6  C   UNL     1      37.308  15.878 119.788 -0.17 -0.00    +0.000 A 
DOCKED: ATOM      7  CM  UNL     1      37.310  14.504 120.062 +0.00 -0.00    +0.000 AC
DOCKED: ENDROOT
DOCKED: BRANCH   1   8
DOCKED: ATOM      8  O   UNL     1      38.399  17.682 122.158 -0.12 -0.00    +0.000 OA
DOCKED: ATOM      9  S   UNL     1      37.405  16.590 122.440 -0.30 -0.00    +0.000 S 
DOCKED: ATOM     10  O   UNL     1      37.810  15.871 123.695 -0.36 -0.00    +0.000 OA
DOCKED: BRANCH   8  10
DOCKED: ATOM     11  N   UNL     1      35.836  17.297 122.667 -0.25 -0.00    +0.000 N 
DOCKED: ATOM     12  H   UNL     1      35.398  17.709 121.887 -0.00 -0.00    +0.000 HD
DOCKED: BRANCH  10  12
DOCKED: ATOM     13  C   UNL     1      35.137  17.317 123.924 -0.34 -0.00    +0.000 A 
DOCKED: ATOM     14  C   UNL     1      34.888  18.517 124.619 -0.27 -0.00    +0.000 A 
DOCKED: ATOM     15  C   UNL     1      34.197  18.498 125.835 -0.29 -0.00    +0.000 A 
DOCKED: ATOM     16  C   UNL     1      33.754  17.288 126.372 -0.36 -0.00    +0.000 A 
DOCKED: ATOM     17  C   UNL     1      34.004  16.092 125.695 -0.37 -0.00    +0.000 A 
DOCKED: ATOM     18  C   UNL     1      34.693  16.105 124.480 -0.48 -0.00    +0.000 A 
DOCKED: ATOM     19  CM  UNL     1      34.446  17.302 125.154 -0.36 -0.00    +0.000 AC
DOCKED: ENDBRANCH  10  12
DOCKED: ENDBRANCH   8  10
DOCKED: ENDBRANCH   1   8
DOCKED: BRANCH   3  18
DOCKED: ATOM     20  C   UNL     1      37.308  11.652 120.566 -0.42 -0.00    +0.000 C 
DOCKED: ATOM     21  C   UNL     1      37.065  11.091 121.761 -0.53 -0.00    +0.000 C 
DOCKED: BRANCH  19  20
DOCKED: ATOM     22  C   UNL     1      37.048   9.631 121.986 -0.60 -0.00    +0.000 C 
DOCKED: ATOM     23  N   UNL     1      36.982   9.057 123.297 -0.62 -0.00    +0.000 N 
DOCKED: ATOM     24  O   UNL     1      37.076   7.717 123.457 -2.70 -0.00    +0.000 OA
DOCKED: ATOM     25  O   UNL     1      37.068   8.869 120.983 -2.71 -0.00    +0.000 OA
DOCKED: ATOM     26  H   UNL     1      36.869   9.640 124.084 -0.50 -0.00    +0.000 HD
DOCKED: ENDBRANCH  19  20
DOCKED: ENDBRANCH   3  18
DOCKED: TORSDOF 5DOCKED: TER
DOCKED: ENDMDL
________________________________________________________________________________


	BEGINNING GENETIC ALGORITHM DOCKING 84 of 100
Run: 84 Seed: 772582856 701336297 [ Run 84 of 100 GA/GALS ]
Beginning LAMARCKIAN GENETIC ALGORITHM (LGA), with a maximum of 2500000 energy evaluations.

Final-Value: -13.740


	FINAL GENETIC ALGORITHM DOCKED STATE
	_______________________________________________


Detailed state:  trans 39.167 13.388 122.769 quatxyzw -0.221931 -0.025502 0.933239 0.281357 center 0.217 0.012 -0.211 ntor 5 150.8276 59.0517 141.3479 -120.9304 22.7098
State:	 39.167  13.388 122.769  -0.231 -0.027  0.973 147.318    150.83   59.05  141.35 -120.93   22.71

DOCKED: MODEL       84
DOCKED: USER    Run = 84
DOCKED: USER    DPF = ligand_dock.biased.dpf
DOCKED: USER  
DOCKED: USER    Estimated Free Energy of Binding    =  -11.34 kcal/mol  [=(1)+(2)+(3)-(4)]
DOCKED: USER    Estimated Inhibition Constant, Ki   =    4.87 nM (nanomolar)  [Temperature = 298.15 K]
DOCKED: USER    
DOCKED: USER    (1) Final Intermolecular Energy     =  -12.83 kcal/mol
DOCKED: USER        vdW + Hbond + desolv Energy     =  -12.83 kcal/mol
DOCKED: USER        Electrostatic Energy            =   +0.00 kcal/mol
DOCKED: USER    (2) Final Total Internal Energy     =   -0.91 kcal/mol
DOCKED: USER    (3) Torsional Free Energy           =   +1.49 kcal/mol
DOCKED: USER    (4) Unbound System's Energy  [=(2)] =   -0.91 kcal/mol
DOCKED: USER    
DOCKED: USER    
DOCKED: USER    NEWDPF move ligand.dum.pdbqt
DOCKED: USER    NEWDPF about 0.217000 0.012000 -0.211000
DOCKED: USER    NEWDPF tran0 39.167255 13.388014 122.769337
DOCKED: USER    NEWDPF quaternion0 -0.221931 -0.025502 0.933239 0.281357
DOCKED: USER    NEWDPF axisangle0 -0.231274 -0.026576 0.972526 147.317589
DOCKED: USER    NEWDPF quat0 -0.231274 -0.026576 0.972526 147.317589
DOCKED: USER    NEWDPF dihe0 150.83 59.05 141.35 -120.93 22.71 
DOCKED: USER  keepresnum = 1 
DOCKED: USER  
DOCKED: REMARK  Name = 
DOCKED: REMARK  5 active torsions:
DOCKED: REMARK  status: ('A' for Active; 'I' for Inactive)
DOCKED: REMARK    1  A    between atoms: S_2  and  N_3
DOCKED: REMARK    2  A    between atoms: S_2  and  C_10
DOCKED: REMARK    3  A    between atoms: N_3  and  C_4
DOCKED: REMARK    4  A    between atoms: C_12  and  C_13
DOCKED: REMARK    5  A    between atoms: C_14  and  C_15
DOCKED: REMARK                            x       y       z     vdW  Elec       q    Type
DOCKED: REMARK                         _______ _______ _______ _____ _____    ______ ____
DOCKED: USER                              x       y       z     vdW  Elec       q    Type
DOCKED: USER                           _______ _______ _______ _____ _____    ______ ____
DOCKED: ROOT
DOCKED: ATOM      1  C   UNL     1      38.454  15.450 122.787 -0.31 -0.00    +0.000 A 
DOCKED: ATOM      2  C   UNL     1      38.438  14.121 122.341 -0.40 -0.00    +0.000 A 
DOCKED: ATOM      3  C   UNL     1      37.294  13.317 122.527 -0.47 -0.00    +0.000 A 
DOCKED: ATOM      4  C   UNL     1      36.178  13.867 123.179 -0.45 -0.00    +0.000 A 
DOCKED: ATOM      5  C   UNL     1      36.191  15.195 123.613 -0.41 -0.00    +0.000 A 
DOCKED: ATOM      6  C   UNL     1      37.323  15.986 123.414 -0.29 -0.00    +0.000 A 
DOCKED: ATOM      7  CM  UNL     1      37.313  14.656 122.976 +0.00 -0.00    +0.000 AC
DOCKED: ENDROOT
DOCKED: BRANCH   1   8
DOCKED: ATOM      8  O   UNL     1      40.259  17.138 123.847 -0.36 -0.00    +0.000 OA
DOCKED: ATOM      9  S   UNL     1      39.899  16.435 122.568 -0.35 -0.00    +0.000 S 
DOCKED: ATOM     10  O   UNL     1      39.625  17.460 121.505 -0.11 -0.00    +0.000 OA
DOCKED: BRANCH   8  10
DOCKED: ATOM     11  N   UNL     1      41.233  15.440 122.074 -0.39 -0.00    +0.000 N 
DOCKED: ATOM     12  H   UNL     1      41.052  14.494 121.871 -0.03 -0.00    +0.000 HD
DOCKED: BRANCH  10  12
DOCKED: ATOM     13  C   UNL     1      42.584  15.915 121.944 -0.36 -0.00    +0.000 A 
DOCKED: ATOM     14  C   UNL     1      43.198  16.696 122.942 -0.36 -0.00    +0.000 A 
DOCKED: ATOM     15  C   UNL     1      44.518  17.132 122.785 -0.29 -0.00    +0.000 A 
DOCKED: ATOM     16  C   UNL     1      45.235  16.800 121.633 -0.25 +0.00    +0.000 A 
DOCKED: ATOM     17  C   UNL     1      44.632  16.033 120.634 -0.24 +0.00    +0.000 A 
DOCKED: ATOM     18  C   UNL     1      43.314  15.595 120.786 -0.23 -0.00    +0.000 A 
DOCKED: ATOM     19  CM  UNL     1      43.914  16.362 121.787 +0.00 -0.00    +0.000 AC
DOCKED: ENDBRANCH  10  12
DOCKED: ENDBRANCH   8  10
DOCKED: ENDBRANCH   1   8
DOCKED: BRANCH   3  18
DOCKED: ATOM     20  C   UNL     1      37.235  11.898 122.097 -0.51 -0.00    +0.000 C 
DOCKED: ATOM     21  C   UNL     1      37.044  10.871 122.939 -0.62 -0.00    +0.000 C 
DOCKED: BRANCH  19  20
DOCKED: ATOM     22  C   UNL     1      36.985   9.461 122.503 -0.64 -0.00    +0.000 C 
DOCKED: ATOM     23  N   UNL     1      37.016   8.369 123.430 -0.70 -0.00    +0.000 N 
DOCKED: ATOM     24  O   UNL     1      37.065   7.095 122.977 -1.98 -0.00    +0.000 OA
DOCKED: ATOM     25  O   UNL     1      36.877   9.217 121.271 -2.62 -0.00    +0.000 OA
DOCKED: ATOM     26  H   UNL     1      37.003   8.546 124.399 -0.47 -0.00    +0.000 HD
DOCKED: ENDBRANCH  19  20
DOCKED: ENDBRANCH   3  18
DOCKED: TORSDOF 5DOCKED: TER
DOCKED: ENDMDL
________________________________________________________________________________


	BEGINNING GENETIC ALGORITHM DOCKING 85 of 100
Run: 85 Seed: 361545942 283154954 [ Run 85 of 100 GA/GALS ]
Beginning LAMARCKIAN GENETIC ALGORITHM (LGA), with a maximum of 2500000 energy evaluations.

Final-Value: -14.860


	FINAL GENETIC ALGORITHM DOCKED STATE
	_______________________________________________


Detailed state:  trans 34.982 13.582 123.483 quatxyzw 0.946118 -0.317867 0.048847 0.037888 center 0.217 0.012 -0.211 ntor 5 -17.7332 -114.6270 141.4305 -157.3778 158.5022
State:	 34.982  13.582 123.483   0.947 -0.318  0.049 175.657    -17.73 -114.63  141.43 -157.38  158.50

DOCKED: MODEL       85
DOCKED: USER    Run = 85
DOCKED: USER    DPF = ligand_dock.biased.dpf
DOCKED: USER  
DOCKED: USER    Estimated Free Energy of Binding    =  -12.43 kcal/mol  [=(1)+(2)+(3)-(4)]
DOCKED: USER    Estimated Inhibition Constant, Ki   =  772.09 pM (picomolar)  [Temperature = 298.15 K]
DOCKED: USER    
DOCKED: USER    (1) Final Intermolecular Energy     =  -13.92 kcal/mol
DOCKED: USER        vdW + Hbond + desolv Energy     =  -13.92 kcal/mol
DOCKED: USER        Electrostatic Energy            =   +0.00 kcal/mol
DOCKED: USER    (2) Final Total Internal Energy     =   -0.94 kcal/mol
DOCKED: USER    (3) Torsional Free Energy           =   +1.49 kcal/mol
DOCKED: USER    (4) Unbound System's Energy  [=(2)] =   -0.94 kcal/mol
DOCKED: USER    
DOCKED: USER    
DOCKED: USER    NEWDPF move ligand.dum.pdbqt
DOCKED: USER    NEWDPF about 0.217000 0.012000 -0.211000
DOCKED: USER    NEWDPF tran0 34.981910 13.582124 123.482847
DOCKED: USER    NEWDPF quaternion0 0.946118 -0.317867 0.048847 0.037888
DOCKED: USER    NEWDPF axisangle0 0.946798 -0.318095 0.048882 175.657285
DOCKED: USER    NEWDPF quat0 0.946798 -0.318095 0.048882 175.657285
DOCKED: USER    NEWDPF dihe0 -17.73 -114.63 141.43 -157.38 158.50 
DOCKED: USER  keepresnum = 1 
DOCKED: USER  
DOCKED: REMARK  Name = 
DOCKED: REMARK  5 active torsions:
DOCKED: REMARK  status: ('A' for Active; 'I' for Inactive)
DOCKED: REMARK    1  A    between atoms: S_2  and  N_3
DOCKED: REMARK    2  A    between atoms: S_2  and  C_10
DOCKED: REMARK    3  A    between atoms: N_3  and  C_4
DOCKED: REMARK    4  A    between atoms: C_12  and  C_13
DOCKED: REMARK    5  A    between atoms: C_14  and  C_15
DOCKED: REMARK                            x       y       z     vdW  Elec       q    Type
DOCKED: REMARK                         _______ _______ _______ _____ _____    ______ ____
DOCKED: USER                              x       y       z     vdW  Elec       q    Type
DOCKED: USER                           _______ _______ _______ _____ _____    ______ ____
DOCKED: ROOT
DOCKED: ATOM      1  C   UNL     1      35.813  15.586 123.718 -0.42 -0.00    +0.000 A 
DOCKED: ATOM      2  C   UNL     1      35.855  14.189 123.832 -0.49 -0.00    +0.000 A 
DOCKED: ATOM      3  C   UNL     1      36.837  13.443 123.148 -0.51 -0.00    +0.000 A 
DOCKED: ATOM      4  C   UNL     1      37.762  14.122 122.339 -0.41 -0.00    +0.000 A 
DOCKED: ATOM      5  C   UNL     1      37.727  15.516 122.234 -0.28 -0.00    +0.000 A 
DOCKED: ATOM      6  C   UNL     1      36.759  16.246 122.924 -0.28 -0.00    +0.000 A 
DOCKED: ATOM      7  CM  UNL     1      36.792  14.850 123.033 +0.00 -0.00    +0.000 AC
DOCKED: ENDROOT
DOCKED: BRANCH   1   8
DOCKED: ATOM      8  O   UNL     1      33.724  15.593 125.411 -0.79 -0.00    +0.000 OA
DOCKED: ATOM      9  S   UNL     1      34.567  16.502 124.560 -0.64 -0.00    +0.000 S 
DOCKED: ATOM     10  O   UNL     1      33.690  17.171 123.541 -0.42 -0.00    +0.000 OA
DOCKED: BRANCH   8  10
DOCKED: ATOM     11  N   UNL     1      35.294  17.712 125.572 -0.26 -0.00    +0.000 N 
DOCKED: ATOM     12  H   UNL     1      36.185  17.526 125.946 -0.01 -0.00    +0.000 HD
DOCKED: BRANCH  10  12
DOCKED: ATOM     13  C   UNL     1      34.672  18.968 125.896 -0.23 -0.00    +0.000 A 
DOCKED: ATOM     14  C   UNL     1      35.325  20.198 125.685 -0.15 -0.00    +0.000 A 
DOCKED: ATOM     15  C   UNL     1      34.685  21.401 126.003 -0.14 -0.00    +0.000 A 
DOCKED: ATOM     16  C   UNL     1      33.395  21.389 126.538 -0.16 -0.00    +0.000 A 
DOCKED: ATOM     17  C   UNL     1      32.743  20.174 126.759 -0.20 -0.00    +0.000 A 
DOCKED: ATOM     18  C   UNL     1      33.378  18.970 126.442 -0.26 -0.00    +0.000 A 
DOCKED: ATOM     19  CM  UNL     1      34.032  20.183 126.221 +0.00 -0.00    +0.000 AC
DOCKED: ENDBRANCH  10  12
DOCKED: ENDBRANCH   8  10
DOCKED: ENDBRANCH   1   8
DOCKED: BRANCH   3  18
DOCKED: ATOM     20  C   UNL     1      36.908  11.962 123.215 -0.67 -0.00    +0.000 C 
DOCKED: ATOM     21  C   UNL     1      36.779  11.160 122.147 -0.61 -0.00    +0.000 C 
DOCKED: BRANCH  19  20
DOCKED: ATOM     22  C   UNL     1      36.853   9.687 122.222 -0.65 -0.00    +0.000 C 
DOCKED: ATOM     23  N   UNL     1      37.067   8.991 123.456 -0.59 -0.00    +0.000 N 
DOCKED: ATOM     24  O   UNL     1      37.232   7.648 123.458 -2.61 -0.00    +0.000 OA
DOCKED: ATOM     25  O   UNL     1      36.696   9.023 121.162 -2.62 -0.00    +0.000 OA
DOCKED: ATOM     26  H   UNL     1      37.095   9.491 124.304 -0.55 -0.00    +0.000 HD
DOCKED: ENDBRANCH  19  20
DOCKED: ENDBRANCH   3  18
DOCKED: TORSDOF 5DOCKED: TER
DOCKED: ENDMDL
________________________________________________________________________________


	BEGINNING GENETIC ALGORITHM DOCKING 86 of 100
Run: 86 Seed: 1551685578 1544171329 [ Run 86 of 100 GA/GALS ]
Beginning LAMARCKIAN GENETIC ALGORITHM (LGA), with a maximum of 2500000 energy evaluations.

Final-Value: -13.490


	FINAL GENETIC ALGORITHM DOCKED STATE
	_______________________________________________


Detailed state:  trans 38.008 13.859 121.631 quatxyzw -0.083602 0.142624 -0.908062 -0.384828 center 0.217 0.012 -0.211 ntor 5 -176.2445 -93.5851 154.7490 -18.3042 -3.9009
State:	 38.008  13.859 121.631  -0.091  0.155 -0.984 -134.734   -176.24  -93.59  154.75  -18.30   -3.90

DOCKED: MODEL       86
DOCKED: USER    Run = 86
DOCKED: USER    DPF = ligand_dock.biased.dpf
DOCKED: USER  
DOCKED: USER    Estimated Free Energy of Binding    =  -10.81 kcal/mol  [=(1)+(2)+(3)-(4)]
DOCKED: USER    Estimated Inhibition Constant, Ki   =   11.85 nM (nanomolar)  [Temperature = 298.15 K]
DOCKED: USER    
DOCKED: USER    (1) Final Intermolecular Energy     =  -12.30 kcal/mol
DOCKED: USER        vdW + Hbond + desolv Energy     =  -12.30 kcal/mol
DOCKED: USER        Electrostatic Energy            =   +0.00 kcal/mol
DOCKED: USER    (2) Final Total Internal Energy     =   -1.19 kcal/mol
DOCKED: USER    (3) Torsional Free Energy           =   +1.49 kcal/mol
DOCKED: USER    (4) Unbound System's Energy  [=(2)] =   -1.19 kcal/mol
DOCKED: USER    
DOCKED: USER    
DOCKED: USER    NEWDPF move ligand.dum.pdbqt
DOCKED: USER    NEWDPF about 0.217000 0.012000 -0.211000
DOCKED: USER    NEWDPF tran0 38.007755 13.858525 121.631218
DOCKED: USER    NEWDPF quaternion0 -0.083602 0.142624 -0.908062 -0.384828
DOCKED: USER    NEWDPF axisangle0 -0.090577 0.154524 -0.983828 -134.733894
DOCKED: USER    NEWDPF quat0 -0.090577 0.154524 -0.983828 -134.733894
DOCKED: USER    NEWDPF dihe0 -176.24 -93.59 154.75 -18.30 -3.90 
DOCKED: USER  keepresnum = 1 
DOCKED: USER  
DOCKED: REMARK  Name = 
DOCKED: REMARK  5 active torsions:
DOCKED: REMARK  status: ('A' for Active; 'I' for Inactive)
DOCKED: REMARK    1  A    between atoms: S_2  and  N_3
DOCKED: REMARK    2  A    between atoms: S_2  and  C_10
DOCKED: REMARK    3  A    between atoms: N_3  and  C_4
DOCKED: REMARK    4  A    between atoms: C_12  and  C_13
DOCKED: REMARK    5  A    between atoms: C_14  and  C_15
DOCKED: REMARK                            x       y       z     vdW  Elec       q    Type
DOCKED: REMARK                         _______ _______ _______ _____ _____    ______ ____
DOCKED: USER                              x       y       z     vdW  Elec       q    Type
DOCKED: USER                           _______ _______ _______ _____ _____    ______ ____
DOCKED: ROOT
DOCKED: ATOM      1  C   UNL     1      36.937  15.659 122.240 -0.27 -0.00    +0.000 A 
DOCKED: ATOM      2  C   UNL     1      37.007  14.339 121.774 -0.30 -0.00    +0.000 A 
DOCKED: ATOM      3  C   UNL     1      36.442  13.284 122.521 -0.39 -0.00    +0.000 A 
DOCKED: ATOM      4  C   UNL     1      35.821  13.578 123.745 -0.48 -0.00    +0.000 A 
DOCKED: ATOM      5  C   UNL     1      35.741  14.896 124.205 -0.44 -0.00    +0.000 A 
DOCKED: ATOM      6  C   UNL     1      36.293  15.934 123.453 -0.35 -0.00    +0.000 A 
DOCKED: ATOM      7  CM  UNL     1      36.373  14.615 122.989 +0.00 -0.00    +0.000 AC
DOCKED: ENDROOT
DOCKED: BRANCH   1   8
DOCKED: ATOM      8  O   UNL     1      37.943  18.152 122.185 -0.11 -0.00    +0.000 OA
DOCKED: ATOM      9  S   UNL     1      37.668  16.963 121.308 -0.19 -0.00    +0.000 S 
DOCKED: ATOM     10  O   UNL     1      36.716  17.367 120.219 -0.14 -0.00    +0.000 OA
DOCKED: BRANCH   8  10
DOCKED: ATOM     11  N   UNL     1      39.158  16.428 120.596 -0.13 -0.00    +0.000 N 
DOCKED: ATOM     12  H   UNL     1      39.183  16.294 119.621 +0.00 -0.00    +0.000 HD
DOCKED: BRANCH  10  12
DOCKED: ATOM     13  C   UNL     1      40.358  16.167 121.346 -0.21 -0.00    +0.000 A 
DOCKED: ATOM     14  C   UNL     1      41.458  17.046 121.320 -0.15 -0.00    +0.000 A 
DOCKED: ATOM     15  C   UNL     1      42.605  16.765 122.070 -0.30 -0.00    +0.000 A 
DOCKED: ATOM     16  C   UNL     1      42.669  15.605 122.845 -0.32 +0.00    +0.000 A 
DOCKED: ATOM     17  C   UNL     1      41.588  14.722 122.869 -0.50 -0.00    +0.000 A 
DOCKED: ATOM     18  C   UNL     1      40.440  14.999 122.122 -0.39 -0.00    +0.000 A 
DOCKED: ATOM     19  CM  UNL     1      41.520  15.883 122.096 +0.00 -0.00    +0.000 AC
DOCKED: ENDBRANCH  10  12
DOCKED: ENDBRANCH   8  10
DOCKED: ENDBRANCH   1   8
DOCKED: BRANCH   3  18
DOCKED: ATOM     20  C   UNL     1      36.512  11.868 122.084 -0.59 -0.00    +0.000 C 
DOCKED: ATOM     21  C   UNL     1      36.884  10.858 122.886 -0.64 -0.00    +0.000 C 
DOCKED: BRANCH  19  20
DOCKED: ATOM     22  C   UNL     1      36.949   9.450 122.444 -0.65 -0.00    +0.000 C 
DOCKED: ATOM     23  N   UNL     1      36.898   8.354 123.365 -0.70 -0.00    +0.000 N 
DOCKED: ATOM     24  O   UNL     1      37.067   7.086 122.921 -1.94 -0.00    +0.000 OA
DOCKED: ATOM     25  O   UNL     1      37.026   9.211 121.209 -2.72 -0.00    +0.000 OA
DOCKED: ATOM     26  H   UNL     1      36.741   8.523 124.323 -0.41 -0.00    +0.000 HD
DOCKED: ENDBRANCH  19  20
DOCKED: ENDBRANCH   3  18
DOCKED: TORSDOF 5DOCKED: TER
DOCKED: ENDMDL
________________________________________________________________________________


	BEGINNING GENETIC ALGORITHM DOCKING 87 of 100
Run: 87 Seed: 1599976944 1193200720 [ Run 87 of 100 GA/GALS ]
Beginning LAMARCKIAN GENETIC ALGORITHM (LGA), with a maximum of 2500000 energy evaluations.

Final-Value: -14.554


	FINAL GENETIC ALGORITHM DOCKED STATE
	_______________________________________________


Detailed state:  trans 38.679 13.511 123.779 quatxyzw -0.248014 0.110661 0.900267 0.340239 center 0.217 0.012 -0.211 ntor 5 -7.2145 -106.2891 -68.1214 -133.7165 28.2460
State:	 38.679  13.511 123.779  -0.264  0.118  0.957 140.217     -7.21 -106.29  -68.12 -133.72   28.25

DOCKED: MODEL       87
DOCKED: USER    Run = 87
DOCKED: USER    DPF = ligand_dock.biased.dpf
DOCKED: USER  
DOCKED: USER    Estimated Free Energy of Binding    =  -12.11 kcal/mol  [=(1)+(2)+(3)-(4)]
DOCKED: USER    Estimated Inhibition Constant, Ki   =    1.32 nM (nanomolar)  [Temperature = 298.15 K]
DOCKED: USER    
DOCKED: USER    (1) Final Intermolecular Energy     =  -13.61 kcal/mol
DOCKED: USER        vdW + Hbond + desolv Energy     =  -13.61 kcal/mol
DOCKED: USER        Electrostatic Energy            =   +0.00 kcal/mol
DOCKED: USER    (2) Final Total Internal Energy     =   -0.95 kcal/mol
DOCKED: USER    (3) Torsional Free Energy           =   +1.49 kcal/mol
DOCKED: USER    (4) Unbound System's Energy  [=(2)] =   -0.95 kcal/mol
DOCKED: USER    
DOCKED: USER    
DOCKED: USER    NEWDPF move ligand.dum.pdbqt
DOCKED: USER    NEWDPF about 0.217000 0.012000 -0.211000
DOCKED: USER    NEWDPF tran0 38.678556 13.511049 123.778520
DOCKED: USER    NEWDPF quaternion0 -0.248014 0.110661 0.900267 0.340239
DOCKED: USER    NEWDPF axisangle0 -0.263750 0.117683 0.957386 140.217119
DOCKED: USER    NEWDPF quat0 -0.263750 0.117683 0.957386 140.217119
DOCKED: USER    NEWDPF dihe0 -7.21 -106.29 -68.12 -133.72 28.25 
DOCKED: USER  keepresnum = 1 
DOCKED: USER  
DOCKED: REMARK  Name = 
DOCKED: REMARK  5 active torsions:
DOCKED: REMARK  status: ('A' for Active; 'I' for Inactive)
DOCKED: REMARK    1  A    between atoms: S_2  and  N_3
DOCKED: REMARK    2  A    between atoms: S_2  and  C_10
DOCKED: REMARK    3  A    between atoms: N_3  and  C_4
DOCKED: REMARK    4  A    between atoms: C_12  and  C_13
DOCKED: REMARK    5  A    between atoms: C_14  and  C_15
DOCKED: REMARK                            x       y       z     vdW  Elec       q    Type
DOCKED: REMARK                         _______ _______ _______ _____ _____    ______ ____
DOCKED: USER                              x       y       z     vdW  Elec       q    Type
DOCKED: USER                           _______ _______ _______ _____ _____    ______ ____
DOCKED: ROOT
DOCKED: ATOM      1  C   UNL     1      37.875  15.441 123.153 -0.30 -0.00    +0.000 A 
DOCKED: ATOM      2  C   UNL     1      37.988  14.045 123.079 -0.43 -0.00    +0.000 A 
DOCKED: ATOM      3  C   UNL     1      36.868  13.222 123.318 -0.53 -0.00    +0.000 A 
DOCKED: ATOM      4  C   UNL     1      35.643  13.823 123.646 -0.46 -0.00    +0.000 A 
DOCKED: ATOM      5  C   UNL     1      35.528  15.215 123.710 -0.46 -0.00    +0.000 A 
DOCKED: ATOM      6  C   UNL     1      36.638  16.022 123.460 -0.32 -0.00    +0.000 A 
DOCKED: ATOM      7  CM  UNL     1      36.757  14.627 123.394 +0.00 -0.00    +0.000 AC
DOCKED: ENDROOT
DOCKED: BRANCH   1   8
DOCKED: ATOM      8  O   UNL     1      39.496  17.401 124.024 -0.29 -0.00    +0.000 OA
DOCKED: ATOM      9  S   UNL     1      39.288  16.456 122.874 -0.33 -0.00    +0.000 S 
DOCKED: ATOM     10  O   UNL     1      39.069  17.250 121.619 -0.12 -0.00    +0.000 OA
DOCKED: BRANCH   8  10
DOCKED: ATOM     11  N   UNL     1      40.705  15.470 122.688 -0.42 -0.00    +0.000 N 
DOCKED: ATOM     12  H   UNL     1      40.618  14.502 122.843 -0.04 -0.00    +0.000 HD
DOCKED: BRANCH  10  12
DOCKED: ATOM     13  C   UNL     1      41.998  15.984 122.321 -0.39 -0.00    +0.000 A 
DOCKED: ATOM     14  C   UNL     1      42.650  15.584 121.138 -0.23 -0.00    +0.000 A 
DOCKED: ATOM     15  C   UNL     1      43.903  16.112 120.810 -0.24 -0.00    +0.000 A 
DOCKED: ATOM     16  C   UNL     1      44.519  17.036 121.656 -0.24 -0.00    +0.000 A 
DOCKED: ATOM     17  C   UNL     1      43.885  17.432 122.835 -0.26 -0.00    +0.000 A 
DOCKED: ATOM     18  C   UNL     1      42.633  16.908 123.168 -0.36 -0.00    +0.000 A 
DOCKED: ATOM     19  CM  UNL     1      43.265  16.510 121.989 +0.00 -0.00    +0.000 AC
DOCKED: ENDBRANCH  10  12
DOCKED: ENDBRANCH   8  10
DOCKED: ENDBRANCH   1   8
DOCKED: BRANCH   3  18
DOCKED: ATOM     20  C   UNL     1      36.942  11.740 123.276 -0.67 -0.00    +0.000 C 
DOCKED: ATOM     21  C   UNL     1      36.715  11.013 122.170 -0.63 -0.00    +0.000 C 
DOCKED: BRANCH  19  20
DOCKED: ATOM     22  C   UNL     1      36.793   9.538 122.136 -0.67 -0.00    +0.000 C 
DOCKED: ATOM     23  N   UNL     1      36.896   8.748 123.327 -0.65 -0.00    +0.000 N 
DOCKED: ATOM     24  O   UNL     1      37.070   7.409 123.239 -2.41 -0.00    +0.000 OA
DOCKED: ATOM     25  O   UNL     1      36.740   8.960 121.018 -2.62 -0.00    +0.000 OA
DOCKED: ATOM     26  H   UNL     1      36.841   9.180 124.210 -0.52 -0.00    +0.000 HD
DOCKED: ENDBRANCH  19  20
DOCKED: ENDBRANCH   3  18
DOCKED: TORSDOF 5DOCKED: TER
DOCKED: ENDMDL
________________________________________________________________________________


	BEGINNING GENETIC ALGORITHM DOCKING 88 of 100
Run: 88 Seed: 1097458655 1978005835 [ Run 88 of 100 GA/GALS ]
Beginning LAMARCKIAN GENETIC ALGORITHM (LGA), with a maximum of 2500000 energy evaluations.

Final-Value: -14.436


	FINAL GENETIC ALGORITHM DOCKED STATE
	_______________________________________________


Detailed state:  trans 38.419 13.649 123.896 quatxyzw 0.254247 -0.104363 -0.903077 -0.330029 center 0.217 0.012 -0.211 ntor 5 -26.0945 -61.1003 -42.2145 -152.7169 24.5005
State:	 38.419  13.649 123.896   0.269 -0.111 -0.957 -141.459    -26.09  -61.10  -42.21 -152.72   24.50

DOCKED: MODEL       88
DOCKED: USER    Run = 88
DOCKED: USER    DPF = ligand_dock.biased.dpf
DOCKED: USER  
DOCKED: USER    Estimated Free Energy of Binding    =  -11.97 kcal/mol  [=(1)+(2)+(3)-(4)]
DOCKED: USER    Estimated Inhibition Constant, Ki   =    1.68 nM (nanomolar)  [Temperature = 298.15 K]
DOCKED: USER    
DOCKED: USER    (1) Final Intermolecular Energy     =  -13.46 kcal/mol
DOCKED: USER        vdW + Hbond + desolv Energy     =  -13.46 kcal/mol
DOCKED: USER        Electrostatic Energy            =   +0.00 kcal/mol
DOCKED: USER    (2) Final Total Internal Energy     =   -0.97 kcal/mol
DOCKED: USER    (3) Torsional Free Energy           =   +1.49 kcal/mol
DOCKED: USER    (4) Unbound System's Energy  [=(2)] =   -0.97 kcal/mol
DOCKED: USER    
DOCKED: USER    
DOCKED: USER    NEWDPF move ligand.dum.pdbqt
DOCKED: USER    NEWDPF about 0.217000 0.012000 -0.211000
DOCKED: USER    NEWDPF tran0 38.419350 13.649398 123.895561
DOCKED: USER    NEWDPF quaternion0 0.254247 -0.104363 -0.903077 -0.330029
DOCKED: USER    NEWDPF axisangle0 0.269338 -0.110557 -0.956679 -141.458942
DOCKED: USER    NEWDPF quat0 0.269338 -0.110557 -0.956679 -141.458942
DOCKED: USER    NEWDPF dihe0 -26.09 -61.10 -42.21 -152.72 24.50 
DOCKED: USER  keepresnum = 1 
DOCKED: USER  
DOCKED: REMARK  Name = 
DOCKED: REMARK  5 active torsions:
DOCKED: REMARK  status: ('A' for Active; 'I' for Inactive)
DOCKED: REMARK    1  A    between atoms: S_2  and  N_3
DOCKED: REMARK    2  A    between atoms: S_2  and  C_10
DOCKED: REMARK    3  A    between atoms: N_3  and  C_4
DOCKED: REMARK    4  A    between atoms: C_12  and  C_13
DOCKED: REMARK    5  A    between atoms: C_14  and  C_15
DOCKED: REMARK                            x       y       z     vdW  Elec       q    Type
DOCKED: REMARK                         _______ _______ _______ _____ _____    ______ ____
DOCKED: USER                              x       y       z     vdW  Elec       q    Type
DOCKED: USER                           _______ _______ _______ _____ _____    ______ ____
DOCKED: ROOT
DOCKED: ATOM      1  C   UNL     1      37.651  15.604 123.305 -0.29 -0.00    +0.000 A 
DOCKED: ATOM      2  C   UNL     1      37.743  14.209 123.202 -0.40 -0.00    +0.000 A 
DOCKED: ATOM      3  C   UNL     1      36.608  13.398 123.415 -0.53 -0.00    +0.000 A 
DOCKED: ATOM      4  C   UNL     1      35.390  14.013 123.747 -0.39 -0.00    +0.000 A 
DOCKED: ATOM      5  C   UNL     1      35.296  15.404 123.839 -0.48 -0.00    +0.000 A 
DOCKED: ATOM      6  C   UNL     1      36.421  16.198 123.615 -0.32 -0.00    +0.000 A 
DOCKED: ATOM      7  CM  UNL     1      36.518  14.804 123.520 +0.00 -0.00    +0.000 AC
DOCKED: ENDROOT
DOCKED: BRANCH   1   8
DOCKED: ATOM      8  O   UNL     1      39.244  17.583 124.187 -0.28 -0.00    +0.000 OA
DOCKED: ATOM      9  S   UNL     1      39.082  16.603 123.059 -0.33 -0.00    +0.000 S 
DOCKED: ATOM     10  O   UNL     1      38.925  17.358 121.771 -0.12 -0.00    +0.000 OA
DOCKED: BRANCH   8  10
DOCKED: ATOM     11  N   UNL     1      40.499  15.604 122.968 -0.35 -0.00    +0.000 N 
DOCKED: ATOM     12  H   UNL     1      40.475  14.726 123.412 -0.04 -0.00    +0.000 HD
DOCKED: BRANCH  10  12
DOCKED: ATOM     13  C   UNL     1      41.706  15.983 122.282 -0.38 -0.00    +0.000 A 
DOCKED: ATOM     14  C   UNL     1      41.788  16.006 120.876 -0.21 -0.00    +0.000 A 
DOCKED: ATOM     15  C   UNL     1      42.976  16.389 120.245 -0.19 -0.00    +0.000 A 
DOCKED: ATOM     16  C   UNL     1      44.091  16.747 121.005 -0.21 -0.00    +0.000 A 
DOCKED: ATOM     17  C   UNL     1      44.023  16.719 122.399 -0.31 -0.00    +0.000 A 
DOCKED: ATOM     18  C   UNL     1      42.839  16.337 123.035 -0.39 -0.00    +0.000 A 
DOCKED: ATOM     19  CM  UNL     1      42.904  16.364 121.641 +0.00 -0.00    +0.000 AC
DOCKED: ENDBRANCH  10  12
DOCKED: ENDBRANCH   8  10
DOCKED: ENDBRANCH   1   8
DOCKED: BRANCH   3  18
DOCKED: ATOM     20  C   UNL     1      36.659  11.917 123.342 -0.69 -0.00    +0.000 C 
DOCKED: ATOM     21  C   UNL     1      36.930  11.235 122.219 -0.59 -0.00    +0.000 C 
DOCKED: BRANCH  19  20
DOCKED: ATOM     22  C   UNL     1      36.981   9.760 122.155 -0.61 -0.00    +0.000 C 
DOCKED: ATOM     23  N   UNL     1      36.912   8.939 123.327 -0.62 -0.00    +0.000 N 
DOCKED: ATOM     24  O   UNL     1      37.068   7.598 123.226 -2.51 -0.00    +0.000 OA
DOCKED: ATOM     25  O   UNL     1      37.062   9.210 121.024 -2.74 -0.00    +0.000 OA
DOCKED: ATOM     26  H   UNL     1      36.752   9.350 124.207 -0.50 -0.00    +0.000 HD
DOCKED: ENDBRANCH  19  20
DOCKED: ENDBRANCH   3  18
DOCKED: TORSDOF 5DOCKED: TER
DOCKED: ENDMDL
________________________________________________________________________________


	BEGINNING GENETIC ALGORITHM DOCKING 89 of 100
Run: 89 Seed: 2102414085 279170037 [ Run 89 of 100 GA/GALS ]
Beginning LAMARCKIAN GENETIC ALGORITHM (LGA), with a maximum of 2500000 energy evaluations.

Final-Value: -14.496


	FINAL GENETIC ALGORITHM DOCKED STATE
	_______________________________________________


Detailed state:  trans 38.363 13.298 122.854 quatxyzw 0.069649 -0.058723 -0.949633 -0.299829 center 0.217 0.012 -0.211 ntor 5 -70.6675 96.2812 10.3842 81.6703 84.3310
State:	 38.363  13.298 122.854   0.073 -0.062 -0.995 -145.105    -70.67   96.28   10.38   81.67   84.33

DOCKED: MODEL       89
DOCKED: USER    Run = 89
DOCKED: USER    DPF = ligand_dock.biased.dpf
DOCKED: USER  
DOCKED: USER    Estimated Free Energy of Binding    =  -11.53 kcal/mol  [=(1)+(2)+(3)-(4)]
DOCKED: USER    Estimated Inhibition Constant, Ki   =    3.53 nM (nanomolar)  [Temperature = 298.15 K]
DOCKED: USER    
DOCKED: USER    (1) Final Intermolecular Energy     =  -13.02 kcal/mol
DOCKED: USER        vdW + Hbond + desolv Energy     =  -13.02 kcal/mol
DOCKED: USER        Electrostatic Energy            =   +0.00 kcal/mol
DOCKED: USER    (2) Final Total Internal Energy     =   -1.47 kcal/mol
DOCKED: USER    (3) Torsional Free Energy           =   +1.49 kcal/mol
DOCKED: USER    (4) Unbound System's Energy  [=(2)] =   -1.47 kcal/mol
DOCKED: USER    
DOCKED: USER    
DOCKED: USER    NEWDPF move ligand.dum.pdbqt
DOCKED: USER    NEWDPF about 0.217000 0.012000 -0.211000
DOCKED: USER    NEWDPF tran0 38.362897 13.298445 122.854096
DOCKED: USER    NEWDPF quaternion0 0.069649 -0.058723 -0.949633 -0.299829
DOCKED: USER    NEWDPF axisangle0 0.073008 -0.061555 -0.995430 -145.105300
DOCKED: USER    NEWDPF quat0 0.073008 -0.061555 -0.995430 -145.105300
DOCKED: USER    NEWDPF dihe0 -70.67 96.28 10.38 81.67 84.33 
DOCKED: USER  keepresnum = 1 
DOCKED: USER  
DOCKED: REMARK  Name = 
DOCKED: REMARK  5 active torsions:
DOCKED: REMARK  status: ('A' for Active; 'I' for Inactive)
DOCKED: REMARK    1  A    between atoms: S_2  and  N_3
DOCKED: REMARK    2  A    between atoms: S_2  and  C_10
DOCKED: REMARK    3  A    between atoms: N_3  and  C_4
DOCKED: REMARK    4  A    between atoms: C_12  and  C_13
DOCKED: REMARK    5  A    between atoms: C_14  and  C_15
DOCKED: REMARK                            x       y       z     vdW  Elec       q    Type
DOCKED: REMARK                         _______ _______ _______ _____ _____    ______ ____
DOCKED: USER                              x       y       z     vdW  Elec       q    Type
DOCKED: USER                           _______ _______ _______ _____ _____    ______ ____
DOCKED: ROOT
DOCKED: ATOM      1  C   UNL     1      37.621  15.324 122.528 -0.31 -0.00    +0.000 A 
DOCKED: ATOM      2  C   UNL     1      37.533  13.927 122.444 -0.43 -0.00    +0.000 A 
DOCKED: ATOM      3  C   UNL     1      36.488  13.235 123.091 -0.52 -0.00    +0.000 A 
DOCKED: ATOM      4  C   UNL     1      35.548  13.967 123.833 -0.47 -0.00    +0.000 A 
DOCKED: ATOM      5  C   UNL     1      35.629  15.361 123.908 -0.45 -0.00    +0.000 A 
DOCKED: ATOM      6  C   UNL     1      36.660  16.038 123.254 -0.31 -0.00    +0.000 A 
DOCKED: ATOM      7  CM  UNL     1      36.580  14.642 123.176 +0.00 -0.00    +0.000 AC
DOCKED: ENDROOT
DOCKED: BRANCH   1   8
DOCKED: ATOM      8  O   UNL     1      40.245  15.901 122.434 -0.34 -0.00    +0.000 OA
DOCKED: ATOM      9  S   UNL     1      38.944  16.174 121.733 -0.28 -0.00    +0.000 S 
DOCKED: ATOM     10  O   UNL     1      38.663  17.648 121.775 -0.11 -0.00    +0.000 OA
DOCKED: BRANCH   8  10
DOCKED: ATOM     11  N   UNL     1      39.075  15.663 120.079 -0.18 -0.00    +0.000 N 
DOCKED: ATOM     12  H   UNL     1      39.963  15.691 119.656 -0.02 -0.00    +0.000 HD
DOCKED: BRANCH  10  12
DOCKED: ATOM     13  C   UNL     1      37.963  15.202 119.290 -0.20 -0.00    +0.000 A 
DOCKED: ATOM     14  C   UNL     1      37.108  16.095 118.615 -0.14 -0.00    +0.000 A 
DOCKED: ATOM     15  C   UNL     1      36.043  15.609 117.849 -0.18 -0.00    +0.000 A 
DOCKED: ATOM     16  C   UNL     1      35.816  14.234 117.754 -0.32 -0.00    +0.000 A 
DOCKED: ATOM     17  C   UNL     1      36.653  13.342 118.427 -0.35 -0.00    +0.000 A 
DOCKED: ATOM     18  C   UNL     1      37.719  13.822 119.193 -0.31 -0.00    +0.000 A 
DOCKED: ATOM     19  CM  UNL     1      36.883  14.717 118.522 +0.00 -0.00    +0.000 AC
DOCKED: ENDBRANCH  10  12
DOCKED: ENDBRANCH   8  10
DOCKED: ENDBRANCH   1   8
DOCKED: BRANCH   3  18
DOCKED: ATOM     20  C   UNL     1      36.366  11.756 123.054 -0.69 -0.00    +0.000 C 
DOCKED: ATOM     21  C   UNL     1      37.071  10.971 122.226 -0.55 -0.00    +0.000 C 
DOCKED: BRANCH  19  20
DOCKED: ATOM     22  C   UNL     1      36.945   9.499 122.197 -0.64 -0.00    +0.000 C 
DOCKED: ATOM     23  N   UNL     1      37.074   8.695 123.376 -0.65 -0.00    +0.000 N 
DOCKED: ATOM     24  O   UNL     1      37.055   7.345 123.281 -2.37 -0.00    +0.000 OA
DOCKED: ATOM     25  O   UNL     1      36.691   8.940 121.097 -2.61 -0.00    +0.000 OA
DOCKED: ATOM     26  H   UNL     1      37.176   9.125 124.256 -0.58 -0.00    +0.000 HD
DOCKED: ENDBRANCH  19  20
DOCKED: ENDBRANCH   3  18
DOCKED: TORSDOF 5DOCKED: TER
DOCKED: ENDMDL
________________________________________________________________________________


	BEGINNING GENETIC ALGORITHM DOCKING 90 of 100
Run: 90 Seed: 382907539 1480216020 [ Run 90 of 100 GA/GALS ]
Beginning LAMARCKIAN GENETIC ALGORITHM (LGA), with a maximum of 2500000 energy evaluations.

Final-Value: -14.561


	FINAL GENETIC ALGORITHM DOCKED STATE
	_______________________________________________


Detailed state:  trans 38.488 13.694 123.753 quatxyzw -0.218197 0.114487 0.914416 0.321132 center 0.217 0.012 -0.211 ntor 5 -39.9264 -83.5974 -37.3626 -139.9351 17.2341
State:	 38.488  13.694 123.753  -0.230  0.121  0.966 142.537    -39.93  -83.60  -37.36 -139.94   17.23

DOCKED: MODEL       90
DOCKED: USER    Run = 90
DOCKED: USER    DPF = ligand_dock.biased.dpf
DOCKED: USER  
DOCKED: USER    Estimated Free Energy of Binding    =  -12.11 kcal/mol  [=(1)+(2)+(3)-(4)]
DOCKED: USER    Estimated Inhibition Constant, Ki   =    1.33 nM (nanomolar)  [Temperature = 298.15 K]
DOCKED: USER    
DOCKED: USER    (1) Final Intermolecular Energy     =  -13.60 kcal/mol
DOCKED: USER        vdW + Hbond + desolv Energy     =  -13.60 kcal/mol
DOCKED: USER        Electrostatic Energy            =   +0.00 kcal/mol
DOCKED: USER    (2) Final Total Internal Energy     =   -0.96 kcal/mol
DOCKED: USER    (3) Torsional Free Energy           =   +1.49 kcal/mol
DOCKED: USER    (4) Unbound System's Energy  [=(2)] =   -0.96 kcal/mol
DOCKED: USER    
DOCKED: USER    
DOCKED: USER    NEWDPF move ligand.dum.pdbqt
DOCKED: USER    NEWDPF about 0.217000 0.012000 -0.211000
DOCKED: USER    NEWDPF tran0 38.488363 13.693519 123.752814
DOCKED: USER    NEWDPF quaternion0 -0.218197 0.114487 0.914416 0.321132
DOCKED: USER    NEWDPF axisangle0 -0.230400 0.120890 0.965557 142.537153
DOCKED: USER    NEWDPF quat0 -0.230400 0.120890 0.965557 142.537153
DOCKED: USER    NEWDPF dihe0 -39.93 -83.60 -37.36 -139.94 17.23 
DOCKED: USER  keepresnum = 1 
DOCKED: USER  
DOCKED: REMARK  Name = 
DOCKED: REMARK  5 active torsions:
DOCKED: REMARK  status: ('A' for Active; 'I' for Inactive)
DOCKED: REMARK    1  A    between atoms: S_2  and  N_3
DOCKED: REMARK    2  A    between atoms: S_2  and  C_10
DOCKED: REMARK    3  A    between atoms: N_3  and  C_4
DOCKED: REMARK    4  A    between atoms: C_12  and  C_13
DOCKED: REMARK    5  A    between atoms: C_14  and  C_15
DOCKED: REMARK                            x       y       z     vdW  Elec       q    Type
DOCKED: REMARK                         _______ _______ _______ _____ _____    ______ ____
DOCKED: USER                              x       y       z     vdW  Elec       q    Type
DOCKED: USER                           _______ _______ _______ _____ _____    ______ ____
DOCKED: ROOT
DOCKED: ATOM      1  C   UNL     1      37.754  15.654 123.140 -0.30 -0.00    +0.000 A 
DOCKED: ATOM      2  C   UNL     1      37.790  14.254 123.082 -0.43 -0.00    +0.000 A 
DOCKED: ATOM      3  C   UNL     1      36.643  13.494 123.394 -0.52 -0.00    +0.000 A 
DOCKED: ATOM      4  C   UNL     1      35.470  14.164 123.778 -0.46 -0.00    +0.000 A 
DOCKED: ATOM      5  C   UNL     1      35.431  15.560 123.826 -0.45 -0.00    +0.000 A 
DOCKED: ATOM      6  C   UNL     1      36.567  16.304 123.504 -0.30 -0.00    +0.000 A 
DOCKED: ATOM      7  CM  UNL     1      36.609  14.905 123.454 +0.00 -0.00    +0.000 AC
DOCKED: ENDROOT
DOCKED: BRANCH   1   8
DOCKED: ATOM      8  O   UNL     1      39.370  17.715 123.753 -0.24 -0.00    +0.000 OA
DOCKED: ATOM      9  S   UNL     1      39.200  16.590 122.770 -0.32 -0.00    +0.000 S 
DOCKED: ATOM     10  O   UNL     1      39.063  17.162 121.389 -0.12 -0.00    +0.000 OA
DOCKED: BRANCH   8  10
DOCKED: ATOM     11  N   UNL     1      40.604  15.569 122.830 -0.38 -0.00    +0.000 N 
DOCKED: ATOM     12  H   UNL     1      40.507  14.674 123.228 -0.04 -0.00    +0.000 HD
DOCKED: BRANCH  10  12
DOCKED: ATOM     13  C   UNL     1      41.898  15.954 122.333 -0.39 -0.00    +0.000 A 
DOCKED: ATOM     14  C   UNL     1      42.333  15.603 121.040 -0.19 -0.00    +0.000 A 
DOCKED: ATOM     15  C   UNL     1      43.594  16.003 120.587 -0.24 -0.00    +0.000 A 
DOCKED: ATOM     16  C   UNL     1      44.435  16.748 121.417 -0.24 -0.00    +0.000 A 
DOCKED: ATOM     17  C   UNL     1      44.016  17.092 122.704 -0.33 -0.00    +0.000 A 
DOCKED: ATOM     18  C   UNL     1      42.757  16.696 123.161 -0.37 -0.00    +0.000 A 
DOCKED: ATOM     19  CM  UNL     1      43.173  16.350 121.874 +0.00 -0.00    +0.000 AC
DOCKED: ENDBRANCH  10  12
DOCKED: ENDBRANCH   8  10
DOCKED: ENDBRANCH   1   8
DOCKED: BRANCH   3  18
DOCKED: ATOM     20  C   UNL     1      36.637  12.010 123.372 -0.69 -0.00    +0.000 C 
DOCKED: ATOM     21  C   UNL     1      36.905  11.280 122.279 -0.60 -0.00    +0.000 C 
DOCKED: BRANCH  19  20
DOCKED: ATOM     22  C   UNL     1      36.899   9.803 122.265 -0.63 -0.00    +0.000 C 
DOCKED: ATOM     23  N   UNL     1      37.065   9.024 123.457 -0.58 -0.00    +0.000 N 
DOCKED: ATOM     24  O   UNL     1      37.157   7.677 123.379 -2.60 -0.00    +0.000 OA
DOCKED: ATOM     25  O   UNL     1      36.717   9.213 121.167 -2.63 -0.00    +0.000 OA
DOCKED: ATOM     26  H   UNL     1      37.111   9.471 124.334 -0.54 -0.00    +0.000 HD
DOCKED: ENDBRANCH  19  20
DOCKED: ENDBRANCH   3  18
DOCKED: TORSDOF 5DOCKED: TER
DOCKED: ENDMDL
________________________________________________________________________________


	BEGINNING GENETIC ALGORITHM DOCKING 91 of 100
Run: 91 Seed: 1418409830 951665944 [ Run 91 of 100 GA/GALS ]
Beginning LAMARCKIAN GENETIC ALGORITHM (LGA), with a maximum of 2500000 energy evaluations.

Final-Value: -13.585


	FINAL GENETIC ALGORITHM DOCKED STATE
	_______________________________________________


Detailed state:  trans 37.534 13.434 119.225 quatxyzw -0.572218 0.120856 -0.754767 -0.297132 center 0.217 0.012 -0.211 ntor 5 104.1255 -125.6081 -79.5957 -30.1937 36.5891
State:	 37.534  13.434 119.225  -0.599  0.127 -0.790 -145.429    104.13 -125.61  -79.60  -30.19   36.59

DOCKED: MODEL       91
DOCKED: USER    Run = 91
DOCKED: USER    DPF = ligand_dock.biased.dpf
DOCKED: USER  
DOCKED: USER    Estimated Free Energy of Binding    =  -10.96 kcal/mol  [=(1)+(2)+(3)-(4)]
DOCKED: USER    Estimated Inhibition Constant, Ki   =    9.30 nM (nanomolar)  [Temperature = 298.15 K]
DOCKED: USER    
DOCKED: USER    (1) Final Intermolecular Energy     =  -12.45 kcal/mol
DOCKED: USER        vdW + Hbond + desolv Energy     =  -12.45 kcal/mol
DOCKED: USER        Electrostatic Energy            =   +0.00 kcal/mol
DOCKED: USER    (2) Final Total Internal Energy     =   -1.14 kcal/mol
DOCKED: USER    (3) Torsional Free Energy           =   +1.49 kcal/mol
DOCKED: USER    (4) Unbound System's Energy  [=(2)] =   -1.14 kcal/mol
DOCKED: USER    
DOCKED: USER    
DOCKED: USER    NEWDPF move ligand.dum.pdbqt
DOCKED: USER    NEWDPF about 0.217000 0.012000 -0.211000
DOCKED: USER    NEWDPF tran0 37.534004 13.433649 119.224933
DOCKED: USER    NEWDPF quaternion0 -0.572218 0.120856 -0.754767 -0.297132
DOCKED: USER    NEWDPF axisangle0 -0.599284 0.126572 -0.790467 -145.429159
DOCKED: USER    NEWDPF quat0 -0.599284 0.126572 -0.790467 -145.429159
DOCKED: USER    NEWDPF dihe0 104.13 -125.61 -79.60 -30.19 36.59 
DOCKED: USER  keepresnum = 1 
DOCKED: USER  
DOCKED: REMARK  Name = 
DOCKED: REMARK  5 active torsions:
DOCKED: REMARK  status: ('A' for Active; 'I' for Inactive)
DOCKED: REMARK    1  A    between atoms: S_2  and  N_3
DOCKED: REMARK    2  A    between atoms: S_2  and  C_10
DOCKED: REMARK    3  A    between atoms: N_3  and  C_4
DOCKED: REMARK    4  A    between atoms: C_12  and  C_13
DOCKED: REMARK    5  A    between atoms: C_14  and  C_15
DOCKED: REMARK                            x       y       z     vdW  Elec       q    Type
DOCKED: REMARK                         _______ _______ _______ _____ _____    ______ ____
DOCKED: USER                              x       y       z     vdW  Elec       q    Type
DOCKED: USER                           _______ _______ _______ _____ _____    ______ ____
DOCKED: ROOT
DOCKED: ATOM      1  C   UNL     1      36.917  15.419 119.887 -0.18 -0.00    +0.000 A 
DOCKED: ATOM      2  C   UNL     1      36.947  14.020 119.975 -0.22 -0.00    +0.000 A 
DOCKED: ATOM      3  C   UNL     1      37.485  13.385 121.114 -0.41 -0.00    +0.000 A 
DOCKED: ATOM      4  C   UNL     1      38.004  14.179 122.150 -0.40 -0.00    +0.000 A 
DOCKED: ATOM      5  C   UNL     1      37.965  15.573 122.066 -0.26 -0.00    +0.000 A 
DOCKED: ATOM      6  C   UNL     1      37.420  16.193 120.941 -0.17 -0.00    +0.000 A 
DOCKED: ATOM      7  CM  UNL     1      37.456  14.794 121.022 +0.00 -0.00    +0.000 AC
DOCKED: ENDROOT
DOCKED: BRANCH   1   8
DOCKED: ATOM      8  O   UNL     1      37.321  17.014 117.760 -0.08 -0.00    +0.000 OA
DOCKED: ATOM      9  S   UNL     1      36.263  16.198 118.448 -0.21 -0.00    +0.000 S 
DOCKED: ATOM     10  O   UNL     1      35.137  17.102 118.861 -0.19 -0.00    +0.000 OA
DOCKED: BRANCH   8  10
DOCKED: ATOM     11  N   UNL     1      35.660  15.003 117.342 -0.24 -0.00    +0.000 N 
DOCKED: ATOM     12  H   UNL     1      34.696  14.808 117.354 -0.02 -0.00    +0.000 HD
DOCKED: BRANCH  10  12
DOCKED: ATOM     13  C   UNL     1      36.486  14.280 116.412 -0.29 -0.00    +0.000 A 
DOCKED: ATOM     14  C   UNL     1      36.080  14.045 115.083 -0.27 -0.00    +0.000 A 
DOCKED: ATOM     15  C   UNL     1      36.915  13.348 114.204 -0.32 -0.00    +0.000 A 
DOCKED: ATOM     16  C   UNL     1      38.154  12.873 114.639 -0.34 -0.00    +0.000 A 
DOCKED: ATOM     17  C   UNL     1      38.561  13.094 115.956 -0.46 -0.00    +0.000 A 
DOCKED: ATOM     18  C   UNL     1      37.732  13.791 116.839 -0.34 -0.00    +0.000 A 
DOCKED: ATOM     19  CM  UNL     1      37.322  13.571 115.522 +0.00 -0.00    +0.000 AC
DOCKED: ENDBRANCH  10  12
DOCKED: ENDBRANCH   8  10
DOCKED: ENDBRANCH   1   8
DOCKED: BRANCH   3  18
DOCKED: ATOM     20  C   UNL     1      37.562  11.909 121.245 -0.36 -0.00    +0.000 C 
DOCKED: ATOM     21  C   UNL     1      36.713  11.181 121.988 -0.62 -0.00    +0.000 C 
DOCKED: BRANCH  19  20
DOCKED: ATOM     22  C   UNL     1      36.795   9.711 122.111 -0.66 -0.00    +0.000 C 
DOCKED: ATOM     23  N   UNL     1      36.948   9.055 123.376 -0.59 -0.00    +0.000 N 
DOCKED: ATOM     24  O   UNL     1      37.124   7.714 123.427 -2.67 -0.00    +0.000 OA
DOCKED: ATOM     25  O   UNL     1      36.701   9.015 121.065 -2.61 -0.00    +0.000 OA
DOCKED: ATOM     26  H   UNL     1      36.927   9.581 124.208 -0.55 -0.00    +0.000 HD
DOCKED: ENDBRANCH  19  20
DOCKED: ENDBRANCH   3  18
DOCKED: TORSDOF 5DOCKED: TER
DOCKED: ENDMDL
________________________________________________________________________________


	BEGINNING GENETIC ALGORITHM DOCKING 92 of 100
Run: 92 Seed: 481034640 811972033 [ Run 92 of 100 GA/GALS ]
Beginning LAMARCKIAN GENETIC ALGORITHM (LGA), with a maximum of 2500000 energy evaluations.

Final-Value: -14.150


	FINAL GENETIC ALGORITHM DOCKED STATE
	_______________________________________________


Detailed state:  trans 38.051 13.358 121.900 quatxyzw 0.127649 0.012980 0.936603 0.326056 center 0.217 0.012 -0.211 ntor 5 -59.6143 148.7033 26.8554 140.2415 37.8444
State:	 38.051  13.358 121.900   0.135  0.014  0.991 141.941    -59.61  148.70   26.86  140.24   37.84

DOCKED: MODEL       92
DOCKED: USER    Run = 92
DOCKED: USER    DPF = ligand_dock.biased.dpf
DOCKED: USER  
DOCKED: USER    Estimated Free Energy of Binding    =  -11.43 kcal/mol  [=(1)+(2)+(3)-(4)]
DOCKED: USER    Estimated Inhibition Constant, Ki   =    4.21 nM (nanomolar)  [Temperature = 298.15 K]
DOCKED: USER    
DOCKED: USER    (1) Final Intermolecular Energy     =  -12.92 kcal/mol
DOCKED: USER        vdW + Hbond + desolv Energy     =  -12.92 kcal/mol
DOCKED: USER        Electrostatic Energy            =   +0.00 kcal/mol
DOCKED: USER    (2) Final Total Internal Energy     =   -1.23 kcal/mol
DOCKED: USER    (3) Torsional Free Energy           =   +1.49 kcal/mol
DOCKED: USER    (4) Unbound System's Energy  [=(2)] =   -1.23 kcal/mol
DOCKED: USER    
DOCKED: USER    
DOCKED: USER    NEWDPF move ligand.dum.pdbqt
DOCKED: USER    NEWDPF about 0.217000 0.012000 -0.211000
DOCKED: USER    NEWDPF tran0 38.050950 13.358122 121.899829
DOCKED: USER    NEWDPF quaternion0 0.127649 0.012980 0.936603 0.326056
DOCKED: USER    NEWDPF axisangle0 0.135028 0.013730 0.990747 141.940845
DOCKED: USER    NEWDPF quat0 0.135028 0.013730 0.990747 141.940845
DOCKED: USER    NEWDPF dihe0 -59.61 148.70 26.86 140.24 37.84 
DOCKED: USER  keepresnum = 1 
DOCKED: USER  
DOCKED: REMARK  Name = 
DOCKED: REMARK  5 active torsions:
DOCKED: REMARK  status: ('A' for Active; 'I' for Inactive)
DOCKED: REMARK    1  A    between atoms: S_2  and  N_3
DOCKED: REMARK    2  A    between atoms: S_2  and  C_10
DOCKED: REMARK    3  A    between atoms: N_3  and  C_4
DOCKED: REMARK    4  A    between atoms: C_12  and  C_13
DOCKED: REMARK    5  A    between atoms: C_14  and  C_15
DOCKED: REMARK                            x       y       z     vdW  Elec       q    Type
DOCKED: REMARK                         _______ _______ _______ _____ _____    ______ ____
DOCKED: USER                              x       y       z     vdW  Elec       q    Type
DOCKED: USER                           _______ _______ _______ _____ _____    ______ ____
DOCKED: ROOT
DOCKED: ATOM      1  C   UNL     1      37.145  15.342 121.838 -0.26 -0.00    +0.000 A 
DOCKED: ATOM      2  C   UNL     1      37.098  13.941 121.835 -0.36 -0.00    +0.000 A 
DOCKED: ATOM      3  C   UNL     1      36.427  13.244 122.861 -0.48 -0.00    +0.000 A 
DOCKED: ATOM      4  C   UNL     1      35.822  13.978 123.894 -0.48 -0.00    +0.000 A 
DOCKED: ATOM      5  C   UNL     1      35.860  15.375 123.892 -0.42 -0.00    +0.000 A 
DOCKED: ATOM      6  C   UNL     1      36.516  16.056 122.866 -0.30 -0.00    +0.000 A 
DOCKED: ATOM      7  CM  UNL     1      36.478  14.656 122.864 +0.00 -0.00    +0.000 AC
DOCKED: ENDROOT
DOCKED: BRANCH   1   8
DOCKED: ATOM      8  O   UNL     1      39.165  16.970 121.129 -0.12 -0.00    +0.000 OA
DOCKED: ATOM      9  S   UNL     1      38.006  16.198 120.562 -0.22 -0.00    +0.000 S 
DOCKED: ATOM     10  O   UNL     1      37.057  17.155 119.899 -0.13 -0.00    +0.000 OA
DOCKED: BRANCH   8  10
DOCKED: ATOM     11  N   UNL     1      38.600  15.072 119.381 -0.20 -0.00    +0.000 N 
DOCKED: ATOM     12  H   UNL     1      39.512  14.720 119.496 -0.08 -0.00    +0.000 HD
DOCKED: BRANCH  10  12
DOCKED: ATOM     13  C   UNL     1      37.839  14.623 118.245 -0.24 -0.00    +0.000 A 
DOCKED: ATOM     14  C   UNL     1      38.410  14.516 116.962 -0.22 -0.00    +0.000 A 
DOCKED: ATOM     15  C   UNL     1      37.642  14.066 115.883 -0.33 -0.00    +0.000 A 
DOCKED: ATOM     16  C   UNL     1      36.301  13.726 116.070 -0.30 -0.00    +0.000 A 
DOCKED: ATOM     17  C   UNL     1      35.723  13.837 117.336 -0.31 -0.00    +0.000 A 
DOCKED: ATOM     18  C   UNL     1      36.486  14.286 118.418 -0.31 -0.00    +0.000 A 
DOCKED: ATOM     19  CM  UNL     1      37.066  14.176 117.152 +0.00 -0.00    +0.000 AC
DOCKED: ENDBRANCH  10  12
DOCKED: ENDBRANCH   8  10
DOCKED: ENDBRANCH   1   8
DOCKED: BRANCH   3  18
DOCKED: ATOM     20  C   UNL     1      36.370  11.762 122.917 -0.68 -0.00    +0.000 C 
DOCKED: ATOM     21  C   UNL     1      37.009  10.959 122.052 -0.55 -0.00    +0.000 C 
DOCKED: BRANCH  19  20
DOCKED: ATOM     22  C   UNL     1      36.949   9.484 122.115 -0.64 -0.00    +0.000 C 
DOCKED: ATOM     23  N   UNL     1      37.024   8.766 123.352 -0.65 -0.00    +0.000 N 
DOCKED: ATOM     24  O   UNL     1      37.070   7.413 123.350 -2.44 -0.00    +0.000 OA
DOCKED: ATOM     25  O   UNL     1      36.802   8.843 121.040 -2.64 -0.00    +0.000 OA
DOCKED: ATOM     26  H   UNL     1      37.041   9.257 124.206 -0.58 -0.00    +0.000 HD
DOCKED: ENDBRANCH  19  20
DOCKED: ENDBRANCH   3  18
DOCKED: TORSDOF 5DOCKED: TER
DOCKED: ENDMDL
________________________________________________________________________________


	BEGINNING GENETIC ALGORITHM DOCKING 93 of 100
Run: 93 Seed: 549171115 735016591 [ Run 93 of 100 GA/GALS ]
Beginning LAMARCKIAN GENETIC ALGORITHM (LGA), with a maximum of 2500000 energy evaluations.

Final-Value: -13.534


	FINAL GENETIC ALGORITHM DOCKED STATE
	_______________________________________________


Detailed state:  trans 38.408 13.733 122.605 quatxyzw -0.115208 -0.098577 0.916184 0.370967 center 0.217 0.012 -0.211 ntor 5 156.0078 144.2674 156.8763 176.0943 -51.1527
State:	 38.408  13.733 122.605  -0.124 -0.106  0.987 136.450    156.01  144.27  156.88  176.09  -51.15

DOCKED: MODEL       93
DOCKED: USER    Run = 93
DOCKED: USER    DPF = ligand_dock.biased.dpf
DOCKED: USER  
DOCKED: USER    Estimated Free Energy of Binding    =  -11.09 kcal/mol  [=(1)+(2)+(3)-(4)]
DOCKED: USER    Estimated Inhibition Constant, Ki   =    7.44 nM (nanomolar)  [Temperature = 298.15 K]
DOCKED: USER    
DOCKED: USER    (1) Final Intermolecular Energy     =  -12.58 kcal/mol
DOCKED: USER        vdW + Hbond + desolv Energy     =  -12.58 kcal/mol
DOCKED: USER        Electrostatic Energy            =   +0.00 kcal/mol
DOCKED: USER    (2) Final Total Internal Energy     =   -0.95 kcal/mol
DOCKED: USER    (3) Torsional Free Energy           =   +1.49 kcal/mol
DOCKED: USER    (4) Unbound System's Energy  [=(2)] =   -0.95 kcal/mol
DOCKED: USER    
DOCKED: USER    
DOCKED: USER    NEWDPF move ligand.dum.pdbqt
DOCKED: USER    NEWDPF about 0.217000 0.012000 -0.211000
DOCKED: USER    NEWDPF tran0 38.407678 13.733332 122.604956
DOCKED: USER    NEWDPF quaternion0 -0.115208 -0.098577 0.916184 0.370967
DOCKED: USER    NEWDPF axisangle0 -0.124060 -0.106151 0.986580 136.449518
DOCKED: USER    NEWDPF quat0 -0.124060 -0.106151 0.986580 136.449518
DOCKED: USER    NEWDPF dihe0 156.01 144.27 156.88 176.09 -51.15 
DOCKED: USER  keepresnum = 1 
DOCKED: USER  
DOCKED: REMARK  Name = 
DOCKED: REMARK  5 active torsions:
DOCKED: REMARK  status: ('A' for Active; 'I' for Inactive)
DOCKED: REMARK    1  A    between atoms: S_2  and  N_3
DOCKED: REMARK    2  A    between atoms: S_2  and  C_10
DOCKED: REMARK    3  A    between atoms: N_3  and  C_4
DOCKED: REMARK    4  A    between atoms: C_12  and  C_13
DOCKED: REMARK    5  A    between atoms: C_14  and  C_15
DOCKED: REMARK                            x       y       z     vdW  Elec       q    Type
DOCKED: REMARK                         _______ _______ _______ _____ _____    ______ ____
DOCKED: USER                              x       y       z     vdW  Elec       q    Type
DOCKED: USER                           _______ _______ _______ _____ _____    ______ ____
DOCKED: ROOT
DOCKED: ATOM      1  C   UNL     1      37.305  15.592 122.906 -0.31 -0.00    +0.000 A 
DOCKED: ATOM      2  C   UNL     1      37.464  14.296 122.395 -0.40 -0.00    +0.000 A 
DOCKED: ATOM      3  C   UNL     1      36.585  13.262 122.779 -0.49 -0.00    +0.000 A 
DOCKED: ATOM      4  C   UNL     1      35.560  13.549 123.694 -0.41 -0.00    +0.000 A 
DOCKED: ATOM      5  C   UNL     1      35.395  14.843 124.196 -0.48 -0.00    +0.000 A 
DOCKED: ATOM      6  C   UNL     1      36.262  15.863 123.801 -0.35 -0.00    +0.000 A 
DOCKED: ATOM      7  CM  UNL     1      36.429  14.567 123.295 +0.00 -0.00    +0.000 AC
DOCKED: ENDROOT
DOCKED: BRANCH   1   8
DOCKED: ATOM      8  O   UNL     1      37.769  18.217 122.553 -0.12 -0.00    +0.000 OA
DOCKED: ATOM      9  S   UNL     1      38.424  16.869 122.435 -0.26 -0.00    +0.000 S 
DOCKED: ATOM     10  O   UNL     1      38.834  16.646 121.008 -0.14 -0.00    +0.000 OA
DOCKED: BRANCH   8  10
DOCKED: ATOM     11  N   UNL     1      39.834  16.833 123.447 -0.26 -0.00    +0.000 N 
DOCKED: ATOM     12  H   UNL     1      39.705  16.902 124.421 -0.02 -0.00    +0.000 HD
DOCKED: BRANCH  10  12
DOCKED: ATOM     13  C   UNL     1      41.178  16.709 122.949 -0.32 -0.00    +0.000 A 
DOCKED: ATOM     14  C   UNL     1      42.216  17.553 123.390 -0.29 -0.00    +0.000 A 
DOCKED: ATOM     15  C   UNL     1      43.513  17.397 122.891 -0.27 -0.00    +0.000 A 
DOCKED: ATOM     16  C   UNL     1      43.787  16.406 121.946 -0.28 -0.00    +0.000 A 
DOCKED: ATOM     17  C   UNL     1      42.762  15.570 121.496 -0.28 -0.00    +0.000 A 
DOCKED: ATOM     18  C   UNL     1      41.465  15.722 121.992 -0.36 -0.00    +0.000 A 
DOCKED: ATOM     19  CM  UNL     1      42.487  16.559 122.443 +0.00 -0.00    +0.000 AC
DOCKED: ENDBRANCH  10  12
DOCKED: ENDBRANCH   8  10
DOCKED: ENDBRANCH   1   8
DOCKED: BRANCH   3  18
DOCKED: ATOM     20  C   UNL     1      36.726  11.869 122.286 -0.62 -0.00    +0.000 C 
DOCKED: ATOM     21  C   UNL     1      36.651  10.787 123.077 -0.69 -0.00    +0.000 C 
DOCKED: BRANCH  19  20
DOCKED: ATOM     22  C   UNL     1      36.789   9.403 122.578 -0.70 -0.00    +0.000 C 
DOCKED: ATOM     23  N   UNL     1      36.832   8.272 123.457 -0.70 -0.00    +0.000 N 
DOCKED: ATOM     24  O   UNL     1      37.065   7.036 122.959 -1.91 -0.00    +0.000 OA
DOCKED: ATOM     25  O   UNL     1      36.846   9.217 121.333 -2.55 -0.00    +0.000 OA
DOCKED: ATOM     26  H   UNL     1      36.692   8.395 124.424 -0.36 -0.00    +0.000 HD
DOCKED: ENDBRANCH  19  20
DOCKED: ENDBRANCH   3  18
DOCKED: TORSDOF 5DOCKED: TER
DOCKED: ENDMDL
________________________________________________________________________________


	BEGINNING GENETIC ALGORITHM DOCKING 94 of 100
Run: 94 Seed: 792848411 1491529325 [ Run 94 of 100 GA/GALS ]
Beginning LAMARCKIAN GENETIC ALGORITHM (LGA), with a maximum of 2500000 energy evaluations.

Final-Value: -14.273


	FINAL GENETIC ALGORITHM DOCKED STATE
	_______________________________________________


Detailed state:  trans 38.220 13.873 122.512 quatxyzw -0.004163 -0.068154 -0.910258 -0.408373 center 0.217 0.012 -0.211 ntor 5 -12.9240 166.4705 -29.1896 141.1374 -70.5187
State:	 38.220  13.873 122.512  -0.005 -0.075 -0.997 -131.795    -12.92  166.47  -29.19  141.14  -70.52

DOCKED: MODEL       94
DOCKED: USER    Run = 94
DOCKED: USER    DPF = ligand_dock.biased.dpf
DOCKED: USER  
DOCKED: USER    Estimated Free Energy of Binding    =  -11.67 kcal/mol  [=(1)+(2)+(3)-(4)]
DOCKED: USER    Estimated Inhibition Constant, Ki   =    2.81 nM (nanomolar)  [Temperature = 298.15 K]
DOCKED: USER    
DOCKED: USER    (1) Final Intermolecular Energy     =  -13.16 kcal/mol
DOCKED: USER        vdW + Hbond + desolv Energy     =  -13.16 kcal/mol
DOCKED: USER        Electrostatic Energy            =   +0.00 kcal/mol
DOCKED: USER    (2) Final Total Internal Energy     =   -1.12 kcal/mol
DOCKED: USER    (3) Torsional Free Energy           =   +1.49 kcal/mol
DOCKED: USER    (4) Unbound System's Energy  [=(2)] =   -1.12 kcal/mol
DOCKED: USER    
DOCKED: USER    
DOCKED: USER    NEWDPF move ligand.dum.pdbqt
DOCKED: USER    NEWDPF about 0.217000 0.012000 -0.211000
DOCKED: USER    NEWDPF tran0 38.219557 13.873498 122.511566
DOCKED: USER    NEWDPF quaternion0 -0.004163 -0.068154 -0.910258 -0.408373
DOCKED: USER    NEWDPF axisangle0 -0.004560 -0.074664 -0.997198 -131.794712
DOCKED: USER    NEWDPF quat0 -0.004560 -0.074664 -0.997198 -131.794712
DOCKED: USER    NEWDPF dihe0 -12.92 166.47 -29.19 141.14 -70.52 
DOCKED: USER  keepresnum = 1 
DOCKED: USER  
DOCKED: REMARK  Name = 
DOCKED: REMARK  5 active torsions:
DOCKED: REMARK  status: ('A' for Active; 'I' for Inactive)
DOCKED: REMARK    1  A    between atoms: S_2  and  N_3
DOCKED: REMARK    2  A    between atoms: S_2  and  C_10
DOCKED: REMARK    3  A    between atoms: N_3  and  C_4
DOCKED: REMARK    4  A    between atoms: C_12  and  C_13
DOCKED: REMARK    5  A    between atoms: C_14  and  C_15
DOCKED: REMARK                            x       y       z     vdW  Elec       q    Type
DOCKED: REMARK                         _______ _______ _______ _____ _____    ______ ____
DOCKED: USER                              x       y       z     vdW  Elec       q    Type
DOCKED: USER                           _______ _______ _______ _____ _____    ______ ____
DOCKED: ROOT
DOCKED: ATOM      1  C   UNL     1      37.007  15.655 122.168 -0.26 -0.00    +0.000 A 
DOCKED: ATOM      2  C   UNL     1      37.224  14.270 122.190 -0.38 -0.00    +0.000 A 
DOCKED: ATOM      3  C   UNL     1      36.455  13.437 123.030 -0.50 -0.00    +0.000 A 
DOCKED: ATOM      4  C   UNL     1      35.480  14.022 123.854 -0.44 -0.00    +0.000 A 
DOCKED: ATOM      5  C   UNL     1      35.257  15.402 123.825 -0.48 -0.00    +0.000 A 
DOCKED: ATOM      6  C   UNL     1      36.015  16.216 122.981 -0.32 -0.00    +0.000 A 
DOCKED: ATOM      7  CM  UNL     1      36.240  14.833 123.008 +0.00 -0.00    +0.000 AC
DOCKED: ENDROOT
DOCKED: BRANCH   1   8
DOCKED: ATOM      8  O   UNL     1      37.131  17.678 120.401 -0.11 -0.00    +0.000 OA
DOCKED: ATOM      9  S   UNL     1      37.991  16.684 121.130 -0.19 -0.00    +0.000 S 
DOCKED: ATOM     10  O   UNL     1      38.700  15.820 120.128 -0.18 -0.00    +0.000 OA
DOCKED: BRANCH   8  10
DOCKED: ATOM     11  N   UNL     1      39.166  17.541 122.079 -0.11 -0.00    +0.000 N 
DOCKED: ATOM     12  H   UNL     1      38.921  18.430 122.425 +0.00 -0.00    +0.000 HD
DOCKED: BRANCH  10  12
DOCKED: ATOM     13  C   UNL     1      40.475  17.031 122.389 -0.20 -0.00    +0.000 A 
DOCKED: ATOM     14  C   UNL     1      41.558  17.885 122.674 -0.19 -0.00    +0.000 A 
DOCKED: ATOM     15  C   UNL     1      42.815  17.353 122.981 -0.31 -0.00    +0.000 A 
DOCKED: ATOM     16  C   UNL     1      43.006  15.970 122.999 -0.28 -0.00    +0.000 A 
DOCKED: ATOM     17  C   UNL     1      41.940  15.115 122.709 -0.50 -0.00    +0.000 A 
DOCKED: ATOM     18  C   UNL     1      40.683  15.642 122.402 -0.37 -0.00    +0.000 A 
DOCKED: ATOM     19  CM  UNL     1      41.746  16.499 122.692 +0.00 -0.00    +0.000 AC
DOCKED: ENDBRANCH  10  12
DOCKED: ENDBRANCH   8  10
DOCKED: ENDBRANCH   1   8
DOCKED: BRANCH   3  18
DOCKED: ATOM     20  C   UNL     1      36.662  11.970 123.109 -0.68 -0.00    +0.000 C 
DOCKED: ATOM     21  C   UNL     1      36.690  11.163 122.037 -0.62 -0.00    +0.000 C 
DOCKED: BRANCH  19  20
DOCKED: ATOM     22  C   UNL     1      36.899   9.703 122.123 -0.63 -0.00    +0.000 C 
DOCKED: ATOM     23  N   UNL     1      36.986   9.013 123.376 -0.60 -0.00    +0.000 N 
DOCKED: ATOM     24  O   UNL     1      37.283   7.693 123.404 -2.59 -0.00    +0.000 OA
DOCKED: ATOM     25  O   UNL     1      36.978   9.043 121.052 -2.69 -0.00    +0.000 OA
DOCKED: ATOM     26  H   UNL     1      36.830   9.501 124.218 -0.51 -0.00    +0.000 HD
DOCKED: ENDBRANCH  19  20
DOCKED: ENDBRANCH   3  18
DOCKED: TORSDOF 5DOCKED: TER
DOCKED: ENDMDL
________________________________________________________________________________


	BEGINNING GENETIC ALGORITHM DOCKING 95 of 100
Run: 95 Seed: 953978344 737947661 [ Run 95 of 100 GA/GALS ]
Beginning LAMARCKIAN GENETIC ALGORITHM (LGA), with a maximum of 2500000 energy evaluations.

Final-Value: -14.730


	FINAL GENETIC ALGORITHM DOCKED STATE
	_______________________________________________


Detailed state:  trans 34.774 13.711 123.563 quatxyzw 0.938234 -0.343993 0.023603 0.028774 center 0.217 0.012 -0.211 ntor 5 -42.2720 -90.9132 169.4011 -178.0731 157.7430
State:	 34.774  13.711 123.563   0.939 -0.344  0.024 176.702    -42.27  -90.91  169.40 -178.07  157.74

DOCKED: MODEL       95
DOCKED: USER    Run = 95
DOCKED: USER    DPF = ligand_dock.biased.dpf
DOCKED: USER  
DOCKED: USER    Estimated Free Energy of Binding    =  -12.27 kcal/mol  [=(1)+(2)+(3)-(4)]
DOCKED: USER    Estimated Inhibition Constant, Ki   =    1.01 nM (nanomolar)  [Temperature = 298.15 K]
DOCKED: USER    
DOCKED: USER    (1) Final Intermolecular Energy     =  -13.77 kcal/mol
DOCKED: USER        vdW + Hbond + desolv Energy     =  -13.77 kcal/mol
DOCKED: USER        Electrostatic Energy            =   +0.00 kcal/mol
DOCKED: USER    (2) Final Total Internal Energy     =   -0.96 kcal/mol
DOCKED: USER    (3) Torsional Free Energy           =   +1.49 kcal/mol
DOCKED: USER    (4) Unbound System's Energy  [=(2)] =   -0.96 kcal/mol
DOCKED: USER    
DOCKED: USER    
DOCKED: USER    NEWDPF move ligand.dum.pdbqt
DOCKED: USER    NEWDPF about 0.217000 0.012000 -0.211000
DOCKED: USER    NEWDPF tran0 34.774486 13.711246 123.562961
DOCKED: USER    NEWDPF quaternion0 0.938234 -0.343993 0.023603 0.028774
DOCKED: USER    NEWDPF axisangle0 0.938623 -0.344135 0.023613 176.702298
DOCKED: USER    NEWDPF quat0 0.938623 -0.344135 0.023613 176.702298
DOCKED: USER    NEWDPF dihe0 -42.27 -90.91 169.40 -178.07 157.74 
DOCKED: USER  keepresnum = 1 
DOCKED: USER  
DOCKED: REMARK  Name = 
DOCKED: REMARK  5 active torsions:
DOCKED: REMARK  status: ('A' for Active; 'I' for Inactive)
DOCKED: REMARK    1  A    between atoms: S_2  and  N_3
DOCKED: REMARK    2  A    between atoms: S_2  and  C_10
DOCKED: REMARK    3  A    between atoms: N_3  and  C_4
DOCKED: REMARK    4  A    between atoms: C_12  and  C_13
DOCKED: REMARK    5  A    between atoms: C_14  and  C_15
DOCKED: REMARK                            x       y       z     vdW  Elec       q    Type
DOCKED: REMARK                         _______ _______ _______ _____ _____    ______ ____
DOCKED: USER                              x       y       z     vdW  Elec       q    Type
DOCKED: USER                           _______ _______ _______ _____ _____    ______ ____
DOCKED: ROOT
DOCKED: ATOM      1  C   UNL     1      35.723  15.667 123.753 -0.42 -0.00    +0.000 A 
DOCKED: ATOM      2  C   UNL     1      35.696  14.269 123.864 -0.49 -0.00    +0.000 A 
DOCKED: ATOM      3  C   UNL     1      36.599  13.474 123.127 -0.51 -0.00    +0.000 A 
DOCKED: ATOM      4  C   UNL     1      37.513  14.106 122.269 -0.41 -0.00    +0.000 A 
DOCKED: ATOM      5  C   UNL     1      37.547  15.500 122.166 -0.27 -0.00    +0.000 A 
DOCKED: ATOM      6  C   UNL     1      36.658  16.279 122.909 -0.28 -0.00    +0.000 A 
DOCKED: ATOM      7  CM  UNL     1      36.623  14.882 123.015 +0.00 -0.00    +0.000 AC
DOCKED: ENDROOT
DOCKED: BRANCH   1   8
DOCKED: ATOM      8  O   UNL     1      33.721  15.778 125.545 -0.79 -0.00    +0.000 OA
DOCKED: ATOM      9  S   UNL     1      34.575  16.646 124.663 -0.61 -0.00    +0.000 S 
DOCKED: ATOM     10  O   UNL     1      33.693  17.378 123.693 -0.44 -0.00    +0.000 OA
DOCKED: BRANCH   8  10
DOCKED: ATOM     11  N   UNL     1      35.421  17.797 125.650 -0.25 -0.00    +0.000 N 
DOCKED: ATOM     12  H   UNL     1      36.147  17.466 126.226 -0.00 -0.00    +0.000 HD
DOCKED: BRANCH  10  12
DOCKED: ATOM     13  C   UNL     1      35.124  19.205 125.676 -0.20 -0.00    +0.000 A 
DOCKED: ATOM     14  C   UNL     1      35.930  20.148 125.008 -0.15 -0.00    +0.000 A 
DOCKED: ATOM     15  C   UNL     1      35.604  21.507 125.047 -0.14 -0.00    +0.000 A 
DOCKED: ATOM     16  C   UNL     1      34.481  21.940 125.754 -0.15 -0.00    +0.000 A 
DOCKED: ATOM     17  C   UNL     1      33.682  21.014 126.427 -0.16 -0.00    +0.000 A 
DOCKED: ATOM     18  C   UNL     1      34.002  19.655 126.391 -0.19 -0.00    +0.000 A 
DOCKED: ATOM     19  CM  UNL     1      34.803  20.578 125.718 +0.00 -0.00    +0.000 AC
DOCKED: ENDBRANCH  10  12
DOCKED: ENDBRANCH   8  10
DOCKED: ENDBRANCH   1   8
DOCKED: BRANCH   3  18
DOCKED: ATOM     20  C   UNL     1      36.594  11.992 123.190 -0.68 -0.00    +0.000 C 
DOCKED: ATOM     21  C   UNL     1      36.903  11.201 122.150 -0.59 -0.00    +0.000 C 
DOCKED: BRANCH  19  20
DOCKED: ATOM     22  C   UNL     1      36.898   9.725 122.221 -0.63 -0.00    +0.000 C 
DOCKED: ATOM     23  N   UNL     1      37.069   9.016 123.455 -0.59 -0.00    +0.000 N 
DOCKED: ATOM     24  O   UNL     1      37.162   7.666 123.453 -2.64 -0.00    +0.000 OA
DOCKED: ATOM     25  O   UNL     1      36.712   9.074 121.159 -2.62 -0.00    +0.000 OA
DOCKED: ATOM     26  H   UNL     1      37.119   9.512 124.304 -0.56 -0.00    +0.000 HD
DOCKED: ENDBRANCH  19  20
DOCKED: ENDBRANCH   3  18
DOCKED: TORSDOF 5DOCKED: TER
DOCKED: ENDMDL
________________________________________________________________________________


	BEGINNING GENETIC ALGORITHM DOCKING 96 of 100
Run: 96 Seed: 1636048296 1074042514 [ Run 96 of 100 GA/GALS ]
Beginning LAMARCKIAN GENETIC ALGORITHM (LGA), with a maximum of 2500000 energy evaluations.

Final-Value: -14.640


	FINAL GENETIC ALGORITHM DOCKED STATE
	_______________________________________________


Detailed state:  trans 34.823 13.691 123.710 quatxyzw -0.942670 0.330486 0.046244 0.003698 center 0.217 0.012 -0.211 ntor 5 -28.4780 -105.8826 172.5617 105.2968 155.4562
State:	 34.823  13.691 123.710  -0.943  0.330  0.046 179.576    -28.48 -105.88  172.56  105.30  155.46

DOCKED: MODEL       96
DOCKED: USER    Run = 96
DOCKED: USER    DPF = ligand_dock.biased.dpf
DOCKED: USER  
DOCKED: USER    Estimated Free Energy of Binding    =  -11.98 kcal/mol  [=(1)+(2)+(3)-(4)]
DOCKED: USER    Estimated Inhibition Constant, Ki   =    1.65 nM (nanomolar)  [Temperature = 298.15 K]
DOCKED: USER    
DOCKED: USER    (1) Final Intermolecular Energy     =  -13.47 kcal/mol
DOCKED: USER        vdW + Hbond + desolv Energy     =  -13.47 kcal/mol
DOCKED: USER        Electrostatic Energy            =   +0.00 kcal/mol
DOCKED: USER    (2) Final Total Internal Energy     =   -1.17 kcal/mol
DOCKED: USER    (3) Torsional Free Energy           =   +1.49 kcal/mol
DOCKED: USER    (4) Unbound System's Energy  [=(2)] =   -1.17 kcal/mol
DOCKED: USER    
DOCKED: USER    
DOCKED: USER    NEWDPF move ligand.dum.pdbqt
DOCKED: USER    NEWDPF about 0.217000 0.012000 -0.211000
DOCKED: USER    NEWDPF tran0 34.822664 13.690707 123.710327
DOCKED: USER    NEWDPF quaternion0 -0.942670 0.330486 0.046244 0.003698
DOCKED: USER    NEWDPF axisangle0 -0.942676 0.330488 0.046245 179.576295
DOCKED: USER    NEWDPF quat0 -0.942676 0.330488 0.046245 179.576295
DOCKED: USER    NEWDPF dihe0 -28.48 -105.88 172.56 105.30 155.46 
DOCKED: USER  keepresnum = 1 
DOCKED: USER  
DOCKED: REMARK  Name = 
DOCKED: REMARK  5 active torsions:
DOCKED: REMARK  status: ('A' for Active; 'I' for Inactive)
DOCKED: REMARK    1  A    between atoms: S_2  and  N_3
DOCKED: REMARK    2  A    between atoms: S_2  and  C_10
DOCKED: REMARK    3  A    between atoms: N_3  and  C_4
DOCKED: REMARK    4  A    between atoms: C_12  and  C_13
DOCKED: REMARK    5  A    between atoms: C_14  and  C_15
DOCKED: REMARK                            x       y       z     vdW  Elec       q    Type
DOCKED: REMARK                         _______ _______ _______ _____ _____    ______ ____
DOCKED: USER                              x       y       z     vdW  Elec       q    Type
DOCKED: USER                           _______ _______ _______ _____ _____    ______ ____
DOCKED: ROOT
DOCKED: ATOM      1  C   UNL     1      35.727  15.676 123.731 -0.42 -0.00    +0.000 A 
DOCKED: ATOM      2  C   UNL     1      35.761  14.281 123.861 -0.49 -0.00    +0.000 A 
DOCKED: ATOM      3  C   UNL     1      36.566  13.501 123.004 -0.49 -0.00    +0.000 A 
DOCKED: ATOM      4  C   UNL     1      37.318  14.146 122.009 -0.37 -0.00    +0.000 A 
DOCKED: ATOM      5  C   UNL     1      37.292  15.538 121.887 -0.25 -0.00    +0.000 A 
DOCKED: ATOM      6  C   UNL     1      36.502  16.302 122.747 -0.27 -0.00    +0.000 A 
DOCKED: ATOM      7  CM  UNL     1      36.528  14.907 122.874 +0.00 -0.00    +0.000 AC
DOCKED: ENDROOT
DOCKED: BRANCH   1   8
DOCKED: ATOM      8  O   UNL     1      33.975  15.751 125.770 -0.81 -0.00    +0.000 OA
DOCKED: ATOM      9  S   UNL     1      34.700  16.635 124.794 -0.59 -0.00    +0.000 S 
DOCKED: ATOM     10  O   UNL     1      33.693  17.370 123.957 -0.45 -0.00    +0.000 OA
DOCKED: BRANCH   8  10
DOCKED: ATOM     11  N   UNL     1      35.658  17.784 125.676 -0.21 -0.00    +0.000 N 
DOCKED: ATOM     12  H   UNL     1      35.571  17.803 126.656 -0.01 -0.00    +0.000 HD
DOCKED: BRANCH  10  12
DOCKED: ATOM     13  C   UNL     1      36.571  18.710 125.059 -0.17 -0.00    +0.000 A 
DOCKED: ATOM     14  C   UNL     1      37.954  18.681 125.326 -0.15 -0.00    +0.000 A 
DOCKED: ATOM     15  C   UNL     1      38.812  19.591 124.700 -0.10 -0.00    +0.000 A 
DOCKED: ATOM     16  C   UNL     1      38.303  20.538 123.810 -0.05 -0.00    +0.000 A 
DOCKED: ATOM     17  C   UNL     1      36.933  20.581 123.546 -0.12 -0.00    +0.000 A 
DOCKED: ATOM     18  C   UNL     1      36.071  19.674 124.168 -0.17 -0.00    +0.000 A 
DOCKED: ATOM     19  CM  UNL     1      37.440  19.630 124.435 +0.00 -0.00    +0.000 AC
DOCKED: ENDBRANCH  10  12
DOCKED: ENDBRANCH   8  10
DOCKED: ENDBRANCH   1   8
DOCKED: BRANCH   3  18
DOCKED: ATOM     20  C   UNL     1      36.618  12.020 123.083 -0.67 -0.00    +0.000 C 
DOCKED: ATOM     21  C   UNL     1      36.851  11.225 122.028 -0.59 -0.00    +0.000 C 
DOCKED: BRANCH  19  20
DOCKED: ATOM     22  C   UNL     1      36.904   9.751 122.116 -0.63 -0.00    +0.000 C 
DOCKED: ATOM     23  N   UNL     1      36.929   9.058 123.369 -0.59 -0.00    +0.000 N 
DOCKED: ATOM     24  O   UNL     1      37.083   7.714 123.398 -2.66 -0.00    +0.000 OA
DOCKED: ATOM     25  O   UNL     1      36.900   9.085 121.046 -2.67 -0.00    +0.000 OA
DOCKED: ATOM     26  H   UNL     1      36.835   9.560 124.211 -0.52 -0.00    +0.000 HD
DOCKED: ENDBRANCH  19  20
DOCKED: ENDBRANCH   3  18
DOCKED: TORSDOF 5DOCKED: TER
DOCKED: ENDMDL
________________________________________________________________________________


	BEGINNING GENETIC ALGORITHM DOCKING 97 of 100
Run: 97 Seed: 466547432 2118754178 [ Run 97 of 100 GA/GALS ]
Beginning LAMARCKIAN GENETIC ALGORITHM (LGA), with a maximum of 2500000 energy evaluations.

Final-Value: -14.393


	FINAL GENETIC ALGORITHM DOCKED STATE
	_______________________________________________


Detailed state:  trans 38.035 13.869 122.371 quatxyzw -0.083606 -0.035835 -0.907410 -0.410284 center 0.217 0.012 -0.211 ntor 5 -19.8091 -180.0000 -18.7249 121.8148 -70.0497
State:	 38.035  13.869 122.371  -0.092 -0.039 -0.995 -131.555    -19.81 -180.00  -18.72  121.81  -70.05

DOCKED: MODEL       97
DOCKED: USER    Run = 97
DOCKED: USER    DPF = ligand_dock.biased.dpf
DOCKED: USER  
DOCKED: USER    Estimated Free Energy of Binding    =  -11.70 kcal/mol  [=(1)+(2)+(3)-(4)]
DOCKED: USER    Estimated Inhibition Constant, Ki   =    2.67 nM (nanomolar)  [Temperature = 298.15 K]
DOCKED: USER    
DOCKED: USER    (1) Final Intermolecular Energy     =  -13.19 kcal/mol
DOCKED: USER        vdW + Hbond + desolv Energy     =  -13.19 kcal/mol
DOCKED: USER        Electrostatic Energy            =   +0.00 kcal/mol
DOCKED: USER    (2) Final Total Internal Energy     =   -1.21 kcal/mol
DOCKED: USER    (3) Torsional Free Energy           =   +1.49 kcal/mol
DOCKED: USER    (4) Unbound System's Energy  [=(2)] =   -1.21 kcal/mol
DOCKED: USER    
DOCKED: USER    
DOCKED: USER    NEWDPF move ligand.dum.pdbqt
DOCKED: USER    NEWDPF about 0.217000 0.012000 -0.211000
DOCKED: USER    NEWDPF tran0 38.034746 13.868533 122.370863
DOCKED: USER    NEWDPF quaternion0 -0.083606 -0.035835 -0.907410 -0.410284
DOCKED: USER    NEWDPF axisangle0 -0.091677 -0.039294 -0.995013 -131.554685
DOCKED: USER    NEWDPF quat0 -0.091677 -0.039294 -0.995013 -131.554685
DOCKED: USER    NEWDPF dihe0 -19.81 -180.00 -18.72 121.81 -70.05 
DOCKED: USER  keepresnum = 1 
DOCKED: USER  
DOCKED: REMARK  Name = 
DOCKED: REMARK  5 active torsions:
DOCKED: REMARK  status: ('A' for Active; 'I' for Inactive)
DOCKED: REMARK    1  A    between atoms: S_2  and  N_3
DOCKED: REMARK    2  A    between atoms: S_2  and  C_10
DOCKED: REMARK    3  A    between atoms: N_3  and  C_4
DOCKED: REMARK    4  A    between atoms: C_12  and  C_13
DOCKED: REMARK    5  A    between atoms: C_14  and  C_15
DOCKED: REMARK                            x       y       z     vdW  Elec       q    Type
DOCKED: REMARK                         _______ _______ _______ _____ _____    ______ ____
DOCKED: USER                              x       y       z     vdW  Elec       q    Type
DOCKED: USER                           _______ _______ _______ _____ _____    ______ ____
DOCKED: ROOT
DOCKED: ATOM      1  C   UNL     1      36.790  15.655 122.227 -0.27 -0.00    +0.000 A 
DOCKED: ATOM      2  C   UNL     1      37.001  14.269 122.221 -0.36 -0.00    +0.000 A 
DOCKED: ATOM      3  C   UNL     1      36.382  13.446 123.186 -0.51 -0.00    +0.000 A 
DOCKED: ATOM      4  C   UNL     1      35.565  14.041 124.160 -0.39 -0.00    +0.000 A 
DOCKED: ATOM      5  C   UNL     1      35.347  15.422 124.160 -0.47 -0.00    +0.000 A 
DOCKED: ATOM      6  C   UNL     1      35.954  16.226 123.194 -0.33 -0.00    +0.000 A 
DOCKED: ATOM      7  CM  UNL     1      36.173  14.843 123.191 +0.00 -0.00    +0.000 AC
DOCKED: ENDROOT
DOCKED: BRANCH   1   8
DOCKED: ATOM      8  O   UNL     1      36.622  17.674 120.459 -0.14 -0.00    +0.000 OA
DOCKED: ATOM      9  S   UNL     1      37.587  16.672 121.030 -0.20 -0.00    +0.000 S 
DOCKED: ATOM     10  O   UNL     1      38.100  15.799 119.921 -0.18 -0.00    +0.000 OA
DOCKED: BRANCH   8  10
DOCKED: ATOM     11  N   UNL     1      38.919  17.518 121.755 -0.10 -0.00    +0.000 N 
DOCKED: ATOM     12  H   UNL     1      38.839  18.492 121.871 +0.00 -0.00    +0.000 HD
DOCKED: BRANCH  10  12
DOCKED: ATOM     13  C   UNL     1      40.131  16.881 122.195 -0.19 -0.00    +0.000 A 
DOCKED: ATOM     14  C   UNL     1      41.277  17.621 122.545 -0.19 -0.00    +0.000 A 
DOCKED: ATOM     15  C   UNL     1      42.435  16.968 122.978 -0.35 -0.00    +0.000 A 
DOCKED: ATOM     16  C   UNL     1      42.466  15.574 123.060 -0.31 +0.00    +0.000 A 
DOCKED: ATOM     17  C   UNL     1      41.338  14.830 122.706 -0.52 -0.00    +0.000 A 
DOCKED: ATOM     18  C   UNL     1      40.178  15.479 122.274 -0.35 -0.00    +0.000 A 
DOCKED: ATOM     19  CM  UNL     1      41.304  16.225 122.626 +0.00 -0.00    +0.000 AC
DOCKED: ENDBRANCH  10  12
DOCKED: ENDBRANCH   8  10
DOCKED: ENDBRANCH   1   8
DOCKED: BRANCH   3  18
DOCKED: ATOM     20  C   UNL     1      36.593  11.978 123.238 -0.68 -0.00    +0.000 C 
DOCKED: ATOM     21  C   UNL     1      36.633  11.192 122.151 -0.63 -0.00    +0.000 C 
DOCKED: BRANCH  19  20
DOCKED: ATOM     22  C   UNL     1      36.846   9.731 122.211 -0.65 -0.00    +0.000 C 
DOCKED: ATOM     23  N   UNL     1      37.067   9.038 123.446 -0.58 -0.00    +0.000 N 
DOCKED: ATOM     24  O   UNL     1      37.360   7.717 123.439 -2.61 -0.00    +0.000 OA
DOCKED: ATOM     25  O   UNL     1      36.805   9.074 121.137 -2.65 -0.00    +0.000 OA
DOCKED: ATOM     26  H   UNL     1      37.005   9.524 124.300 -0.52 -0.00    +0.000 HD
DOCKED: ENDBRANCH  19  20
DOCKED: ENDBRANCH   3  18
DOCKED: TORSDOF 5DOCKED: TER
DOCKED: ENDMDL
________________________________________________________________________________


	BEGINNING GENETIC ALGORITHM DOCKING 98 of 100
Run: 98 Seed: 1497444191 1413893962 [ Run 98 of 100 GA/GALS ]
Beginning LAMARCKIAN GENETIC ALGORITHM (LGA), with a maximum of 2500000 energy evaluations.

Final-Value: -14.880


	FINAL GENETIC ALGORITHM DOCKED STATE
	_______________________________________________


Detailed state:  trans 35.149 13.613 123.419 quatxyzw -0.933788 0.326968 -0.108277 -0.096994 center 0.217 0.012 -0.211 ntor 5 -6.6058 -124.9432 124.9272 -143.9699 175.1714
State:	 35.149  13.613 123.419  -0.938  0.329 -0.109 -168.868     -6.61 -124.94  124.93 -143.97  175.17

DOCKED: MODEL       98
DOCKED: USER    Run = 98
DOCKED: USER    DPF = ligand_dock.biased.dpf
DOCKED: USER  
DOCKED: USER    Estimated Free Energy of Binding    =  -12.46 kcal/mol  [=(1)+(2)+(3)-(4)]
DOCKED: USER    Estimated Inhibition Constant, Ki   =  738.25 pM (picomolar)  [Temperature = 298.15 K]
DOCKED: USER    
DOCKED: USER    (1) Final Intermolecular Energy     =  -13.95 kcal/mol
DOCKED: USER        vdW + Hbond + desolv Energy     =  -13.95 kcal/mol
DOCKED: USER        Electrostatic Energy            =   +0.00 kcal/mol
DOCKED: USER    (2) Final Total Internal Energy     =   -0.93 kcal/mol
DOCKED: USER    (3) Torsional Free Energy           =   +1.49 kcal/mol
DOCKED: USER    (4) Unbound System's Energy  [=(2)] =   -0.93 kcal/mol
DOCKED: USER    
DOCKED: USER    
DOCKED: USER    NEWDPF move ligand.dum.pdbqt
DOCKED: USER    NEWDPF about 0.217000 0.012000 -0.211000
DOCKED: USER    NEWDPF tran0 35.148560 13.612813 123.418557
DOCKED: USER    NEWDPF quaternion0 -0.933788 0.326968 -0.108277 -0.096994
DOCKED: USER    NEWDPF axisangle0 -0.938212 0.328517 -0.108790 -168.867788
DOCKED: USER    NEWDPF quat0 -0.938212 0.328517 -0.108790 -168.867788
DOCKED: USER    NEWDPF dihe0 -6.61 -124.94 124.93 -143.97 175.17 
DOCKED: USER  keepresnum = 1 
DOCKED: USER  
DOCKED: REMARK  Name = 
DOCKED: REMARK  5 active torsions:
DOCKED: REMARK  status: ('A' for Active; 'I' for Inactive)
DOCKED: REMARK    1  A    between atoms: S_2  and  N_3
DOCKED: REMARK    2  A    between atoms: S_2  and  C_10
DOCKED: REMARK    3  A    between atoms: N_3  and  C_4
DOCKED: REMARK    4  A    between atoms: C_12  and  C_13
DOCKED: REMARK    5  A    between atoms: C_14  and  C_15
DOCKED: REMARK                            x       y       z     vdW  Elec       q    Type
DOCKED: REMARK                         _______ _______ _______ _____ _____    ______ ____
DOCKED: USER                              x       y       z     vdW  Elec       q    Type
DOCKED: USER                           _______ _______ _______ _____ _____    ______ ____
DOCKED: ROOT
DOCKED: ATOM      1  C   UNL     1      35.971  15.568 123.929 -0.39 -0.00    +0.000 A 
DOCKED: ATOM      2  C   UNL     1      35.970  14.166 123.940 -0.47 -0.00    +0.000 A 
DOCKED: ATOM      3  C   UNL     1      37.030  13.444 123.354 -0.50 -0.00    +0.000 A 
DOCKED: ATOM      4  C   UNL     1      38.079  14.154 122.747 -0.43 -0.00    +0.000 A 
DOCKED: ATOM      5  C   UNL     1      38.085  15.552 122.746 -0.30 -0.00    +0.000 A 
DOCKED: ATOM      6  C   UNL     1      37.037  16.258 123.339 -0.28 -0.00    +0.000 A 
DOCKED: ATOM      7  CM  UNL     1      37.029  14.857 123.343 +0.00 -0.00    +0.000 AC
DOCKED: ENDROOT
DOCKED: BRANCH   1   8
DOCKED: ATOM      8  O   UNL     1      33.878  15.590 125.617 -0.82 -0.00    +0.000 OA
DOCKED: ATOM      9  S   UNL     1      34.628  16.456 124.645 -0.63 -0.00    +0.000 S 
DOCKED: ATOM     10  O   UNL     1      33.695  16.884 123.548 -0.40 -0.00    +0.000 OA
DOCKED: BRANCH   8  10
DOCKED: ATOM     11  N   UNL     1      35.216  17.863 125.476 -0.28 -0.00    +0.000 N 
DOCKED: ATOM     12  H   UNL     1      36.176  17.905 125.690 -0.01 -0.00    +0.000 HD
DOCKED: BRANCH  10  12
DOCKED: ATOM     13  C   UNL     1      34.385  18.969 125.871 -0.24 -0.00    +0.000 A 
DOCKED: ATOM     14  C   UNL     1      34.795  20.306 125.702 -0.16 -0.00    +0.000 A 
DOCKED: ATOM     15  C   UNL     1      33.956  21.356 126.089 -0.16 -0.00    +0.000 A 
DOCKED: ATOM     16  C   UNL     1      32.707  21.085 126.652 -0.16 -0.00    +0.000 A 
DOCKED: ATOM     17  C   UNL     1      32.295  19.763 126.832 -0.24 -0.00    +0.000 A 
DOCKED: ATOM     18  C   UNL     1      33.130  18.710 126.446 -0.27 -0.00    +0.000 A 
DOCKED: ATOM     19  CM  UNL     1      33.544  20.031 126.266 +0.00 -0.00    +0.000 AC
DOCKED: ENDBRANCH  10  12
DOCKED: ENDBRANCH   8  10
DOCKED: ENDBRANCH   1   8
DOCKED: BRANCH   3  18
DOCKED: ATOM     20  C   UNL     1      37.064  11.961 123.317 -0.67 -0.00    +0.000 C 
DOCKED: ATOM     21  C   UNL     1      36.766  11.236 122.227 -0.62 -0.00    +0.000 C 
DOCKED: BRANCH  19  20
DOCKED: ATOM     22  C   UNL     1      36.803   9.760 122.197 -0.66 -0.00    +0.000 C 
DOCKED: ATOM     23  N   UNL     1      36.931   8.971 123.387 -0.60 -0.00    +0.000 N 
DOCKED: ATOM     24  O   UNL     1      37.066   7.628 123.298 -2.56 -0.00    +0.000 OA
DOCKED: ATOM     25  O   UNL     1      36.693   9.179 121.084 -2.61 +0.00    +0.000 OA
DOCKED: ATOM     26  H   UNL     1      36.921   9.408 124.270 -0.50 -0.00    +0.000 HD
DOCKED: ENDBRANCH  19  20
DOCKED: ENDBRANCH   3  18
DOCKED: TORSDOF 5DOCKED: TER
DOCKED: ENDMDL
________________________________________________________________________________


	BEGINNING GENETIC ALGORITHM DOCKING 99 of 100
Run: 99 Seed: 2139278093 1625044117 [ Run 99 of 100 GA/GALS ]
Beginning LAMARCKIAN GENETIC ALGORITHM (LGA), with a maximum of 2500000 energy evaluations.

Final-Value: -14.164


	FINAL GENETIC ALGORITHM DOCKED STATE
	_______________________________________________


Detailed state:  trans 35.272 13.428 123.204 quatxyzw -0.966408 0.240247 0.081842 0.040481 center 0.217 0.012 -0.211 ntor 5 49.5823 -119.8996 104.4669 -164.0656 140.3181
State:	 35.272  13.428 123.204  -0.967  0.240  0.082 175.360     49.58 -119.90  104.47 -164.07  140.32

DOCKED: MODEL       99
DOCKED: USER    Run = 99
DOCKED: USER    DPF = ligand_dock.biased.dpf
DOCKED: USER  
DOCKED: USER    Estimated Free Energy of Binding    =  -11.73 kcal/mol  [=(1)+(2)+(3)-(4)]
DOCKED: USER    Estimated Inhibition Constant, Ki   =    2.51 nM (nanomolar)  [Temperature = 298.15 K]
DOCKED: USER    
DOCKED: USER    (1) Final Intermolecular Energy     =  -13.22 kcal/mol
DOCKED: USER        vdW + Hbond + desolv Energy     =  -13.22 kcal/mol
DOCKED: USER        Electrostatic Energy            =   +0.00 kcal/mol
DOCKED: USER    (2) Final Total Internal Energy     =   -0.94 kcal/mol
DOCKED: USER    (3) Torsional Free Energy           =   +1.49 kcal/mol
DOCKED: USER    (4) Unbound System's Energy  [=(2)] =   -0.94 kcal/mol
DOCKED: USER    
DOCKED: USER    
DOCKED: USER    NEWDPF move ligand.dum.pdbqt
DOCKED: USER    NEWDPF about 0.217000 0.012000 -0.211000
DOCKED: USER    NEWDPF tran0 35.272197 13.427909 123.204135
DOCKED: USER    NEWDPF quaternion0 -0.966408 0.240247 0.081842 0.040481
DOCKED: USER    NEWDPF axisangle0 -0.967201 0.240444 0.081909 175.359979
DOCKED: USER    NEWDPF quat0 -0.967201 0.240444 0.081909 175.359979
DOCKED: USER    NEWDPF dihe0 49.58 -119.90 104.47 -164.07 140.32 
DOCKED: USER  keepresnum = 1 
DOCKED: USER  
DOCKED: REMARK  Name = 
DOCKED: REMARK  5 active torsions:
DOCKED: REMARK  status: ('A' for Active; 'I' for Inactive)
DOCKED: REMARK    1  A    between atoms: S_2  and  N_3
DOCKED: REMARK    2  A    between atoms: S_2  and  C_10
DOCKED: REMARK    3  A    between atoms: N_3  and  C_4
DOCKED: REMARK    4  A    between atoms: C_12  and  C_13
DOCKED: REMARK    5  A    between atoms: C_14  and  C_15
DOCKED: REMARK                            x       y       z     vdW  Elec       q    Type
DOCKED: REMARK                         _______ _______ _______ _____ _____    ______ ____
DOCKED: USER                              x       y       z     vdW  Elec       q    Type
DOCKED: USER                           _______ _______ _______ _____ _____    ______ ____
DOCKED: ROOT
DOCKED: ATOM      1  C   UNL     1      35.782  15.546 123.084 -0.36 -0.00    +0.000 A 
DOCKED: ATOM      2  C   UNL     1      36.091  14.189 123.250 -0.44 -0.00    +0.000 A 
DOCKED: ATOM      3  C   UNL     1      36.952  13.534 122.344 -0.44 -0.00    +0.000 A 
DOCKED: ATOM      4  C   UNL     1      37.481  14.262 121.266 -0.33 -0.00    +0.000 A 
DOCKED: ATOM      5  C   UNL     1      37.181  15.618 121.107 -0.21 -0.00    +0.000 A 
DOCKED: ATOM      6  C   UNL     1      36.337  16.260 122.015 -0.22 -0.00    +0.000 A 
DOCKED: ATOM      7  CM  UNL     1      36.638  14.901 122.178 +0.00 -0.00    +0.000 AC
DOCKED: ENDROOT
DOCKED: BRANCH   1   8
DOCKED: ATOM      8  O   UNL     1      33.948  15.331 125.039 -0.66 -0.00    +0.000 OA
DOCKED: ATOM      9  S   UNL     1      34.687  16.344 124.210 -0.64 -0.00    +0.000 S 
DOCKED: ATOM     10  O   UNL     1      33.695  17.153 123.425 -0.41 -0.00    +0.000 OA
DOCKED: BRANCH   8  10
DOCKED: ATOM     11  N   UNL     1      35.577  17.398 125.265 -0.26 -0.00    +0.000 N 
DOCKED: ATOM     12  H   UNL     1      36.470  17.108 125.562 +0.00 -0.00    +0.000 HD
DOCKED: BRANCH  10  12
DOCKED: ATOM     13  C   UNL     1      35.089  18.669 125.731 -0.23 -0.00    +0.000 A 
DOCKED: ATOM     14  C   UNL     1      35.877  19.835 125.676 -0.14 -0.00    +0.000 A 
DOCKED: ATOM     15  C   UNL     1      35.365  21.055 126.129 -0.11 -0.00    +0.000 A 
DOCKED: ATOM     16  C   UNL     1      34.069  21.124 126.645 -0.13 -0.00    +0.000 A 
DOCKED: ATOM     17  C   UNL     1      33.283  19.972 126.712 -0.19 -0.00    +0.000 A 
DOCKED: ATOM     18  C   UNL     1      33.790  18.750 126.260 -0.27 -0.00    +0.000 A 
DOCKED: ATOM     19  CM  UNL     1      34.578  19.901 126.193 -0.01 -0.00    +0.000 AC
DOCKED: ENDBRANCH  10  12
DOCKED: ENDBRANCH   8  10
DOCKED: ENDBRANCH   1   8
DOCKED: BRANCH   3  18
DOCKED: ATOM     20  C   UNL     1      37.291  12.094 122.461 -0.53 -0.00    +0.000 C 
DOCKED: ATOM     21  C   UNL     1      36.503  11.105 122.013 -0.62 -0.00    +0.000 C 
DOCKED: BRANCH  19  20
DOCKED: ATOM     22  C   UNL     1      36.848   9.673 122.131 -0.65 -0.00    +0.000 C 
DOCKED: ATOM     23  N   UNL     1      36.912   9.001 123.395 -0.59 -0.00    +0.000 N 
DOCKED: ATOM     24  O   UNL     1      37.335   7.717 123.459 -2.63 -0.00    +0.000 OA
DOCKED: ATOM     25  O   UNL     1      37.067   9.020 121.076 -2.71 -0.00    +0.000 OA
DOCKED: ATOM     26  H   UNL     1      36.649   9.474 124.218 -0.46 -0.00    +0.000 HD
DOCKED: ENDBRANCH  19  20
DOCKED: ENDBRANCH   3  18
DOCKED: TORSDOF 5DOCKED: TER
DOCKED: ENDMDL
________________________________________________________________________________


	BEGINNING GENETIC ALGORITHM DOCKING 100 of 100
Run: 100 Seed: 1443027788 843459943 [ Run 100 of 100 GA/GALS ]
Beginning LAMARCKIAN GENETIC ALGORITHM (LGA), with a maximum of 2500000 energy evaluations.

Final-Value: -14.229


	FINAL GENETIC ALGORITHM DOCKED STATE
	_______________________________________________


Detailed state:  trans 38.399 13.666 122.700 quatxyzw -0.034107 0.070582 0.910287 0.406487 center 0.217 0.012 -0.211 ntor 5 2.5684 -52.3243 -42.7681 117.0661 55.1116
State:	 38.399  13.666 122.700  -0.037  0.077  0.996 132.031      2.57  -52.32  -42.77  117.07   55.11

DOCKED: MODEL      100
DOCKED: USER    Run = 100
DOCKED: USER    DPF = ligand_dock.biased.dpf
DOCKED: USER  
DOCKED: USER    Estimated Free Energy of Binding    =  -11.47 kcal/mol  [=(1)+(2)+(3)-(4)]
DOCKED: USER    Estimated Inhibition Constant, Ki   =    3.92 nM (nanomolar)  [Temperature = 298.15 K]
DOCKED: USER    
DOCKED: USER    (1) Final Intermolecular Energy     =  -12.96 kcal/mol
DOCKED: USER        vdW + Hbond + desolv Energy     =  -12.96 kcal/mol
DOCKED: USER        Electrostatic Energy            =   +0.00 kcal/mol
DOCKED: USER    (2) Final Total Internal Energy     =   -1.27 kcal/mol
DOCKED: USER    (3) Torsional Free Energy           =   +1.49 kcal/mol
DOCKED: USER    (4) Unbound System's Energy  [=(2)] =   -1.27 kcal/mol
DOCKED: USER    
DOCKED: USER    
DOCKED: USER    NEWDPF move ligand.dum.pdbqt
DOCKED: USER    NEWDPF about 0.217000 0.012000 -0.211000
DOCKED: USER    NEWDPF tran0 38.399473 13.665566 122.700048
DOCKED: USER    NEWDPF quaternion0 -0.034107 0.070582 0.910287 0.406487
DOCKED: USER    NEWDPF axisangle0 -0.037330 0.077252 0.996312 132.031297
DOCKED: USER    NEWDPF quat0 -0.037330 0.077252 0.996312 132.031297
DOCKED: USER    NEWDPF dihe0 2.57 -52.32 -42.77 117.07 55.11 
DOCKED: USER  keepresnum = 1 
DOCKED: USER  
DOCKED: REMARK  Name = 
DOCKED: REMARK  5 active torsions:
DOCKED: REMARK  status: ('A' for Active; 'I' for Inactive)
DOCKED: REMARK    1  A    between atoms: S_2  and  N_3
DOCKED: REMARK    2  A    between atoms: S_2  and  C_10
DOCKED: REMARK    3  A    between atoms: N_3  and  C_4
DOCKED: REMARK    4  A    between atoms: C_12  and  C_13
DOCKED: REMARK    5  A    between atoms: C_14  and  C_15
DOCKED: REMARK                            x       y       z     vdW  Elec       q    Type
DOCKED: REMARK                         _______ _______ _______ _____ _____    ______ ____
DOCKED: USER                              x       y       z     vdW  Elec       q    Type
DOCKED: USER                           _______ _______ _______ _____ _____    ______ ____
DOCKED: ROOT
DOCKED: ATOM      1  C   UNL     1      37.210  15.454 122.318 -0.29 -0.00    +0.000 A 
DOCKED: ATOM      2  C   UNL     1      37.428  14.069 122.319 -0.41 -0.00    +0.000 A 
DOCKED: ATOM      3  C   UNL     1      36.603  13.214 123.079 -0.53 -0.00    +0.000 A 
DOCKED: ATOM      4  C   UNL     1      35.570  13.776 123.846 -0.46 -0.00    +0.000 A 
DOCKED: ATOM      5  C   UNL     1      35.346  15.156 123.837 -0.49 -0.00    +0.000 A 
DOCKED: ATOM      6  C   UNL     1      36.160  15.993 123.073 -0.33 -0.00    +0.000 A 
DOCKED: ATOM      7  CM  UNL     1      36.386  14.610 123.078 +0.00 -0.00    +0.000 AC
DOCKED: ENDROOT
DOCKED: BRANCH   1   8
DOCKED: ATOM      8  O   UNL     1      39.300  17.146 122.266 -0.17 -0.00    +0.000 OA
DOCKED: ATOM      9  S   UNL     1      38.263  16.512 121.382 -0.22 -0.00    +0.000 S 
DOCKED: ATOM     10  O   UNL     1      37.427  17.591 120.756 -0.11 -0.00    +0.000 OA
DOCKED: BRANCH   8  10
DOCKED: ATOM     11  N   UNL     1      39.060  15.609 120.132 -0.18 -0.00    +0.000 N 
DOCKED: ATOM     12  H   UNL     1      40.040  15.523 120.177 -0.01 -0.00    +0.000 HD
DOCKED: BRANCH  10  12
DOCKED: ATOM     13  C   UNL     1      38.376  14.979 119.034 -0.18 -0.00    +0.000 A 
DOCKED: ATOM     14  C   UNL     1      37.463  13.925 119.233 -0.33 -0.00    +0.000 A 
DOCKED: ATOM     15  C   UNL     1      36.808  13.343 118.142 -0.36 -0.00    +0.000 A 
DOCKED: ATOM     16  C   UNL     1      37.060  13.800 116.847 -0.34 -0.00    +0.000 A 
DOCKED: ATOM     17  C   UNL     1      37.971  14.838 116.639 -0.22 -0.00    +0.000 A 
DOCKED: ATOM     18  C   UNL     1      38.627  15.423 117.725 -0.16 -0.00    +0.000 A 
DOCKED: ATOM     19  CM  UNL     1      37.718  14.385 117.936 +0.00 -0.00    +0.000 AC
DOCKED: ENDBRANCH  10  12
DOCKED: ENDBRANCH   8  10
DOCKED: ENDBRANCH   1   8
DOCKED: BRANCH   3  18
DOCKED: ATOM     20  C   UNL     1      36.808  11.745 123.133 -0.68 -0.00    +0.000 C 
DOCKED: ATOM     21  C   UNL     1      36.656  10.932 122.076 -0.63 -0.00    +0.000 C 
DOCKED: BRANCH  19  20
DOCKED: ATOM     22  C   UNL     1      36.864   9.471 122.137 -0.66 -0.00    +0.000 C 
DOCKED: ATOM     23  N   UNL     1      36.824   8.741 123.370 -0.63 -0.00    +0.000 N 
DOCKED: ATOM     24  O   UNL     1      37.124   7.422 123.387 -2.44 -0.00    +0.000 OA
DOCKED: ATOM     25  O   UNL     1      37.059   8.847 121.060 -2.70 -0.00    +0.000 OA
DOCKED: ATOM     26  H   UNL     1      36.577   9.201 124.205 -0.44 -0.00    +0.000 HD
DOCKED: ENDBRANCH  19  20
DOCKED: ENDBRANCH   3  18
DOCKED: TORSDOF 5DOCKED: TER
DOCKED: ENDMDL
________________________________________________________________________________

DPF> analysis                             # perform a ranked cluster analysis


		CLUSTER ANALYSIS OF CONFORMATIONS
		_________________________________

Number of conformations = 100

RMSD cluster analysis will be performed using the ligand atoms only (26 / 26 total atoms).

Outputting structurally similar clusters, ranked in order of increasing energy.


________________________________________________________________________________

Number of distinct conformational clusters found = 10,  out of 100 runs,
Using an rmsd-tolerance of 2.0 A


	CLUSTERING HISTOGRAM
	____________________

________________________________________________________________________________
     |           |     |           |     |                                    
Clus | Lowest    | Run | Mean      | Num | Histogram                          
-ter | Binding   |     | Binding   | in  |                                    
Rank | Energy    |     | Energy    | Clus|    5    10   15   20   25   30   35
_____|___________|_____|___________|_____|____:____|____:____|____:____|____:___
   1 |    -12.85 |  81 |    -12.37 |  16 |################
   2 |    -12.33 |  32 |    -12.08 |  14 |##############
   3 |    -12.19 |  37 |    -11.82 |   2 |##
   4 |    -12.11 |  87 |    -11.47 |  39 |#######################################
   5 |    -11.92 |  33 |    -11.92 |   1 |#
   6 |    -11.87 |  72 |    -11.51 |  13 |#############
   7 |    -11.75 |   6 |    -11.75 |   1 |#
   8 |    -11.66 |  80 |    -11.43 |  10 |##########
   9 |    -10.96 |  91 |    -10.75 |   3 |###
  10 |    -10.80 |  67 |    -10.80 |   1 |#
_____|___________|_____|___________|_____|______________________________________


Number of multi-member conformational clusters found = 7, out of 100 runs.

	RMSD TABLE
	__________

_____________________________________________________________________
     |      |      |           |         |                 |
Rank | Sub- | Run  | Binding   | Cluster | Reference       | Grep
     | Rank |      | Energy    | RMSD    | RMSD            | Pattern
_____|______|______|___________|_________|_________________|___________
   1      1     81      -12.85      0.00    128.94           RANKING
   1      2     53      -12.83      0.31    128.93           RANKING
   1      3     13      -12.54      0.46    128.98           RANKING
   1      4     26      -12.53      0.28    128.89           RANKING
   1      5     98      -12.46      1.21    129.05           RANKING
   1      6     85      -12.43      1.33    128.99           RANKING
   1      7     50      -12.39      1.37    128.96           RANKING
   1      8     35      -12.35      1.13    129.03           RANKING
   1      9     43      -12.34      0.92    129.13           RANKING
   1     10      5      -12.32      1.07    129.11           RANKING
   1     11     55      -12.32      0.92    129.09           RANKING
   1     12     95      -12.27      1.73    128.95           RANKING
   1     13     45      -12.23      0.46    128.94           RANKING
   1     14      9      -12.20      1.10    129.24           RANKING
   1     15     58      -12.17      0.99    129.00           RANKING
   1     16     99      -11.73      1.44    128.69           RANKING
   2      1     32      -12.33      0.00    127.73           RANKING
   2      2     16      -12.25      1.90    128.82           RANKING
   2      3     36      -12.25      1.39    128.59           RANKING
   2      4     78      -12.23      0.87    127.53           RANKING
   2      5     49      -12.23      1.61    128.67           RANKING
   2      6     23      -12.22      1.11    127.25           RANKING
   2      7      1      -12.18      1.03    127.34           RANKING
   2      8     24      -12.11      0.73    127.55           RANKING
   2      9     29      -12.08      0.68    127.66           RANKING
   2     10     56      -11.99      1.67    128.62           RANKING
   2     11     96      -11.98      1.81    128.73           RANKING
   2     12     31      -11.80      1.85    128.92           RANKING
   2     13     61      -11.78      1.13    127.31           RANKING
   2     14     60      -11.72      1.43    128.64           RANKING
   3      1     37      -12.19      0.00    125.36           RANKING
   3      2     75      -11.46      1.22    125.08           RANKING
   4      1     87      -12.11      0.00    128.34           RANKING
   4      2     90      -12.11      0.33    128.35           RANKING
   4      3      4      -12.01      0.39    128.30           RANKING
   4      4     20      -12.00      0.46    128.39           RANKING
   4      5     88      -11.97      0.49    128.29           RANKING
   4      6     47      -11.82      0.71    128.12           RANKING
   4      7     97      -11.70      1.66    127.87           RANKING
   4      8     44      -11.69      1.58    127.96           RANKING
   4      9     41      -11.68      1.66    127.83           RANKING
   4     10     38      -11.68      1.02    128.34           RANKING
   4     11     22      -11.67      1.58    127.51           RANKING
   4     12     94      -11.67      1.50    127.92           RANKING
   4     13     54      -11.65      1.31    128.17           RANKING
   4     14     82      -11.62      1.59    127.87           RANKING
   4     15     34      -11.59      1.57    127.60           RANKING
   4     16     76      -11.57      1.74    127.72           RANKING
   4     17     46      -11.56      1.80    127.24           RANKING
   4     18     30      -11.55      1.53    128.14           RANKING
   4     19     63      -11.55      1.43    128.22           RANKING
   4     20     21      -11.53      1.75    127.68           RANKING
   4     21     69      -11.51      1.74    127.75           RANKING
   4     22     40      -11.51      1.65    127.83           RANKING
   4     23     10      -11.50      1.66    127.80           RANKING
   4     24     48      -11.46      0.58    128.20           RANKING
   4     25     70      -11.44      1.68    127.59           RANKING
   4     26     62      -11.42      1.71    127.84           RANKING
   4     27     79      -11.37      1.32    128.34           RANKING
   4     28      2      -11.37      1.66    127.56           RANKING
   4     29     84      -11.34      0.73    128.25           RANKING
   4     30     12      -11.17      0.88    128.29           RANKING
   4     31     15      -11.13      1.53    128.02           RANKING
   4     32     93      -11.09      1.04    128.33           RANKING
   4     33     74      -11.06      1.99    127.55           RANKING
   4     34     64      -10.99      1.93    127.42           RANKING
   4     35     73      -10.95      1.58    128.02           RANKING
   4     36     17      -10.92      1.70    127.85           RANKING
   4     37     86      -10.81      1.57    127.62           RANKING
   4     38      8      -10.80      1.63    127.46           RANKING
   4     39     11      -10.76      1.95    127.51           RANKING
   5      1     33      -11.92      0.00    129.13           RANKING
   6      1     72      -11.87      0.00    127.32           RANKING
   6      2     39      -11.86      0.32    127.38           RANKING
   6      3     83      -11.82      0.21    127.42           RANKING
   6      4     66      -11.60      1.92    126.86           RANKING
   6      5     65      -11.60      1.96    126.45           RANKING
   6      6      7      -11.57      1.03    127.78           RANKING
   6      7     51      -11.55      1.93    126.20           RANKING
   6      8     25      -11.50      1.86    126.45           RANKING
   6      9    100      -11.47      2.00    126.29           RANKING
   6     10     19      -11.46      1.76    126.42           RANKING
   6     11     68      -11.38      1.25    127.37           RANKING
   6     12     52      -11.35      1.45    127.22           RANKING
   6     13     57      -10.57      1.74    126.32           RANKING
   7      1      6      -11.75      0.00    128.95           RANKING
   8      1     80      -11.66      0.00    126.72           RANKING
   8      2     18      -11.65      0.73    126.67           RANKING
   8      3     42      -11.61      0.94    126.51           RANKING
   8      4     89      -11.53      0.97    126.49           RANKING
   8      5     77      -11.53      1.47    127.10           RANKING
   8      6      3      -11.50      0.83    126.88           RANKING
   8      7     28      -11.49      1.62    125.65           RANKING
   8      8     92      -11.43      1.45    125.80           RANKING
   8      9     14      -11.23      1.06    126.90           RANKING
   8     10     59      -10.62      1.85    125.32           RANKING
   9      1     91      -10.96      0.00    124.41           RANKING
   9      2     27      -10.72      0.83    124.55           RANKING
   9      3     71      -10.56      1.54    125.11           RANKING
  10      1     67      -10.80      0.00    127.52           RANKING
_______________________________________________________________________



	INFORMATION ENTROPY ANALYSIS FOR THIS CLUSTERING
	________________________________________________


Information entropy for this clustering = 0.38  (rmstol = 2.00 Angstrom)

_______________________________________________________________________


	STATISTICAL MECHANICAL ANALYSIS
	_______________________________


Partition function, Q =   101.99            at Temperature, T = 298.15 K
Free energy,        A ~ -2740.16 kcal/mol   at Temperature, T = 298.15 K
Internal energy,    U =   -11.69 kcal/mol   at Temperature, T = 298.15 K
Entropy,            S =     9.15 kcal/mol/K at Temperature, T = 298.15 K

_______________________________________________________________________


	LOWEST ENERGY DOCKED CONFORMATION from EACH CLUSTER
	___________________________________________________



Keeping original residue number (specified in the input PDBQ file) for outputting.

MODEL       81
USER    Run = 81
USER    Cluster Rank = 1
USER    Number of conformations in this cluster = 16
USER  
USER    RMSD from reference structure       = 128.939 A
USER  
USER    Estimated Free Energy of Binding    =  -12.85 kcal/mol  [=(1)+(2)+(3)-(4)]
USER    Estimated Inhibition Constant, Ki   =  381.45 pM (picomolar)  [Temperature = 298.15 K]
USER    
USER    (1) Final Intermolecular Energy     =  -14.34 kcal/mol
USER        vdW + Hbond + desolv Energy     =  -14.34 kcal/mol
USER        Electrostatic Energy            =   +0.00 kcal/mol
USER    (2) Final Total Internal Energy     =   -0.93 kcal/mol
USER    (3) Torsional Free Energy           =   +1.49 kcal/mol
USER    (4) Unbound System's Energy  [=(2)] =   -0.93 kcal/mol
USER    
USER    
USER  
USER    DPF = ligand_dock.biased.dpf
USER    NEWDPF move	ligand.dum.pdbqt
USER    NEWDPF about	0.217000 0.012000 -0.211000
USER    NEWDPF tran0	35.226339 13.304490 122.945065
USER    NEWDPF axisangle0	-0.944313 0.296017 -0.143693 -170.170254
USER    NEWDPF quaternion0	-0.940841 0.294928 -0.143164 -0.085676
USER    NEWDPF dihe0	12.16 -79.87 111.45 -107.60 136.55 
USER  
USER                              x       y       z    vdW   Elec        q     RMS 
ATOM      1  C   UNL     1      35.909  15.327 123.399 -0.41 -0.00    +0.000    128.939
ATOM      2  C   UNL     1      35.982  13.929 123.485 -0.49 -0.00    +0.000    128.939
ATOM      3  C   UNL     1      37.115  13.240 123.005 -0.51 -0.00    +0.000    128.939
ATOM      4  C   UNL     1      38.160  13.977 122.425 -0.42 -0.00    +0.000    128.939
ATOM      5  C   UNL     1      38.092  15.371 122.349 -0.30 -0.00    +0.000    128.939
ATOM      6  C   UNL     1      36.972  16.045 122.838 -0.28 -0.00    +0.000    128.939
ATOM      7  CM  UNL     1      37.038  14.648 122.917 +0.00 -0.00    +0.000    128.939
ATOM      8  O   UNL     1      33.319  15.223 124.115 -0.48 -0.00    +0.000    128.939
ATOM      9  S   UNL     1      34.477  16.172 123.982 -0.68 -0.00    +0.000    128.939
ATOM     10  O   UNL     1      34.119  17.248 122.998 -0.47 -0.00    +0.000    128.939
ATOM     11  N   UNL     1      34.798  16.895 125.528 -0.33 -0.00    +0.000    128.939
ATOM     12  H   UNL     1      35.737  17.042 125.783 -0.01 -0.00    +0.000    128.939
ATOM     13  C   UNL     1      33.774  17.292 126.457 -0.36 -0.00    +0.000    128.939
ATOM     14  C   UNL     1      33.238  18.594 126.463 -0.28 -0.00    +0.000    128.939
ATOM     15  C   UNL     1      32.236  18.941 127.375 -0.21 -0.00    +0.000    128.939
ATOM     16  C   UNL     1      31.764  17.999 128.292 -0.27 -0.00    +0.000    128.939
ATOM     17  C   UNL     1      32.295  16.708 128.300 -0.40 -0.00    +0.000    128.939
ATOM     18  C   UNL     1      33.296  16.356 127.390 -0.38 -0.00    +0.000    128.939
ATOM     19  CM  UNL     1      32.767  17.648 127.380 +0.00 -0.00    +0.000    128.939
ATOM     20  C   UNL     1      37.230  11.761 123.049 -0.56 -0.00    +0.000    128.939
ATOM     21  C   UNL     1      36.795  10.950 122.072 -0.60 -0.00    +0.000    128.939
ATOM     22  C   UNL     1      36.915   9.478 122.123 -0.65 -0.00    +0.000    128.939
ATOM     23  N   UNL     1      36.898   8.749 123.357 -0.64 -0.00    +0.000    128.939
ATOM     24  O   UNL     1      37.117   7.414 123.358 -2.43 -0.00    +0.000    128.939
ATOM     25  O   UNL     1      37.010   8.846 121.037 -2.69 -0.00    +0.000    128.939
ATOM     26  H   UNL     1      36.728   9.221 124.204 -0.50 -0.00    +0.000    128.939
TER
ENDMDL
MODEL       32
USER    Run = 32
USER    Cluster Rank = 2
USER    Number of conformations in this cluster = 14
USER  
USER    RMSD from reference structure       = 127.732 A
USER  
USER    Estimated Free Energy of Binding    =  -12.33 kcal/mol  [=(1)+(2)+(3)-(4)]
USER    Estimated Inhibition Constant, Ki   =  910.77 pM (picomolar)  [Temperature = 298.15 K]
USER    
USER    (1) Final Intermolecular Energy     =  -13.83 kcal/mol
USER        vdW + Hbond + desolv Energy     =  -13.83 kcal/mol
USER        Electrostatic Energy            =   +0.00 kcal/mol
USER    (2) Final Total Internal Energy     =   -1.16 kcal/mol
USER    (3) Torsional Free Energy           =   +1.49 kcal/mol
USER    (4) Unbound System's Energy  [=(2)] =   -1.16 kcal/mol
USER    
USER    
USER  
USER    DPF = ligand_dock.biased.dpf
USER    NEWDPF move	ligand.dum.pdbqt
USER    NEWDPF about	0.217000 0.012000 -0.211000
USER    NEWDPF tran0	35.281047 13.145491 123.065372
USER    NEWDPF axisangle0	0.930210 -0.312509 0.192478 162.364518
USER    NEWDPF quaternion0	0.919216 -0.308816 0.190203 0.153292
USER    NEWDPF dihe0	9.33 -112.85 99.91 107.02 -135.62 
USER  
USER                              x       y       z    vdW   Elec        q     RMS 
ATOM      1  C   UNL     1      35.938  15.084 123.821 -0.44 -0.00    +0.000    127.732
ATOM      2  C   UNL     1      35.970  13.684 123.763 -0.51 -0.00    +0.000    127.732
ATOM      3  C   UNL     1      37.143  13.010 123.363 -0.53 -0.00    +0.000    127.732
ATOM      4  C   UNL     1      38.271  13.767 123.008 -0.40 -0.00    +0.000    127.732
ATOM      5  C   UNL     1      38.242  15.162 123.076 -0.31 -0.00    +0.000    127.732
ATOM      6  C   UNL     1      37.081  15.820 123.485 -0.31 -0.00    +0.000    127.732
ATOM      7  CM  UNL     1      37.108  14.421 123.420 +0.00 -0.00    +0.000    127.732
ATOM      8  O   UNL     1      34.178  15.692 125.761 -0.72 -0.00    +0.000    127.732
ATOM      9  S   UNL     1      34.459  15.913 124.301 -0.72 -0.00    +0.000    127.732
ATOM     10  O   UNL     1      33.317  15.365 123.494 -0.34 -0.00    +0.000    127.732
ATOM     11  N   UNL     1      34.604  17.617 124.004 -0.36 -0.00    +0.000    127.732
ATOM     12  H   UNL     1      34.439  18.233 124.754 -0.01 -0.00    +0.000    127.732
ATOM     13  C   UNL     1      34.952  18.183 122.727 -0.28 -0.00    +0.000    127.732
ATOM     14  C   UNL     1      36.039  19.065 122.575 -0.18 -0.00    +0.000    127.732
ATOM     15  C   UNL     1      36.353  19.588 121.316 -0.13 -0.00    +0.000    127.732
ATOM     16  C   UNL     1      35.585  19.244 120.202 -0.16 -0.00    +0.000    127.732
ATOM     17  C   UNL     1      34.499  18.377 120.344 -0.27 -0.00    +0.000    127.732
ATOM     18  C   UNL     1      34.182  17.852 121.600 -0.34 -0.00    +0.000    127.732
ATOM     19  CM  UNL     1      35.268  18.718 121.460 +0.00 -0.00    +0.000    127.732
ATOM     20  C   UNL     1      37.221  11.531 123.261 -0.55 -0.00    +0.000    127.732
ATOM     21  C   UNL     1      36.699  10.826 122.246 -0.64 -0.00    +0.000    127.732
ATOM     22  C   UNL     1      36.783   9.354 122.151 -0.69 -0.00    +0.000    127.732
ATOM     23  N   UNL     1      36.889   8.515 123.307 -0.68 -0.00    +0.000    127.732
ATOM     24  O   UNL     1      37.069   7.181 123.164 -2.17 -0.00    +0.000    127.732
ATOM     25  O   UNL     1      36.733   8.822 121.009 -2.60 -0.00    +0.000    127.732
ATOM     26  H   UNL     1      36.832   8.910 124.208 -0.50 -0.00    +0.000    127.732
TER
ENDMDL
MODEL       37
USER    Run = 37
USER    Cluster Rank = 3
USER    Number of conformations in this cluster = 2
USER  
USER    RMSD from reference structure       = 125.360 A
USER  
USER    Estimated Free Energy of Binding    =  -12.19 kcal/mol  [=(1)+(2)+(3)-(4)]
USER    Estimated Inhibition Constant, Ki   =    1.16 nM (nanomolar)  [Temperature = 298.15 K]
USER    
USER    (1) Final Intermolecular Energy     =  -13.68 kcal/mol
USER        vdW + Hbond + desolv Energy     =  -13.68 kcal/mol
USER        Electrostatic Energy            =   +0.00 kcal/mol
USER    (2) Final Total Internal Energy     =   -0.95 kcal/mol
USER    (3) Torsional Free Energy           =   +1.49 kcal/mol
USER    (4) Unbound System's Energy  [=(2)] =   -0.95 kcal/mol
USER    
USER    
USER  
USER    DPF = ligand_dock.biased.dpf
USER    NEWDPF move	ligand.dum.pdbqt
USER    NEWDPF about	0.217000 0.012000 -0.211000
USER    NEWDPF tran0	36.041647 11.623512 120.538666
USER    NEWDPF axisangle0	-0.746952 -0.252351 0.615127 -82.247260
USER    NEWDPF quaternion0	-0.491260 -0.165968 0.404560 -0.753292
USER    NEWDPF dihe0	129.72 -52.86 12.47 -160.13 -74.76 
USER  
USER                              x       y       z    vdW   Elec        q     RMS 
ATOM      1  C   UNL     1      36.689  10.774 122.441 -0.58 -0.00    +0.000    125.360
ATOM      2  C   UNL     1      36.864  11.562 121.295 -0.44 -0.00    +0.000    125.360
ATOM      3  C   UNL     1      37.067  12.954 121.407 -0.44 -0.00    +0.000    125.360
ATOM      4  C   UNL     1      37.076  13.536 122.684 -0.47 -0.00    +0.000    125.360
ATOM      5  C   UNL     1      36.912  12.749 123.827 -0.46 -0.00    +0.000    125.360
ATOM      6  C   UNL     1      36.724  11.371 123.707 -0.58 -0.00    +0.000    125.360
ATOM      7  CM  UNL     1      36.889  12.158 122.560 +0.00 -0.00    +0.000    125.360
ATOM      8  O   UNL     1      37.333   8.274 123.194 -2.14 -0.00    +0.000    125.360
ATOM      9  S   UNL     1      36.414   9.040 122.285 -0.90 -0.00    +0.000    125.360
ATOM     10  O   UNL     1      36.682   8.637 120.863 -2.42 -0.00    +0.000    125.360
ATOM     11  N   UNL     1      34.769   8.657 122.688 -0.60 -0.00    +0.000    125.360
ATOM     12  H   UNL     1      34.323   9.203 123.375 -0.43 -0.00    +0.000    125.360
ATOM     13  C   UNL     1      34.021   7.590 122.080 -0.60 -0.00    +0.000    125.360
ATOM     14  C   UNL     1      33.688   7.600 120.711 -0.53 -0.00    +0.000    125.360
ATOM     15  C   UNL     1      32.967   6.540 120.152 -0.11 -0.00    +0.000    125.360
ATOM     16  C   UNL     1      32.566   5.466 120.949 +0.10 -0.00    +0.000    125.360
ATOM     17  C   UNL     1      32.883   5.451 122.309 -0.37 -0.00    +0.000    125.360
ATOM     18  C   UNL     1      33.604   6.507 122.873 -0.68 -0.00    +0.000    125.360
ATOM     19  CM  UNL     1      33.288   6.526 121.513 +0.00 -0.00    +0.000    125.360
ATOM     20  C   UNL     1      37.232  13.835 120.224 -0.37 -0.00    +0.000    125.360
ATOM     21  C   UNL     1      37.402  13.380 118.973 -0.43 -0.00    +0.000    125.360
ATOM     22  C   UNL     1      37.563  14.264 117.801 -0.33 -0.00    +0.000    125.360
ATOM     23  N   UNL     1      38.370  13.904 116.673 -0.32 -0.00    +0.000    125.360
ATOM     24  O   UNL     1      38.570  14.791 115.671 -0.27 -0.00    +0.000    125.360
ATOM     25  O   UNL     1      36.944  15.362 117.787 -0.19 -0.00    +0.000    125.360
ATOM     26  H   UNL     1      38.781  13.010 116.628 -0.11 -0.00    +0.000    125.360
TER
ENDMDL
MODEL       87
USER    Run = 87
USER    Cluster Rank = 4
USER    Number of conformations in this cluster = 39
USER  
USER    RMSD from reference structure       = 128.343 A
USER  
USER    Estimated Free Energy of Binding    =  -12.11 kcal/mol  [=(1)+(2)+(3)-(4)]
USER    Estimated Inhibition Constant, Ki   =    1.32 nM (nanomolar)  [Temperature = 298.15 K]
USER    
USER    (1) Final Intermolecular Energy     =  -13.61 kcal/mol
USER        vdW + Hbond + desolv Energy     =  -13.61 kcal/mol
USER        Electrostatic Energy            =   +0.00 kcal/mol
USER    (2) Final Total Internal Energy     =   -0.95 kcal/mol
USER    (3) Torsional Free Energy           =   +1.49 kcal/mol
USER    (4) Unbound System's Energy  [=(2)] =   -0.95 kcal/mol
USER    
USER    
USER  
USER    DPF = ligand_dock.biased.dpf
USER    NEWDPF move	ligand.dum.pdbqt
USER    NEWDPF about	0.217000 0.012000 -0.211000
USER    NEWDPF tran0	38.678556 13.511049 123.778520
USER    NEWDPF axisangle0	-0.263750 0.117683 0.957386 140.217119
USER    NEWDPF quaternion0	-0.248014 0.110661 0.900267 0.340239
USER    NEWDPF dihe0	-7.21 -106.29 -68.12 -133.72 28.25 
USER  
USER                              x       y       z    vdW   Elec        q     RMS 
ATOM      1  C   UNL     1      37.875  15.441 123.153 -0.30 -0.00    +0.000    128.343
ATOM      2  C   UNL     1      37.988  14.045 123.079 -0.43 -0.00    +0.000    128.343
ATOM      3  C   UNL     1      36.868  13.222 123.318 -0.53 -0.00    +0.000    128.343
ATOM      4  C   UNL     1      35.643  13.823 123.646 -0.46 -0.00    +0.000    128.343
ATOM      5  C   UNL     1      35.528  15.215 123.710 -0.46 -0.00    +0.000    128.343
ATOM      6  C   UNL     1      36.638  16.022 123.460 -0.32 -0.00    +0.000    128.343
ATOM      7  CM  UNL     1      36.757  14.627 123.394 +0.00 -0.00    +0.000    128.343
ATOM      8  O   UNL     1      39.496  17.401 124.024 -0.29 -0.00    +0.000    128.343
ATOM      9  S   UNL     1      39.288  16.456 122.874 -0.33 -0.00    +0.000    128.343
ATOM     10  O   UNL     1      39.069  17.250 121.619 -0.12 -0.00    +0.000    128.343
ATOM     11  N   UNL     1      40.705  15.470 122.688 -0.42 -0.00    +0.000    128.343
ATOM     12  H   UNL     1      40.618  14.502 122.843 -0.04 -0.00    +0.000    128.343
ATOM     13  C   UNL     1      41.998  15.984 122.321 -0.39 -0.00    +0.000    128.343
ATOM     14  C   UNL     1      42.650  15.584 121.138 -0.23 -0.00    +0.000    128.343
ATOM     15  C   UNL     1      43.903  16.112 120.810 -0.24 -0.00    +0.000    128.343
ATOM     16  C   UNL     1      44.519  17.036 121.656 -0.24 -0.00    +0.000    128.343
ATOM     17  C   UNL     1      43.885  17.432 122.835 -0.26 -0.00    +0.000    128.343
ATOM     18  C   UNL     1      42.633  16.908 123.168 -0.36 -0.00    +0.000    128.343
ATOM     19  CM  UNL     1      43.265  16.510 121.989 +0.00 -0.00    +0.000    128.343
ATOM     20  C   UNL     1      36.942  11.740 123.276 -0.67 -0.00    +0.000    128.343
ATOM     21  C   UNL     1      36.715  11.013 122.170 -0.63 -0.00    +0.000    128.343
ATOM     22  C   UNL     1      36.793   9.538 122.136 -0.67 -0.00    +0.000    128.343
ATOM     23  N   UNL     1      36.896   8.748 123.327 -0.65 -0.00    +0.000    128.343
ATOM     24  O   UNL     1      37.070   7.409 123.239 -2.41 -0.00    +0.000    128.343
ATOM     25  O   UNL     1      36.740   8.960 121.018 -2.62 -0.00    +0.000    128.343
ATOM     26  H   UNL     1      36.841   9.180 124.210 -0.52 -0.00    +0.000    128.343
TER
ENDMDL
MODEL       33
USER    Run = 33
USER    Cluster Rank = 5
USER    Number of conformations in this cluster = 1
USER  
USER    RMSD from reference structure       = 129.130 A
USER  
USER    Estimated Free Energy of Binding    =  -11.92 kcal/mol  [=(1)+(2)+(3)-(4)]
USER    Estimated Inhibition Constant, Ki   =    1.83 nM (nanomolar)  [Temperature = 298.15 K]
USER    
USER    (1) Final Intermolecular Energy     =  -13.41 kcal/mol
USER        vdW + Hbond + desolv Energy     =  -13.41 kcal/mol
USER        Electrostatic Energy            =   +0.00 kcal/mol
USER    (2) Final Total Internal Energy     =   -1.10 kcal/mol
USER    (3) Torsional Free Energy           =   +1.49 kcal/mol
USER    (4) Unbound System's Energy  [=(2)] =   -1.10 kcal/mol
USER    
USER    
USER  
USER    DPF = ligand_dock.biased.dpf
USER    NEWDPF move	ligand.dum.pdbqt
USER    NEWDPF about	0.217000 0.012000 -0.211000
USER    NEWDPF tran0	39.026190 13.320434 123.595805
USER    NEWDPF axisangle0	0.223774 -0.141508 -0.964314 -147.655189
USER    NEWDPF quaternion0	0.214919 -0.135908 -0.926154 -0.278529
USER    NEWDPF dihe0	-34.22 -109.72 -44.74 124.99 -131.65 
USER  
USER                              x       y       z    vdW   Elec        q     RMS 
ATOM      1  C   UNL     1      38.489  15.329 122.936 -0.29 -0.00    +0.000    129.130
ATOM      2  C   UNL     1      38.392  13.931 122.905 -0.38 -0.00    +0.000    129.130
ATOM      3  C   UNL     1      37.174  13.290 123.216 -0.51 -0.00    +0.000    129.130
ATOM      4  C   UNL     1      36.067  14.077 123.572 -0.49 -0.00    +0.000    129.130
ATOM      5  C   UNL     1      36.161  15.471 123.592 -0.39 -0.00    +0.000    129.130
ATOM      6  C   UNL     1      37.367  16.097 123.271 -0.28 -0.00    +0.000    129.130
ATOM      7  CM  UNL     1      37.275  14.699 123.248 +0.00 -0.00    +0.000    129.130
ATOM      8  O   UNL     1      40.308  16.053 121.093 -0.23 -0.00    +0.000    129.130
ATOM      9  S   UNL     1      40.023  16.115 122.567 -0.40 -0.00    +0.000    129.130
ATOM     10  O   UNL     1      41.118  15.404 123.309 -0.79 +0.00    +0.000    129.130
ATOM     11  N   UNL     1      39.979  17.777 123.066 -0.17 -0.00    +0.000    129.130
ATOM     12  H   UNL     1      39.922  18.468 122.367 +0.00 -0.00    +0.000    129.130
ATOM     13  C   UNL     1      40.021  18.205 124.439 -0.24 -0.00    +0.000    129.130
ATOM     14  C   UNL     1      38.996  18.987 125.007 -0.15 -0.00    +0.000    129.130
ATOM     15  C   UNL     1      39.066  19.376 126.349 -0.15 -0.00    +0.000    129.130
ATOM     16  C   UNL     1      40.157  18.998 127.133 -0.23 -0.00    +0.000    129.130
ATOM     17  C   UNL     1      41.183  18.230 126.577 -0.35 -0.00    +0.000    129.130
ATOM     18  C   UNL     1      41.117  17.838 125.237 -0.28 -0.00    +0.000    129.130
ATOM     19  CM  UNL     1      40.091  18.606 125.790 +0.00 -0.00    +0.000    129.130
ATOM     20  C   UNL     1      37.027  11.814 123.223 -0.67 -0.00    +0.000    129.130
ATOM     21  C   UNL     1      37.096  11.053 122.120 -0.51 -0.00    +0.000    129.130
ATOM     22  C   UNL     1      36.951   9.583 122.135 -0.63 -0.00    +0.000    129.130
ATOM     23  N   UNL     1      37.062   8.813 123.339 -0.64 -0.00    +0.000    129.130
ATOM     24  O   UNL     1      37.026   7.462 123.285 -2.43 -0.00    +0.000    129.130
ATOM     25  O   UNL     1      36.694   8.994 121.051 -2.61 -0.00    +0.000    129.130
ATOM     26  H   UNL     1      37.167   9.269 124.206 -0.60 -0.00    +0.000    129.130
TER
ENDMDL
MODEL       72
USER    Run = 72
USER    Cluster Rank = 6
USER    Number of conformations in this cluster = 13
USER  
USER    RMSD from reference structure       = 127.317 A
USER  
USER    Estimated Free Energy of Binding    =  -11.87 kcal/mol  [=(1)+(2)+(3)-(4)]
USER    Estimated Inhibition Constant, Ki   =    2.00 nM (nanomolar)  [Temperature = 298.15 K]
USER    
USER    (1) Final Intermolecular Energy     =  -13.36 kcal/mol
USER        vdW + Hbond + desolv Energy     =  -13.36 kcal/mol
USER        Electrostatic Energy            =   +0.00 kcal/mol
USER    (2) Final Total Internal Energy     =   -1.01 kcal/mol
USER    (3) Torsional Free Energy           =   +1.49 kcal/mol
USER    (4) Unbound System's Energy  [=(2)] =   -1.01 kcal/mol
USER    
USER    
USER  
USER    DPF = ligand_dock.biased.dpf
USER    NEWDPF move	ligand.dum.pdbqt
USER    NEWDPF about	0.217000 0.012000 -0.211000
USER    NEWDPF tran0	36.556408 13.565842 121.872666
USER    NEWDPF axisangle0	0.863515 -0.375147 -0.337056 -159.768015
USER    NEWDPF quaternion0	0.850091 -0.369315 -0.331816 -0.175642
USER    NEWDPF dihe0	126.91 -56.00 50.78 179.88 -63.58 
USER  
USER                              x       y       z    vdW   Elec        q     RMS 
ATOM      1  C   UNL     1      37.403  15.375 120.996 -0.22 -0.00    +0.000    127.317
ATOM      2  C   UNL     1      37.418  14.010 121.314 -0.35 -0.00    +0.000    127.317
ATOM      3  C   UNL     1      37.450  13.037 120.293 -0.43 -0.00    +0.000    127.317
ATOM      4  C   UNL     1      37.451  13.460 118.954 -0.37 -0.00    +0.000    127.317
ATOM      5  C   UNL     1      37.447  14.822 118.638 -0.24 -0.00    +0.000    127.317
ATOM      6  C   UNL     1      37.427  15.777 119.655 -0.17 -0.00    +0.000    127.317
ATOM      7  CM  UNL     1      37.433  14.413 119.975 +0.00 -0.00    +0.000    127.317
ATOM      8  O   UNL     1      38.198  17.765 121.939 -0.11 -0.00    +0.000    127.317
ATOM      9  S   UNL     1      37.341  16.579 122.281 -0.29 -0.00    +0.000    127.317
ATOM     10  O   UNL     1      37.849  15.955 123.549 -0.36 -0.00    +0.000    127.317
ATOM     11  N   UNL     1      35.706  17.113 122.522 -0.26 -0.00    +0.000    127.317
ATOM     12  H   UNL     1      35.204  17.432 121.737 -0.01 -0.00    +0.000    127.317
ATOM     13  C   UNL     1      35.042  17.117 123.798 -0.36 -0.00    +0.000    127.317
ATOM     14  C   UNL     1      34.702  15.923 124.465 -0.49 -0.00    +0.000    127.317
ATOM     15  C   UNL     1      34.066  15.966 125.709 -0.37 -0.00    +0.000    127.317
ATOM     16  C   UNL     1      33.756  17.194 126.297 -0.36 -0.00    +0.000    127.317
ATOM     17  C   UNL     1      34.080  18.383 125.640 -0.30 -0.00    +0.000    127.317
ATOM     18  C   UNL     1      34.717  18.346 124.397 -0.29 -0.00    +0.000    127.317
ATOM     19  CM  UNL     1      34.393  17.155 125.051 -0.31 -0.00    +0.000    127.317
ATOM     20  C   UNL     1      37.441  11.580 120.576 -0.47 -0.00    +0.000    127.317
ATOM     21  C   UNL     1      36.883  11.037 121.668 -0.53 -0.00    +0.000    127.317
ATOM     22  C   UNL     1      36.875   9.585 121.942 -0.64 -0.00    +0.000    127.317
ATOM     23  N   UNL     1      36.987   9.054 123.268 -0.63 -0.00    +0.000    127.317
ATOM     24  O   UNL     1      37.082   7.717 123.457 -2.70 -0.00    +0.000    127.317
ATOM     25  O   UNL     1      36.740   8.792 120.972 -2.58 -0.00    +0.000    127.317
ATOM     26  H   UNL     1      36.996   9.662 124.043 -0.52 -0.00    +0.000    127.317
TER
ENDMDL
MODEL        6
USER    Run = 6
USER    Cluster Rank = 7
USER    Number of conformations in this cluster = 1
USER  
USER    RMSD from reference structure       = 128.948 A
USER  
USER    Estimated Free Energy of Binding    =  -11.75 kcal/mol  [=(1)+(2)+(3)-(4)]
USER    Estimated Inhibition Constant, Ki   =    2.45 nM (nanomolar)  [Temperature = 298.15 K]
USER    
USER    (1) Final Intermolecular Energy     =  -13.24 kcal/mol
USER        vdW + Hbond + desolv Energy     =  -13.24 kcal/mol
USER        Electrostatic Energy            =   +0.00 kcal/mol
USER    (2) Final Total Internal Energy     =   -1.09 kcal/mol
USER    (3) Torsional Free Energy           =   +1.49 kcal/mol
USER    (4) Unbound System's Energy  [=(2)] =   -1.09 kcal/mol
USER    
USER    
USER  
USER    DPF = ligand_dock.biased.dpf
USER    NEWDPF move	ligand.dum.pdbqt
USER    NEWDPF about	0.217000 0.012000 -0.211000
USER    NEWDPF tran0	35.294359 13.645422 123.128018
USER    NEWDPF axisangle0	-0.944325 0.321405 -0.070348 -176.546209
USER    NEWDPF quaternion0	-0.943896 0.321259 -0.070316 -0.030135
USER    NEWDPF dihe0	4.41 -88.25 123.07 -8.48 -173.94 
USER  
USER                              x       y       z    vdW   Elec        q     RMS 
ATOM      1  C   UNL     1      36.138  15.647 123.337 -0.37 -0.00    +0.000    128.948
ATOM      2  C   UNL     1      36.161  14.253 123.491 -0.47 -0.00    +0.000    128.948
ATOM      3  C   UNL     1      37.159  13.479 122.864 -0.49 -0.00    +0.000    128.948
ATOM      4  C   UNL     1      38.119  14.126 122.070 -0.40 -0.00    +0.000    128.948
ATOM      5  C   UNL     1      38.103  15.516 121.925 -0.26 -0.00    +0.000    128.948
ATOM      6  C   UNL     1      37.119  16.275 122.560 -0.24 -0.00    +0.000    128.948
ATOM      7  CM  UNL     1      37.133  14.882 122.708 +0.00 -0.00    +0.000    128.948
ATOM      8  O   UNL     1      34.436  15.956 125.396 -0.60 -0.00    +0.000    128.948
ATOM      9  S   UNL     1      34.872  16.598 124.109 -0.59 -0.00    +0.000    128.948
ATOM     10  O   UNL     1      33.697  16.679 123.178 -0.38 -0.00    +0.000    128.948
ATOM     11  N   UNL     1      35.449  18.202 124.443 -0.26 -0.00    +0.000    128.948
ATOM     12  H   UNL     1      34.985  18.958 124.016 -0.01 -0.00    +0.000    128.948
ATOM     13  C   UNL     1      36.564  18.491 125.305 -0.17 -0.00    +0.000    128.948
ATOM     14  C   UNL     1      36.385  18.921 126.635 -0.14 -0.00    +0.000    128.948
ATOM     15  C   UNL     1      37.493  19.183 127.447 -0.12 -0.00    +0.000    128.948
ATOM     16  C   UNL     1      38.785  19.028 126.942 -0.17 -0.00    +0.000    128.948
ATOM     17  C   UNL     1      38.973  18.612 125.623 -0.18 -0.00    +0.000    128.948
ATOM     18  C   UNL     1      37.869  18.347 124.807 -0.16 -0.00    +0.000    128.948
ATOM     19  CM  UNL     1      37.679  18.764 126.126 +0.00 -0.00    +0.000    128.948
ATOM     20  C   UNL     1      37.211  12.000 122.975 -0.59 -0.00    +0.000    128.948
ATOM     21  C   UNL     1      36.769  11.165 122.022 -0.61 -0.00    +0.000    128.948
ATOM     22  C   UNL     1      36.827   9.693 122.138 -0.65 -0.00    +0.000    128.948
ATOM     23  N   UNL     1      36.911   9.027 123.404 -0.59 -0.00    +0.000    128.948
ATOM     24  O   UNL     1      37.068   7.684 123.454 -2.67 -0.00    +0.000    128.948
ATOM     25  O   UNL     1      36.774   9.005 121.084 -2.64 -0.00    +0.000    128.948
ATOM     26  H   UNL     1      36.856   9.547 124.239 -0.51 -0.00    +0.000    128.948
TER
ENDMDL
MODEL       80
USER    Run = 80
USER    Cluster Rank = 8
USER    Number of conformations in this cluster = 10
USER  
USER    RMSD from reference structure       = 126.724 A
USER  
USER    Estimated Free Energy of Binding    =  -11.66 kcal/mol  [=(1)+(2)+(3)-(4)]
USER    Estimated Inhibition Constant, Ki   =    2.83 nM (nanomolar)  [Temperature = 298.15 K]
USER    
USER    (1) Final Intermolecular Energy     =  -13.15 kcal/mol
USER        vdW + Hbond + desolv Energy     =  -13.15 kcal/mol
USER        Electrostatic Energy            =   +0.00 kcal/mol
USER    (2) Final Total Internal Energy     =   -1.21 kcal/mol
USER    (3) Torsional Free Energy           =   +1.49 kcal/mol
USER    (4) Unbound System's Energy  [=(2)] =   -1.21 kcal/mol
USER    
USER    
USER  
USER    DPF = ligand_dock.biased.dpf
USER    NEWDPF move	ligand.dum.pdbqt
USER    NEWDPF about	0.217000 0.012000 -0.211000
USER    NEWDPF tran0	38.427080 12.982009 123.170755
USER    NEWDPF axisangle0	0.128521 -0.074390 -0.988913 -149.736517
USER    NEWDPF quaternion0	0.124065 -0.071811 -0.954625 -0.261039
USER    NEWDPF dihe0	-79.64 48.37 11.43 0.56 126.24 
USER  
USER                              x       y       z    vdW   Elec        q     RMS 
ATOM      1  C   UNL     1      37.874  15.059 122.798 -0.35 -0.00    +0.000    126.724
ATOM      2  C   UNL     1      37.697  13.673 122.680 -0.45 -0.00    +0.000    126.724
ATOM      3  C   UNL     1      36.538  13.053 123.191 -0.54 -0.00    +0.000    126.724
ATOM      4  C   UNL     1      35.573  13.845 123.834 -0.47 -0.00    +0.000    126.724
ATOM      5  C   UNL     1      35.744  15.227 123.942 -0.44 -0.00    +0.000    126.724
ATOM      6  C   UNL     1      36.888  15.835 123.423 -0.32 -0.00    +0.000    126.724
ATOM      7  CM  UNL     1      36.719  14.448 123.311 +0.00 -0.00    +0.000    126.724
ATOM      8  O   UNL     1      40.488  14.852 122.204 -0.80 -0.00    +0.000    126.724
ATOM      9  S   UNL     1      39.337  15.818 122.175 -0.38 -0.00    +0.000    126.724
ATOM     10  O   UNL     1      39.669  17.002 123.037 -0.25 -0.00    +0.000    126.724
ATOM     11  N   UNL     1      39.085  16.351 120.542 -0.13 -0.00    +0.000    126.724
ATOM     12  H   UNL     1      39.305  17.285 120.322 +0.00 -0.00    +0.000    126.724
ATOM     13  C   UNL     1      38.575  15.510 119.492 -0.17 -0.00    +0.000    126.724
ATOM     14  C   UNL     1      37.589  14.534 119.733 -0.27 -0.00    +0.000    126.724
ATOM     15  C   UNL     1      37.109  13.741 118.684 -0.36 -0.00    +0.000    126.724
ATOM     16  C   UNL     1      37.611  13.908 117.392 -0.32 -0.00    +0.000    126.724
ATOM     17  C   UNL     1      38.596  14.867 117.145 -0.19 -0.00    +0.000    126.724
ATOM     18  C   UNL     1      39.078  15.662 118.189 -0.14 -0.00    +0.000    126.724
ATOM     19  CM  UNL     1      38.093  14.704 118.439 +0.00 -0.00    +0.000    126.724
ATOM     20  C   UNL     1      36.316  11.587 123.114 -0.70 -0.00    +0.000    126.724
ATOM     21  C   UNL     1      37.067  10.758 122.374 -0.55 -0.00    +0.000    126.724
ATOM     22  C   UNL     1      36.841   9.299 122.304 -0.69 -0.00    +0.000    126.724
ATOM     23  N   UNL     1      36.939   8.452 123.455 -0.68 -0.00    +0.000    126.724
ATOM     24  O   UNL     1      36.826   7.110 123.321 -2.01 -0.00    +0.000    126.724
ATOM     25  O   UNL     1      36.526   8.793 121.194 -2.39 -0.00    +0.000    126.724
ATOM     26  H   UNL     1      37.089   8.847 124.345 -0.54 -0.00    +0.000    126.724
TER
ENDMDL
MODEL       91
USER    Run = 91
USER    Cluster Rank = 9
USER    Number of conformations in this cluster = 3
USER  
USER    RMSD from reference structure       = 124.415 A
USER  
USER    Estimated Free Energy of Binding    =  -10.96 kcal/mol  [=(1)+(2)+(3)-(4)]
USER    Estimated Inhibition Constant, Ki   =    9.30 nM (nanomolar)  [Temperature = 298.15 K]
USER    
USER    (1) Final Intermolecular Energy     =  -12.45 kcal/mol
USER        vdW + Hbond + desolv Energy     =  -12.45 kcal/mol
USER        Electrostatic Energy            =   +0.00 kcal/mol
USER    (2) Final Total Internal Energy     =   -1.14 kcal/mol
USER    (3) Torsional Free Energy           =   +1.49 kcal/mol
USER    (4) Unbound System's Energy  [=(2)] =   -1.14 kcal/mol
USER    
USER    
USER  
USER    DPF = ligand_dock.biased.dpf
USER    NEWDPF move	ligand.dum.pdbqt
USER    NEWDPF about	0.217000 0.012000 -0.211000
USER    NEWDPF tran0	37.534004 13.433649 119.224933
USER    NEWDPF axisangle0	-0.599284 0.126572 -0.790467 -145.429159
USER    NEWDPF quaternion0	-0.572218 0.120856 -0.754767 -0.297132
USER    NEWDPF dihe0	104.13 -125.61 -79.60 -30.19 36.59 
USER  
USER                              x       y       z    vdW   Elec        q     RMS 
ATOM      1  C   UNL     1      36.917  15.419 119.887 -0.18 -0.00    +0.000    124.415
ATOM      2  C   UNL     1      36.947  14.020 119.975 -0.22 -0.00    +0.000    124.415
ATOM      3  C   UNL     1      37.485  13.385 121.114 -0.41 -0.00    +0.000    124.415
ATOM      4  C   UNL     1      38.004  14.179 122.150 -0.40 -0.00    +0.000    124.415
ATOM      5  C   UNL     1      37.965  15.573 122.066 -0.26 -0.00    +0.000    124.415
ATOM      6  C   UNL     1      37.420  16.193 120.941 -0.17 -0.00    +0.000    124.415
ATOM      7  CM  UNL     1      37.456  14.794 121.022 +0.00 -0.00    +0.000    124.415
ATOM      8  O   UNL     1      37.321  17.014 117.760 -0.08 -0.00    +0.000    124.415
ATOM      9  S   UNL     1      36.263  16.198 118.448 -0.21 -0.00    +0.000    124.415
ATOM     10  O   UNL     1      35.137  17.102 118.861 -0.19 -0.00    +0.000    124.415
ATOM     11  N   UNL     1      35.660  15.003 117.342 -0.24 -0.00    +0.000    124.415
ATOM     12  H   UNL     1      34.696  14.808 117.354 -0.02 -0.00    +0.000    124.415
ATOM     13  C   UNL     1      36.486  14.280 116.412 -0.29 -0.00    +0.000    124.415
ATOM     14  C   UNL     1      36.080  14.045 115.083 -0.27 -0.00    +0.000    124.415
ATOM     15  C   UNL     1      36.915  13.348 114.204 -0.32 -0.00    +0.000    124.415
ATOM     16  C   UNL     1      38.154  12.873 114.639 -0.34 -0.00    +0.000    124.415
ATOM     17  C   UNL     1      38.561  13.094 115.956 -0.46 -0.00    +0.000    124.415
ATOM     18  C   UNL     1      37.732  13.791 116.839 -0.34 -0.00    +0.000    124.415
ATOM     19  CM  UNL     1      37.322  13.571 115.522 +0.00 -0.00    +0.000    124.415
ATOM     20  C   UNL     1      37.562  11.909 121.245 -0.36 -0.00    +0.000    124.415
ATOM     21  C   UNL     1      36.713  11.181 121.988 -0.62 -0.00    +0.000    124.415
ATOM     22  C   UNL     1      36.795   9.711 122.111 -0.66 -0.00    +0.000    124.415
ATOM     23  N   UNL     1      36.948   9.055 123.376 -0.59 -0.00    +0.000    124.415
ATOM     24  O   UNL     1      37.124   7.714 123.427 -2.67 -0.00    +0.000    124.415
ATOM     25  O   UNL     1      36.701   9.015 121.065 -2.61 -0.00    +0.000    124.415
ATOM     26  H   UNL     1      36.927   9.581 124.208 -0.55 -0.00    +0.000    124.415
TER
ENDMDL
MODEL       67
USER    Run = 67
USER    Cluster Rank = 10
USER    Number of conformations in this cluster = 1
USER  
USER    RMSD from reference structure       = 127.524 A
USER  
USER    Estimated Free Energy of Binding    =  -10.80 kcal/mol  [=(1)+(2)+(3)-(4)]
USER    Estimated Inhibition Constant, Ki   =   12.14 nM (nanomolar)  [Temperature = 298.15 K]
USER    
USER    (1) Final Intermolecular Energy     =  -12.29 kcal/mol
USER        vdW + Hbond + desolv Energy     =  -12.29 kcal/mol
USER        Electrostatic Energy            =   +0.00 kcal/mol
USER    (2) Final Total Internal Energy     =   -1.30 kcal/mol
USER    (3) Torsional Free Energy           =   +1.49 kcal/mol
USER    (4) Unbound System's Energy  [=(2)] =   -1.30 kcal/mol
USER    
USER    
USER  
USER    DPF = ligand_dock.biased.dpf
USER    NEWDPF move	ligand.dum.pdbqt
USER    NEWDPF about	0.217000 0.012000 -0.211000
USER    NEWDPF tran0	38.608248 13.814219 123.692283
USER    NEWDPF axisangle0	-0.326466 0.005619 0.945192 134.782412
USER    NEWDPF quaternion0	-0.301377 0.005187 0.872556 0.384437
USER    NEWDPF dihe0	83.08 111.04 -154.57 48.58 153.22 
USER  
USER                              x       y       z    vdW   Elec        q     RMS 
ATOM      1  C   UNL     1      37.506  15.677 123.419 -0.29 -0.00    +0.000    127.524
ATOM      2  C   UNL     1      37.848  14.361 123.080 -0.42 -0.00    +0.000    127.524
ATOM      3  C   UNL     1      36.875  13.339 123.104 -0.52 -0.00    +0.000    127.524
ATOM      4  C   UNL     1      35.564  13.662 123.489 -0.42 -0.00    +0.000    127.524
ATOM      5  C   UNL     1      35.222  14.976 123.817 -0.50 -0.00    +0.000    127.524
ATOM      6  C   UNL     1      36.188  15.983 123.778 -0.35 -0.00    +0.000    127.524
ATOM      7  CM  UNL     1      36.534  14.666 123.447 +0.00 -0.00    +0.000    127.524
ATOM      8  O   UNL     1      40.076  16.368 123.032 -0.34 -0.00    +0.000    127.524
ATOM      9  S   UNL     1      38.737  16.939 123.405 -0.32 -0.00    +0.000    127.524
ATOM     10  O   UNL     1      38.825  17.540 124.778 -0.26 -0.00    +0.000    127.524
ATOM     11  N   UNL     1      38.311  18.177 122.264 -0.09 -0.00    +0.000    127.524
ATOM     12  H   UNL     1      38.892  18.970 122.206 +0.00 -0.00    +0.000    127.524
ATOM     13  C   UNL     1      37.162  18.114 121.401 -0.11 -0.00    +0.000    127.524
ATOM     14  C   UNL     1      35.963  18.785 121.708 -0.19 -0.00    +0.000    127.524
ATOM     15  C   UNL     1      34.869  18.709 120.840 -0.23 -0.00    +0.000    127.524
ATOM     16  C   UNL     1      34.957  17.961 119.664 -0.19 -0.00    +0.000    127.524
ATOM     17  C   UNL     1      36.138  17.284 119.356 -0.13 -0.00    +0.000    127.524
ATOM     18  C   UNL     1      37.234  17.357 120.220 -0.10 -0.00    +0.000    127.524
ATOM     19  CM  UNL     1      36.054  18.035 120.531 +0.00 -0.00    +0.000    127.524
ATOM     20  C   UNL     1      37.191  11.926 122.779 -0.57 -0.00    +0.000    127.524
ATOM     21  C   UNL     1      36.275  10.946 122.746 -0.69 -0.00    +0.000    127.524
ATOM     22  C   UNL     1      36.597   9.542 122.419 -0.71 -0.00    +0.000    127.524
ATOM     23  N   UNL     1      36.739   8.533 123.426 -0.65 -0.00    +0.000    127.524
ATOM     24  O   UNL     1      37.137   7.285 123.085 -2.22 -0.00    +0.000    127.524
ATOM     25  O   UNL     1      36.725   9.222 121.207 -2.64 -0.00    +0.000    127.524
ATOM     26  H   UNL     1      36.546   8.747 124.368 -0.35 -0.00    +0.000    127.524
TER
ENDMDL


AVSFLD: # AVS field file
AVSFLD: #
AVSFLD: # Created by AutoDock
AVSFLD: #
AVSFLD: ndim=2           # number of dimensions in the field
AVSFLD: nspace=1         # number of physical coordinates
AVSFLD: veclen=7         # vector size
AVSFLD: dim1=26          # atoms
AVSFLD: dim2=10          # conformations
AVSFLD: data=Real       # data type (byte,integer,Real,double)
AVSFLD: field=uniform    # field coordinate layout
AVSFLD: label= x y z vdW Elec q RMS
AVSFLD: variable 1 file = ligand_dock.biased.dlg.pdb filetype = ascii offset = 5 stride = 12
AVSFLD: variable 2 file = ligand_dock.biased.dlg.pdb filetype = ascii offset = 6 stride = 12
AVSFLD: variable 3 file = ligand_dock.biased.dlg.pdb filetype = ascii offset = 7 stride = 12
AVSFLD: variable 4 file = ligand_dock.biased.dlg.pdb filetype = ascii offset = 8 stride = 12
AVSFLD: variable 5 file = ligand_dock.biased.dlg.pdb filetype = ascii offset = 9 stride = 12
AVSFLD: variable 6 file = ligand_dock.biased.dlg.pdb filetype = ascii offset = 10 stride = 12
AVSFLD: variable 7 file = ligand_dock.biased.dlg.pdb filetype = ascii offset = 11 stride = 12
AVSFLD: # end of file

>>> Closing the docking parameter file (DPF)...
This docking finished at:			6:18 49" p.m., 11/08/2024


________________________________________________________________________________

autodock4: Successful Completion on "ThinkStation-P620"

Real= 11m 40.43s,  CPU= 11m 40.19s,  System= 0.19s
________________________________________________________________________________

