REMARK  Name = 
REMARK  9 active torsions:
REMARK  status: ('A' for Active; 'I' for Inactive)
REMARK    1  A    between atoms: O_1  and  N_2
REMARK    2  A    between atoms: C_3  and  C_4
REMARK    3  A    between atoms: C_4  and  C_5
REMARK    4  A    between atoms: C_5  and  C_6
REMARK    5  A    between atoms: C_6  and  C_7
REMARK    6  A    between atoms: C_7  and  C_8
REMARK    7  A    between atoms: C_8  and  C_9
REMARK    8  A    between atoms: C_9  and  C_10
REMARK    9  A    between atoms: N_11  and  O_12
REMARK                            x       y       z     vdW  Elec       q    Type
REMARK                         _______ _______ _______ _____ _____    ______ ____
ROOT
ATOM      1  C   UNL     1       0.018   0.192  -0.445  0.00  0.00    +0.000 C 
ENDROOT
BRANCH   1   2
ATOM      2  C   UNL     1       1.448  -0.303  -0.195  0.00  0.00    +0.000 C 
BRANCH   2   3
ATOM      3  C   UNL     1       2.010   0.276   1.107  0.00  0.00    +0.000 C 
BRANCH   3   5
ATOM      4  N   UNL     1       4.513   0.448   0.711  0.00  0.00    +0.000 N 
ATOM      5  C   UNL     1       3.409  -0.211   1.337  0.00  0.00    +0.000 C 
ATOM      6  O   UNL     1       3.607  -1.229   2.053  0.00  0.00    +0.000 OA
ATOM      7  H   UNL     1       4.351   1.221   0.124  0.00  0.00    +0.000 HD
BRANCH   4   8
ATOM      8  O   UNL     1       5.780   0.016   0.918  0.00  0.00    +0.000 OA
ATOM      9  H   UNL     1       6.397   0.575   0.419  0.00  0.00    +0.000 HD
ENDBRANCH   4   8
ENDBRANCH   3   5
ENDBRANCH   2   3
ENDBRANCH   1   2
BRANCH   1  10
ATOM     10  C   UNL     1      -0.556  -0.409  -1.736  0.00  0.00    +0.000 C 
BRANCH  10  11
ATOM     11  C   UNL     1      -1.901   0.217  -2.148  0.00  0.00    +0.000 C 
BRANCH  11  12
ATOM     12  C   UNL     1      -3.098  -0.264  -1.309  0.00  0.00    +0.000 C 
BRANCH  12  13
ATOM     13  C   UNL     1      -3.216   0.462   0.001  0.00  0.00    +0.000 C 
ATOM     14  N   UNL     1      -3.185  -0.260   1.236  0.00  0.00    +0.000 N 
ATOM     15  O   UNL     1      -3.370   1.713   0.011  0.00  0.00    +0.000 OA
ATOM     16  H   UNL     1      -3.089  -1.240   1.226  0.00  0.00    +0.000 HD
BRANCH  14  17
ATOM     17  O   UNL     1      -3.287   0.393   2.418  0.00  0.00    +0.000 OA
ATOM     18  H   UNL     1      -3.375   1.345   2.254  0.00  0.00    +0.000 HD
ENDBRANCH  14  17
ENDBRANCH  12  13
ENDBRANCH  11  12
ENDBRANCH  10  11
ENDBRANCH   1  10
TORSDOF 9
